CHEMBL4618_lig124
                    3D
 Schrodinger Suite 2021-1.
 45 48  0  0  1  0            999 V2000
   12.3783   41.9200   65.6590 C   0  0  0  0  0  0
   14.6510   41.7014   65.0298 N   0  3  0  0  0  0
   11.1595   43.8160   65.3197 N   0  0  0  0  0  0
   11.0832   41.7287   66.1246 N   0  0  0  0  0  0
   10.4279   42.9185   65.9064 C   0  0  0  0  0  0
   13.5285   41.1298   65.5399 C   0  0  0  0  0  0
   12.3947   43.2560   65.2136 C   0  0  0  0  0  0
   15.7210   41.0160   64.9135 O   0  5  0  0  0  0
   13.5843   43.8160   64.7376 C   0  0  0  0  0  0
   14.7118   42.9979   64.6877 C   0  0  0  0  0  0
    8.0915   37.7158   71.0605 C   0  0  0  0  0  0
    7.9706   37.1909   72.4807 C   0  0  0  0  0  0
    8.3836   38.7195   68.4616 C   0  0  0  0  0  0
   10.5297   40.5004   66.6736 C   0  0  0  0  0  0
    7.1220   37.4705   70.0858 C   0  0  0  0  0  0
    9.2075   38.4655   70.7318 C   0  0  0  0  0  0
    9.3210   38.9628   69.4456 C   0  0  0  0  0  0
    7.3025   37.9193   68.7762 C   0  0  0  0  0  0
    8.9892   36.1154   72.8450 C   0  0  0  0  0  0
    8.5133   39.2404   67.1943 O   0  0  0  0  0  0
    9.0420   40.5655   67.0830 C   0  0  0  0  0  0
    9.2089   35.0329   71.9885 C   0  0  0  0  0  0
    9.6950   36.2014   74.0490 C   0  0  0  0  0  0
   10.1210   34.0404   72.3400 C   0  0  0  0  0  0
   10.6135   35.2151   74.3941 C   0  0  0  0  0  0
   10.8207   34.1361   73.5400 C   0  0  0  0  0  0
    9.3907   43.0486   66.1765 H   0  0  0  0  0  0
   13.6032   40.1124   65.8679 H   0  0  0  0  0  0
   13.6320   44.8412   64.4000 H   0  0  0  0  0  0
   15.6746   43.3417   64.3401 H   0  0  0  0  0  0
    8.1209   38.0447   73.1400 H   0  0  0  0  0  0
    6.9640   36.8253   72.6785 H   0  0  0  0  0  0
   10.6772   39.7133   65.9400 H   0  0  0  0  0  0
   11.1431   40.2622   67.5312 H   0  0  0  0  0  0
    6.1930   37.0024   70.3400 H   0  0  0  0  0  0
    9.9982   38.6160   71.4503 H   0  0  0  0  0  0
   10.2315   39.4160   69.1400 H   0  0  0  0  0  0
    6.5475   37.7318   68.0268 H   0  0  0  0  0  0
    8.9136   41.1552   67.9941 H   0  0  0  0  0  0
    8.4312   41.0693   66.3400 H   0  0  0  0  0  0
    8.6479   34.9519   71.0698 H   0  0  0  0  0  0
    9.5227   37.0159   74.7340 H   0  0  0  0  0  0
   10.2771   33.1921   71.6901 H   0  0  0  0  0  0
   11.1473   35.2738   75.3323 H   0  0  0  0  0  0
   11.5177   33.3576   73.8178 H   0  0  0  0  0  0
  1  4  1  0  0  0
  1  6  1  0  0  0
  1  7  2  0  0  0
  2  6  2  0  0  0
  2  8  1  0  0  0
  2 10  1  0  0  0
  3  7  1  0  0  0
  3  5  2  0  0  0
  4  5  1  0  0  0
  4 14  1  0  0  0
  5 27  1  0  0  0
  6 28  1  0  0  0
  7  9  1  0  0  0
  9 10  2  0  0  0
  9 29  1  0  0  0
 10 30  1  0  0  0
 11 15  1  0  0  0
 11 12  1  0  0  0
 11 16  2  0  0  0
 12 19  1  0  0  0
 12 31  1  0  0  0
 12 32  1  0  0  0
 13 20  1  0  0  0
 13 17  2  0  0  0
 13 18  1  0  0  0
 14 21  1  0  0  0
 14 33  1  0  0  0
 14 34  1  0  0  0
 15 18  2  0  0  0
 15 35  1  0  0  0
 16 17  1  0  0  0
 16 36  1  0  0  0
 17 37  1  0  0  0
 18 38  1  0  0  0
 19 22  1  0  0  0
 19 23  2  0  0  0
 20 21  1  0  0  0
 21 39  1  0  0  0
 21 40  1  0  0  0
 22 24  2  0  0  0
 22 41  1  0  0  0
 23 25  1  0  0  0
 23 42  1  0  0  0
 24 26  1  0  0  0
 24 43  1  0  0  0
 25 26  2  0  0  0
 25 44  1  0  0  0
 26 45  1  0  0  0
M  CHG  2   2   1   8  -1
M  END
> <s_m_entry_id>
6572

> <s_m_entry_name>
dock_pv.2

> <s_m_Source_Path>
/home/csk/Desktop/cluster/DUD-E-result/lkha4

> <s_m_Source_File>
dock_pv.maegz

> <i_m_Source_File_Index>
2

> <chembl_id>
CHEMBL14857

> <chembl_pref_name>
None

> <i_lp_mmshare_version>
53161

> <i_f3d_flags>
0

> <r_lp_tautomer_probability>
1

> <s_lp_Force_Field>
OPLS_2005

> <r_lp_Energy>
20.328979

> <b_lp_Chiralities_Consistent>
1

> <s_lp_Variant>
CHEMBL4618_lig124-1

> <s_i_glide_gridfile>
glide-grid_3chp

> <i_i_glide_lignum>
150

> <i_i_glide_rotatable_bonds>
6

> <r_i_docking_score>
-15.0759351877579

> <r_i_glide_ligand_efficiency>
-0.57984366106761

> <r_i_glide_ligand_efficiency_sa>
-1.71778456433816

> <r_i_glide_ligand_efficiency_ln>
-3.54053391066678

> <r_i_glide_gscore>
-15.0759351877579

> <r_i_glide_lipo>
-5.51897014164214

> <r_i_glide_hbond>
-0.100448198565699

> <r_i_glide_metal>
-2.3

> <r_i_glide_rewards>
-2.34359854893203

> <r_i_glide_evdw>
-37.3137817382812

> <r_i_glide_ecoul>
-24.4113292694092

> <r_i_glide_erotb>
0.796298523651758

> <r_i_glide_esite>
-0.0818283449443036

> <r_i_glide_emodel>
-104.349529444439

> <r_i_glide_energy>
-61.7251110076904

> <r_i_glide_einternal>
11.0229721069336

> <i_i_glide_confnum>
3

> <i_i_glide_posenum>
234

> <r_i_glide_eff_state_penalty>
0

> <s_user_duplicate_titles>
CHEMBL4618_lig124,14733

> <s_m_subgroup_title>
dock_pv

> <s_m_subgroupid>
dock_pv

> <b_m_subgroup_collapsed>
1

$$$$
CHEMBL4618_lig16
                    3D
 Schrodinger Suite 2021-1.
 53 55  0  0  1  0            999 V2000
   16.2044   41.8689   64.5505 C   0  0  0  0  0  0
   10.9068   42.6369   65.5691 N   0  0  1  0  0  0
   14.8989   41.8407   64.2908 N   0  0  0  0  0  0
   16.7244   42.1951   65.6068 O   0  0  0  0  0  0
   16.9204   41.4160   63.5398 N   0  0  0  0  0  0
   13.0136   43.4295   64.5386 C   0  0  0  0  0  0
   12.9209   41.1525   65.6468 C   0  0  0  0  0  0
   13.8340   42.2968   65.1718 C   0  0  0  0  0  0
   11.7690   43.7971   65.3541 C   0  0  0  0  0  0
   11.6167   41.6046   66.3346 C   0  0  0  0  0  0
    8.0943   37.8751   69.7097 C   0  0  0  0  0  0
    7.7218   36.8125   70.7490 C   0  0  0  0  0  0
    8.5219   39.9210   67.8200 C   0  0  0  0  0  0
    8.1332   37.5837   68.3443 C   0  0  0  0  0  0
    8.2425   39.1960   70.1095 C   0  0  0  0  0  0
    8.4362   40.2132   69.1821 C   0  0  0  0  0  0
    8.3783   38.5958   67.4118 C   0  0  0  0  0  0
    8.7668   36.3713   71.7850 C   0  0  0  0  0  0
    8.7099   40.8747   66.8381 O   0  0  0  0  0  0
    9.5718   43.0415   66.0513 C   0  0  0  0  0  0
    8.9398   42.2367   67.2089 C   0  0  0  0  0  0
    9.0878   35.0162   71.9248 C   0  0  0  0  0  0
    9.3328   37.2890   72.6728 C   0  0  0  0  0  0
    9.9857   34.5878   72.8974 C   0  0  0  0  0  0
   10.2100   36.8586   73.6641 C   0  0  0  0  0  0
   10.5210   35.5097   73.7852 C   0  0  0  0  0  0
   14.6085   41.5547   63.3621 H   0  0  0  0  0  0
   17.8569   41.8102   63.4615 H   0  0  0  0  0  0
   16.4349   41.3624   62.6419 H   0  0  0  0  0  0
   13.6373   44.3166   64.4196 H   0  0  0  0  0  0
   12.6810   43.1480   63.5403 H   0  0  0  0  0  0
   12.6475   40.4969   64.8204 H   0  0  0  0  0  0
   13.4822   40.5315   66.3396 H   0  0  0  0  0  0
   14.2432   42.7472   66.0807 H   0  0  0  0  0  0
   12.0275   44.2184   66.3243 H   0  0  0  0  0  0
   11.2315   44.5549   64.7891 H   0  0  0  0  0  0
   11.7747   41.9609   67.3507 H   0  0  0  0  0  0
   10.9876   40.7190   66.4097 H   0  0  0  0  0  0
    6.8883   37.2183   71.3194 H   0  0  0  0  0  0
    7.3259   35.9390   70.2294 H   0  0  0  0  0  0
    7.9880   36.5695   68.0142 H   0  0  0  0  0  0
    8.1237   39.4515   71.1480 H   0  0  0  0  0  0
    8.4847   41.2281   69.5402 H   0  0  0  0  0  0
    8.4303   38.3554   66.3595 H   0  0  0  0  0  0
    9.5637   44.0939   66.3424 H   0  0  0  0  0  0
    8.9184   42.9846   65.1848 H   0  0  0  0  0  0
    9.6012   42.3278   68.0719 H   0  0  0  0  0  0
    7.9882   42.6904   67.4901 H   0  0  0  0  0  0
    8.6358   34.2849   71.2726 H   0  0  0  0  0  0
    9.0774   38.3335   72.6331 H   0  0  0  0  0  0
   10.2289   33.5390   72.9897 H   0  0  0  0  0  0
   10.6419   37.5699   74.3500 H   0  0  0  0  0  0
   11.1942   35.1771   74.5631 H   0  0  0  0  0  0
  1  3  1  0  0  0
  1  4  2  0  0  0
  1  5  1  0  0  0
  2 10  1  0  0  0
  2 20  1  0  0  0
  2  9  1  0  0  0
  3  8  1  0  0  0
  3 27  1  0  0  0
  5 28  1  0  0  0
  5 29  1  0  0  0
  6  8  1  0  0  0
  6  9  1  0  0  0
  6 30  1  0  0  0
  6 31  1  0  0  0
  7  8  1  0  0  0
  7 10  1  0  0  0
  7 32  1  0  0  0
  7 33  1  0  0  0
  8 34  1  0  0  0
  9 35  1  0  0  0
  9 36  1  0  0  0
 10 37  1  0  0  0
 10 38  1  0  0  0
 11 14  2  0  0  0
 11 12  1  0  0  0
 11 15  1  0  0  0
 12 18  1  0  0  0
 12 39  1  0  0  0
 12 40  1  0  0  0
 13 19  1  0  0  0
 13 16  1  0  0  0
 13 17  2  0  0  0
 14 17  1  0  0  0
 14 41  1  0  0  0
 15 16  2  0  0  0
 15 42  1  0  0  0
 16 43  1  0  0  0
 17 44  1  0  0  0
 18 22  2  0  0  0
 18 23  1  0  0  0
 19 21  1  0  0  0
 20 21  1  0  0  0
 20 45  1  0  0  0
 20 46  1  0  0  0
 21 47  1  0  0  0
 21 48  1  0  0  0
 22 24  1  0  0  0
 22 49  1  0  0  0
 23 25  2  0  0  0
 23 50  1  0  0  0
 24 26  2  0  0  0
 24 51  1  0  0  0
 25 26  1  0  0  0
 25 52  1  0  0  0
 26 53  1  0  0  0
M  END
> <s_m_entry_id>
6573

> <s_m_entry_name>
dock_pv.3

> <s_m_Source_Path>
/home/csk/Desktop/cluster/DUD-E-result/lkha4

> <s_m_Source_File>
dock_pv.maegz

> <i_m_Source_File_Index>
3

> <chembl_id>
CHEMBL115227

> <chembl_pref_name>
None

> <i_lp_mmshare_version>
53161

> <i_f3d_flags>
0

> <r_lp_tautomer_probability>
1

> <s_lp_Force_Field>
OPLS_2005

> <r_lp_Energy>
23.807946

> <b_lp_Chiralities_Consistent>
1

> <s_lp_Variant>
CHEMBL4618_lig16-1

> <s_i_glide_gridfile>
glide-grid_3chp

> <i_i_glide_lignum>
17

> <i_i_glide_rotatable_bonds>
8

> <r_i_docking_score>
-12.5212206930203

> <r_i_glide_ligand_efficiency>
-0.48158541127001

> <r_i_glide_ligand_efficiency_sa>
-1.42669488594032

> <r_i_glide_ligand_efficiency_ln>
-2.94056759427963

> <r_i_glide_gscore>
-12.5212206930203

> <r_i_glide_lipo>
-6.01914093684261

> <r_i_glide_hbond>
-0.58610651852173

> <r_i_glide_metal>
0

> <r_i_glide_rewards>
-1.89878253883847

> <r_i_glide_evdw>
-45.4591407775879

> <r_i_glide_ecoul>
-16.7616481781006

> <r_i_glide_erotb>
1.07001356677702

> <r_i_glide_esite>
-0.3

> <r_i_glide_emodel>
-98.913513171414

> <r_i_glide_energy>
-62.2207889556885

> <r_i_glide_einternal>
13.4051103591919

> <i_i_glide_confnum>
19

> <i_i_glide_posenum>
205

> <r_i_glide_eff_state_penalty>
0

> <s_user_duplicate_titles>
CHEMBL4618_lig16,188257

> <s_m_subgroup_title>
dock_pv

> <s_m_subgroupid>
dock_pv

> <b_m_subgroup_collapsed>
1

$$$$
CHEMBL4618_lig281
                    3D
 Schrodinger Suite 2021-1.
 51 54  0  0  1  0            999 V2000
   10.9210   35.3249   74.7035 C   0  0  0  0  0  0
   10.8481   34.1645   73.9399 C   0  0  0  0  0  0
   10.1218   34.1343   72.7492 C   0  0  0  0  0  0
   10.3723   36.5237   74.2544 C   0  0  0  0  0  0
    9.6766   36.5169   73.0354 C   0  0  0  0  0  0
    9.5053   35.3143   72.3135 C   0  0  0  0  0  0
    8.7446   35.4161   71.1975 N   0  0  0  0  0  0
    8.4314   36.6356   70.9165 C   0  0  0  0  0  0
    8.9229   37.8159   72.1129 S   0  0  0  0  0  0
    7.7361   36.9711   69.7740 O   0  0  0  0  0  0
    8.0132   38.1100   69.0525 C   0  0  0  0  0  0
    8.5207   37.9848   67.7713 C   0  0  0  0  0  0
    8.8311   39.1021   67.0141 C   0  0  0  0  0  0
    8.6352   40.3707   67.5434 C   0  0  0  0  0  0
    8.0840   40.5222   68.8159 C   0  0  0  0  0  0
    7.7586   39.3784   69.5400 C   0  0  0  0  0  0
    8.9977   41.3983   66.7243 O   0  0  0  0  0  0
    9.2683   42.6921   67.2265 C   0  0  0  0  0  0
   10.0077   43.3715   66.0555 C   0  0  0  0  0  0
   11.4541   43.0892   65.9426 N   0  0  1  0  0  0
   11.8213   41.6689   66.0673 C   0  0  0  0  0  0
   13.3374   41.4294   65.9287 C   0  0  0  0  0  0
   13.9290   42.0442   64.6384 C   0  0  0  0  0  0
   13.5089   43.5317   64.5453 C   0  0  0  0  0  0
   11.9856   43.7021   64.7184 C   0  0  0  0  0  0
   15.4736   41.8556   64.5069 C   0  0  0  0  0  0
   16.1209   42.6155   63.6382 N   0  0  0  0  0  0
   16.1204   41.0161   65.1397 O   0  0  0  0  0  0
   11.4549   35.3010   75.6439 H   0  0  0  0  0  0
   11.3227   33.2617   74.3021 H   0  0  0  0  0  0
   10.0249   33.2181   72.1869 H   0  0  0  0  0  0
   10.5002   37.4160   74.8393 H   0  0  0  0  0  0
    8.7208   37.0157   67.3685 H   0  0  0  0  0  0
    9.2515   38.9831   66.0250 H   0  0  0  0  0  0
    7.8879   41.4992   69.2327 H   0  0  0  0  0  0
    7.3212   39.4162   70.5120 H   0  0  0  0  0  0
    9.8772   42.6770   68.1331 H   0  0  0  0  0  0
    8.3290   43.2030   67.4457 H   0  0  0  0  0  0
    9.8274   44.4405   66.1051 H   0  0  0  0  0  0
    9.5151   43.0537   65.1398 H   0  0  0  0  0  0
   11.2684   41.0739   65.3502 H   0  0  0  0  0  0
   11.5051   41.3059   67.0457 H   0  0  0  0  0  0
   13.4828   40.3487   65.9407 H   0  0  0  0  0  0
   13.7209   41.9050   66.8250 H   0  0  0  0  0  0
   13.5373   41.4997   63.7780 H   0  0  0  0  0  0
   13.9732   44.1479   65.3173 H   0  0  0  0  0  0
   13.7207   43.9352   63.5549 H   0  0  0  0  0  0
   11.4577   43.3049   63.8512 H   0  0  0  0  0  0
   11.7615   44.7661   64.7423 H   0  0  0  0  0  0
   17.1153   42.5325   63.4567 H   0  0  0  0  0  0
   15.6371   43.3530   63.1398 H   0  0  0  0  0  0
  1  2  2  0  0  0
  1  4  1  0  0  0
  1 29  1  0  0  0
  2  3  1  0  0  0
  2 30  1  0  0  0
  3  6  2  0  0  0
  3 31  1  0  0  0
  4  5  2  0  0  0
  4 32  1  0  0  0
  5  9  1  0  0  0
  5  6  1  0  0  0
  6  7  1  0  0  0
  7  8  2  0  0  0
  8  9  1  0  0  0
  8 10  1  0  0  0
 10 11  1  0  0  0
 11 16  1  0  0  0
 11 12  2  0  0  0
 12 13  1  0  0  0
 12 33  1  0  0  0
 13 14  2  0  0  0
 13 34  1  0  0  0
 14 15  1  0  0  0
 14 17  1  0  0  0
 15 16  2  0  0  0
 15 35  1  0  0  0
 16 36  1  0  0  0
 17 18  1  0  0  0
 18 19  1  0  0  0
 18 37  1  0  0  0
 18 38  1  0  0  0
 19 20  1  0  0  0
 19 39  1  0  0  0
 19 40  1  0  0  0
 20 21  1  0  0  0
 20 25  1  0  0  0
 21 22  1  0  0  0
 21 41  1  0  0  0
 21 42  1  0  0  0
 22 23  1  0  0  0
 22 43  1  0  0  0
 22 44  1  0  0  0
 23 24  1  0  0  0
 23 26  1  0  0  0
 23 45  1  0  0  0
 24 25  1  0  0  0
 24 46  1  0  0  0
 24 47  1  0  0  0
 25 48  1  0  0  0
 25 49  1  0  0  0
 26 27  1  0  0  0
 26 28  2  0  0  0
 27 50  1  0  0  0
 27 51  1  0  0  0
M  END
> <s_m_entry_id>
6574

> <s_m_entry_name>
dock_pv.4

> <s_m_Source_Path>
/home/csk/Desktop/cluster/DUD-E-result/lkha4

> <s_m_Source_File>
dock_pv.maegz

> <i_m_Source_File_Index>
4

> <chembl_id>
CHEMBL480137

> <chembl_pref_name>
None

> <i_lp_mmshare_version>
53161

> <i_f3d_flags>
0

> <r_lp_tautomer_probability>
1

> <s_lp_Force_Field>
OPLS_2005

> <r_lp_Energy>
29.938922

> <b_lp_Chiralities_Consistent>
1

> <s_lp_Variant>
CHEMBL4618_lig281-1

> <s_i_glide_gridfile>
glide-grid_3chp

> <i_i_glide_lignum>
319

> <i_i_glide_rotatable_bonds>
7

> <r_i_docking_score>
-12.1513919362687

> <r_i_glide_ligand_efficiency>
-0.433978283438169

> <r_i_glide_ligand_efficiency_sa>
-1.31781366805813

> <r_i_glide_ligand_efficiency_ln>
-2.80489803926115

> <r_i_glide_gscore>
-12.1513919362687

> <r_i_glide_lipo>
-6.00353041730964

> <r_i_glide_hbond>
-0.570539243015389

> <r_i_glide_metal>
0

> <r_i_glide_rewards>
-1.42276710021984

> <r_i_glide_evdw>
-39.6632194519043

> <r_i_glide_ecoul>
-18.0984115600586

> <r_i_glide_erotb>
0.74336753088014

> <r_i_glide_esite>
-0.2

> <r_i_glide_emodel>
-88.7582135904226

> <r_i_glide_energy>
-57.7616310119629

> <r_i_glide_einternal>
16.890552520752

> <i_i_glide_confnum>
9

> <i_i_glide_posenum>
327

> <r_i_glide_eff_state_penalty>
0

> <s_user_duplicate_titles>
CHEMBL4618_lig281,466733

> <s_m_subgroup_title>
dock_pv

> <s_m_subgroupid>
dock_pv

> <b_m_subgroup_collapsed>
1

$$$$
CHEMBL4618_lig264
                    3D
 Schrodinger Suite 2021-1.
 50 53  0  0  1  0            999 V2000
   10.5066   35.7391   73.8254 C   0  0  0  0  0  0
   10.1208   34.6026   73.1204 C   0  0  0  0  0  0
    9.3116   34.6999   71.9852 C   0  0  0  0  0  0
   10.1623   37.0160   73.3805 C   0  0  0  0  0  0
    9.4007   37.1243   72.2078 C   0  0  0  0  0  0
    8.9209   35.9714   71.5400 C   0  0  0  0  0  0
    8.1210   36.2160   70.4655 N   0  0  0  0  0  0
    8.0558   37.4813   70.1951 C   0  0  0  0  0  0
    8.9209   38.5385   71.2807 S   0  0  0  0  0  0
    7.3635   38.0027   69.1294 O   0  0  0  0  0  0
    7.8918   39.0833   68.4666 C   0  0  0  0  0  0
    8.7658   38.8341   67.4264 C   0  0  0  0  0  0
    9.3308   39.8940   66.7413 C   0  0  0  0  0  0
    9.0512   41.2234   67.0902 C   0  0  0  0  0  0
    8.1509   41.4725   68.1224 C   0  0  0  0  0  0
    7.5698   40.4014   68.7902 C   0  0  0  0  0  0
    9.5684   42.3922   66.2414 C   0  0  0  0  0  0
   11.0213   42.6437   66.1849 N   0  0  1  0  0  0
   11.8501   41.4446   66.1563 C   0  0  0  0  0  0
   13.3263   41.7382   65.9820 C   0  0  0  0  0  0
   13.7199   42.6044   64.7719 C   0  0  0  0  0  0
   12.7801   43.8161   64.7666 C   0  0  0  0  0  0
   11.2932   43.4901   65.0164 C   0  0  0  0  0  0
   15.1271   43.0158   64.7400 N   0  0  0  0  0  0
   16.1913   42.2360   64.9753 C   0  0  0  0  0  0
   16.1225   41.0165   65.1400 O   0  0  0  0  0  0
   17.5311   42.9372   65.1400 C   0  0  0  0  0  0
   11.1031   35.6262   74.7197 H   0  0  0  0  0  0
   10.4162   33.6280   73.4847 H   0  0  0  0  0  0
    8.9614   33.8125   71.4796 H   0  0  0  0  0  0
   10.5209   37.8877   73.9075 H   0  0  0  0  0  0
    8.9974   37.8162   67.1497 H   0  0  0  0  0  0
    9.9906   39.6378   65.9388 H   0  0  0  0  0  0
    7.8621   42.4831   68.3790 H   0  0  0  0  0  0
    6.8365   40.5977   69.5400 H   0  0  0  0  0  0
    9.0843   43.3145   66.5692 H   0  0  0  0  0  0
    9.1902   42.2161   65.2358 H   0  0  0  0  0  0
   11.5499   40.7959   65.3412 H   0  0  0  0  0  0
   11.7053   40.8927   67.0836 H   0  0  0  0  0  0
   13.8104   40.7649   65.9285 H   0  0  0  0  0  0
   13.6754   42.2160   66.8985 H   0  0  0  0  0  0
   13.5027   42.0305   63.8670 H   0  0  0  0  0  0
   13.0805   44.5207   65.5400 H   0  0  0  0  0  0
   12.8750   44.3490   63.8195 H   0  0  0  0  0  0
   10.8946   43.0167   64.1202 H   0  0  0  0  0  0
   10.7383   44.4200   65.1400 H   0  0  0  0  0  0
   15.3147   43.8984   64.2687 H   0  0  0  0  0  0
   17.5443   43.8891   64.6080 H   0  0  0  0  0  0
   18.3388   42.3241   64.7400 H   0  0  0  0  0  0
   17.7337   43.1248   66.1940 H   0  0  0  0  0  0
  1  2  2  0  0  0
  1  4  1  0  0  0
  1 28  1  0  0  0
  2  3  1  0  0  0
  2 29  1  0  0  0
  3  6  2  0  0  0
  3 30  1  0  0  0
  4  5  2  0  0  0
  4 31  1  0  0  0
  5  9  1  0  0  0
  5  6  1  0  0  0
  6  7  1  0  0  0
  7  8  2  0  0  0
  8  9  1  0  0  0
  8 10  1  0  0  0
 10 11  1  0  0  0
 11 16  1  0  0  0
 11 12  2  0  0  0
 12 13  1  0  0  0
 12 32  1  0  0  0
 13 14  2  0  0  0
 13 33  1  0  0  0
 14 15  1  0  0  0
 14 17  1  0  0  0
 15 16  2  0  0  0
 15 34  1  0  0  0
 16 35  1  0  0  0
 17 18  1  0  0  0
 17 36  1  0  0  0
 17 37  1  0  0  0
 18 19  1  0  0  0
 18 23  1  0  0  0
 19 20  1  0  0  0
 19 38  1  0  0  0
 19 39  1  0  0  0
 20 21  1  0  0  0
 20 40  1  0  0  0
 20 41  1  0  0  0
 21 22  1  0  0  0
 21 24  1  0  0  0
 21 42  1  0  0  0
 22 23  1  0  0  0
 22 43  1  0  0  0
 22 44  1  0  0  0
 23 45  1  0  0  0
 23 46  1  0  0  0
 24 25  1  0  0  0
 24 47  1  0  0  0
 25 26  2  0  0  0
 25 27  1  0  0  0
 27 48  1  0  0  0
 27 49  1  0  0  0
 27 50  1  0  0  0
M  END
> <s_m_entry_id>
6575

> <s_m_entry_name>
dock_pv.5

> <s_m_Source_Path>
/home/csk/Desktop/cluster/DUD-E-result/lkha4

> <s_m_Source_File>
dock_pv.maegz

> <i_m_Source_File_Index>
5

> <chembl_id>
CHEMBL480131

> <chembl_pref_name>
None

> <i_lp_mmshare_version>
53161

> <i_f3d_flags>
0

> <r_lp_tautomer_probability>
1

> <s_lp_Force_Field>
OPLS_2005

> <r_lp_Energy>
21.34367

> <b_lp_Chiralities_Consistent>
1

> <s_lp_Variant>
CHEMBL4618_lig264-1

> <s_i_glide_gridfile>
glide-grid_3chp

> <i_i_glide_lignum>
302

> <i_i_glide_rotatable_bonds>
6

> <r_i_docking_score>
-12.0060746288444

> <r_i_glide_ligand_efficiency>
-0.444669430697941

> <r_i_glide_ligand_efficiency_sa>
-1.33400829062826

> <r_i_glide_ligand_efficiency_ln>
-2.79481623798521

> <r_i_glide_gscore>
-12.0060746288444

> <r_i_glide_lipo>
-5.82851410740267

> <r_i_glide_hbond>
-0.550771366504825

> <r_i_glide_metal>
0

> <r_i_glide_rewards>
-1.70712757922457

> <r_i_glide_evdw>
-44.2949104309082

> <r_i_glide_ecoul>
-14.4796257019043

> <r_i_glide_erotb>
0.666900632029076

> <r_i_glide_esite>
-0.199872830910342

> <r_i_glide_emodel>
-91.2475461246429

> <r_i_glide_energy>
-58.7745361328125

> <r_i_glide_einternal>
10.2077608108521

> <i_i_glide_confnum>
8

> <i_i_glide_posenum>
178

> <r_i_glide_eff_state_penalty>
0

> <s_user_duplicate_titles>
CHEMBL4618_lig264,466992

> <s_m_subgroup_title>
dock_pv

> <s_m_subgroupid>
dock_pv

> <b_m_subgroup_collapsed>
1

$$$$
CHEMBL4618_lig478
                    3D
 Schrodinger Suite 2021-1.
 50 54  0  0  1  0            999 V2000
   16.1327   41.0160   63.5400 O   0  0  0  0  0  0
   15.8712   42.3470   63.8550 C   0  0  2  0  0  0
   16.4302   42.8322   65.1927 C   0  0  0  0  0  0
   15.2338   43.5333   65.8398 C   0  0  0  0  0  0
   14.0700   42.8146   65.3492 N   0  0  1  0  0  0
   12.7758   43.4761   65.5518 C   0  0  0  0  0  0
   11.6743   42.5263   65.9988 C   0  0  0  0  0  0
   11.8300   41.1474   65.9400 C   0  0  0  0  0  0
   10.8860   40.2791   66.3400 N   0  0  0  0  0  0
    9.8309   40.7432   67.0367 C   0  0  0  0  0  0
    9.0426   39.8125   67.7300 C   0  0  0  0  0  0
    8.0478   40.2622   68.5872 C   0  0  0  0  0  0
    7.3577   39.3673   69.3658 O   0  0  0  0  0  0
    7.9777   38.6160   70.3504 C   0  0  0  0  0  0
    7.1830   37.7941   71.1400 C   0  0  0  0  0  0
    7.7816   37.0160   72.1317 C   0  0  0  0  0  0
    9.1566   37.0883   72.3255 C   0  0  0  0  0  0
    9.8795   37.9791   71.5400 C   0  0  0  0  0  0
    9.3188   38.7336   70.5635 N   0  0  0  0  0  0
    9.8484   36.2115   73.2835 C   0  0  0  0  0  0
   10.2433   34.8879   73.1985 C   0  0  0  0  0  0
   10.9210   34.6233   74.3915 C   0  0  0  0  0  0
   10.9210   35.6597   75.1971 N   0  0  0  0  0  0
   10.2835   36.6160   74.5158 N   0  0  0  0  0  0
    7.7210   41.6167   68.6316 C   0  0  0  0  0  0
    8.4431   42.5560   67.8971 C   0  0  0  0  0  0
    9.5593   42.1334   67.1400 C   0  0  0  0  0  0
   10.4733   43.0160   66.5180 C   0  0  0  0  0  0
   14.3670   42.6160   63.9402 C   0  0  0  0  0  0
   15.7303   40.9167   62.6447 H   0  0  0  0  0  0
   16.3037   42.9713   63.0710 H   0  0  0  0  0  0
   16.7898   42.0223   65.8240 H   0  0  0  0  0  0
   17.2595   43.5264   65.0494 H   0  0  0  0  0  0
   15.2473   43.4916   66.9289 H   0  0  0  0  0  0
   15.1856   44.5910   65.5867 H   0  0  0  0  0  0
   12.8751   44.2160   66.3400 H   0  0  0  0  0  0
   12.4440   44.0297   64.6716 H   0  0  0  0  0  0
   12.7112   40.6913   65.5125 H   0  0  0  0  0  0
    9.2785   38.7592   67.6677 H   0  0  0  0  0  0
    6.1210   37.7505   70.9702 H   0  0  0  0  0  0
    7.1961   36.3464   72.7400 H   0  0  0  0  0  0
   10.9480   38.0759   71.6530 H   0  0  0  0  0  0
   10.0808   34.2100   72.3733 H   0  0  0  0  0  0
   11.3743   33.6835   74.6768 H   0  0  0  0  0  0
   10.1173   37.5398   74.9034 H   0  0  0  0  0  0
    6.9057   41.9479   69.2561 H   0  0  0  0  0  0
    8.1921   43.6060   67.9587 H   0  0  0  0  0  0
   10.2765   44.0735   66.5479 H   0  0  0  0  0  0
   14.1121   43.5138   63.3766 H   0  0  0  0  0  0
   13.7401   41.8410   63.4962 H   0  0  0  0  0  0
  1  2  1  0  0  0
  1 30  1  0  0  0
  2  3  1  0  0  0
  2 29  1  0  0  0
  2 31  1  0  0  0
  3  4  1  0  0  0
  3 32  1  0  0  0
  3 33  1  0  0  0
  4  5  1  0  0  0
  4 34  1  0  0  0
  4 35  1  0  0  0
  5  6  1  0  0  0
  5 29  1  0  0  0
  6  7  1  0  0  0
  6 36  1  0  0  0
  6 37  1  0  0  0
  7  8  2  0  0  0
  7 28  1  0  0  0
  8  9  1  0  0  0
  8 38  1  0  0  0
  9 10  2  0  0  0
 10 11  1  0  0  0
 10 27  1  0  0  0
 11 12  2  0  0  0
 11 39  1  0  0  0
 12 13  1  0  0  0
 12 25  1  0  0  0
 13 14  1  0  0  0
 14 15  2  0  0  0
 14 19  1  0  0  0
 15 16  1  0  0  0
 15 40  1  0  0  0
 16 17  2  0  0  0
 16 41  1  0  0  0
 17 18  1  0  0  0
 17 20  1  0  0  0
 18 19  2  0  0  0
 18 42  1  0  0  0
 20 21  2  0  0  0
 20 24  1  0  0  0
 21 22  1  0  0  0
 21 43  1  0  0  0
 22 23  2  0  0  0
 22 44  1  0  0  0
 23 24  1  0  0  0
 24 45  1  0  0  0
 25 26  2  0  0  0
 25 46  1  0  0  0
 26 27  1  0  0  0
 26 47  1  0  0  0
 27 28  2  0  0  0
 28 48  1  0  0  0
 29 49  1  0  0  0
 29 50  1  0  0  0
M  END
> <s_m_entry_id>
6576

> <s_m_entry_name>
dock_pv.6

> <s_m_Source_Path>
/home/csk/Desktop/cluster/DUD-E-result/lkha4

> <s_m_Source_File>
dock_pv.maegz

> <i_m_Source_File_Index>
6

> <chembl_id>
CHEMBL4112032

> <chembl_pref_name>
None

> <i_lp_mmshare_version>
53161

> <i_f3d_flags>
0

> <r_lp_tautomer_probability>
0.5

> <s_lp_Force_Field>
OPLS_2005

> <r_lp_Energy>
51.088503

> <b_lp_Chiralities_Consistent>
1

> <s_lp_Variant>
CHEMBL4618_lig478-1

> <s_i_glide_gridfile>
glide-grid_3chp

> <i_i_glide_lignum>
571

> <i_i_glide_rotatable_bonds>
6

> <r_i_docking_score>
-11.9793987560498

> <r_i_glide_ligand_efficiency>
-0.413082715725857

> <r_i_glide_ligand_efficiency_sa>
-1.26912097650005

> <r_i_glide_ligand_efficiency_ln>
-2.74297854379307

> <r_i_glide_gscore>
-11.9793987560498

> <r_i_glide_lipo>
-5.2811005767452

> <r_i_glide_hbond>
-0.456

> <r_i_glide_metal>
0

> <r_i_glide_rewards>
-2.41749245454545

> <r_i_glide_evdw>
-39.072078704834

> <r_i_glide_ecoul>
-16.7991237640381

> <r_i_glide_erotb>
0.648666775088222

> <r_i_glide_esite>
0

> <r_i_glide_emodel>
-76.9747370349412

> <r_i_glide_energy>
-55.8712024688721

> <r_i_glide_einternal>
11.163049697876

> <i_i_glide_confnum>
54

> <i_i_glide_posenum>
191

> <r_i_glide_eff_state_penalty>
0

> <s_user_duplicate_titles>
CHEMBL4618_lig478,CHEMBL4618_lig478

> <s_m_subgroup_title>
dock_pv

> <s_m_subgroupid>
dock_pv

> <b_m_subgroup_collapsed>
1

$$$$
CHEMBL4618_lig448
                    3D
 Schrodinger Suite 2021-1.
 49 53  0  0  1  0            999 V2000
    7.9615   36.9787   69.5309 O   0  0  0  0  0  0
    9.0096   37.8406   71.9400 S   0  0  0  0  0  0
    8.5092   36.6450   70.7666 C   0  0  0  0  0  0
    8.7329   35.4164   71.1400 N   0  0  0  0  0  0
    9.5059   35.3325   72.2532 C   0  0  0  0  0  0
    9.7049   36.5555   72.9272 C   0  0  0  0  0  0
   10.1210   34.1616   72.7275 C   0  0  0  0  0  0
   10.8329   34.2162   73.9260 C   0  0  0  0  0  0
   10.9210   35.4032   74.6475 C   0  0  0  0  0  0
   10.3905   36.5935   74.1509 C   0  0  0  0  0  0
    9.0195   39.3945   66.9244 C   0  0  0  0  0  0
    8.6885   38.2160   67.6083 C   0  0  0  0  0  0
    8.1321   38.1998   68.8879 C   0  0  0  0  0  0
    7.7213   39.4093   69.4289 C   0  0  0  0  0  0
    8.9511   42.0252   67.2292 C   0  0  0  0  0  0
    8.7386   40.6280   67.5277 C   0  0  0  0  0  0
    8.0428   40.5932   68.7529 C   0  0  0  0  0  0
    7.7285   41.8456   69.1603 O   0  0  0  0  0  0
    8.2781   42.6836   68.2457 C   0  0  0  0  0  0
    9.6769   42.6823   66.0654 C   0  0  0  0  0  0
   11.1479   42.7264   66.1487 N   0  0  1  0  0  0
   11.7472   41.3867   66.2534 C   0  0  0  0  0  0
   13.2750   41.3492   66.0365 C   0  0  0  0  0  0
   13.7222   42.0978   64.7700 C   0  0  0  0  0  0
   13.2176   43.5482   64.8965 C   0  0  0  0  0  0
   11.6747   43.5459   65.0356 C   0  0  0  0  0  0
   15.2652   42.0236   64.7400 C   0  0  0  0  0  0
   15.7210   41.0168   63.9399 O   0  0  0  0  0  0
   15.9882   42.6321   65.5280 O   0  0  0  0  0  0
   10.0145   33.2281   72.1958 H   0  0  0  0  0  0
   11.2900   33.3182   74.3211 H   0  0  0  0  0  0
   11.4458   35.4052   75.5934 H   0  0  0  0  0  0
   10.5218   37.5090   74.6978 H   0  0  0  0  0  0
    9.5033   39.3411   65.9604 H   0  0  0  0  0  0
    8.9210   37.2708   67.1494 H   0  0  0  0  0  0
    7.1720   39.4159   70.3401 H   0  0  0  0  0  0
    8.1073   43.7345   68.4365 H   0  0  0  0  0  0
    9.3461   43.7215   66.0064 H   0  0  0  0  0  0
    9.3670   42.2160   65.1400 H   0  0  0  0  0  0
   11.2846   40.7170   65.5385 H   0  0  0  0  0  0
   11.4871   40.9718   67.2258 H   0  0  0  0  0  0
   13.5395   40.2926   65.9715 H   0  0  0  0  0  0
   13.7056   41.8162   66.9239 H   0  0  0  0  0  0
   13.3489   41.6309   63.8571 H   0  0  0  0  0  0
   13.5958   44.0570   65.7857 H   0  0  0  0  0  0
   13.4465   44.1257   63.9992 H   0  0  0  0  0  0
   11.2509   43.1721   64.1029 H   0  0  0  0  0  0
   11.3096   44.5679   65.1403 H   0  0  0  0  0  0
   15.2185   40.9853   63.0998 H   0  0  0  0  0  0
  1  3  1  0  0  0
  1 13  1  0  0  0
  2  3  1  0  0  0
  2  6  1  0  0  0
  3  4  2  0  0  0
  4  5  1  0  0  0
  5  6  1  0  0  0
  5  7  2  0  0  0
  6 10  2  0  0  0
  7  8  1  0  0  0
  7 30  1  0  0  0
  8  9  2  0  0  0
  8 31  1  0  0  0
  9 10  1  0  0  0
  9 32  1  0  0  0
 10 33  1  0  0  0
 11 16  2  0  0  0
 11 12  1  0  0  0
 11 34  1  0  0  0
 12 13  2  0  0  0
 12 35  1  0  0  0
 13 14  1  0  0  0
 14 17  2  0  0  0
 14 36  1  0  0  0
 15 16  1  0  0  0
 15 19  2  0  0  0
 15 20  1  0  0  0
 16 17  1  0  0  0
 17 18  1  0  0  0
 18 19  1  0  0  0
 19 37  1  0  0  0
 20 21  1  0  0  0
 20 38  1  0  0  0
 20 39  1  0  0  0
 21 22  1  0  0  0
 21 26  1  0  0  0
 22 23  1  0  0  0
 22 40  1  0  0  0
 22 41  1  0  0  0
 23 24  1  0  0  0
 23 42  1  0  0  0
 23 43  1  0  0  0
 24 25  1  0  0  0
 24 27  1  0  0  0
 24 44  1  0  0  0
 25 26  1  0  0  0
 25 45  1  0  0  0
 25 46  1  0  0  0
 26 47  1  0  0  0
 26 48  1  0  0  0
 27 28  1  0  0  0
 27 29  2  0  0  0
 28 49  1  0  0  0
M  END
> <s_m_entry_id>
6577

> <s_m_entry_name>
dock_pv.7

> <s_m_Source_Path>
/home/csk/Desktop/cluster/DUD-E-result/lkha4

> <s_m_Source_File>
dock_pv.maegz

> <i_m_Source_File_Index>
7

> <chembl_id>
CHEMBL2313566

> <chembl_pref_name>
None

> <i_lp_mmshare_version>
53161

> <i_f3d_flags>
0

> <r_lp_tautomer_probability>
1

> <s_lp_Force_Field>
OPLS_2005

> <r_lp_Energy>
29.290268

> <b_lp_Chiralities_Consistent>
1

> <s_lp_Variant>
CHEMBL4618_lig448-1

> <s_i_glide_gridfile>
glide-grid_3chp

> <i_i_glide_lignum>
524

> <i_i_glide_rotatable_bonds>
6

> <r_i_docking_score>
-11.959957735527

> <r_i_glide_ligand_efficiency>
-0.412412335707827

> <r_i_glide_ligand_efficiency_sa>
-1.26706135669337

> <r_i_glide_ligand_efficiency_ln>
-2.73852704307508

> <r_i_glide_gscore>
-11.959957735527

> <r_i_glide_lipo>
-6.19327877821667

> <r_i_glide_hbond>
-0.281271937427928

> <r_i_glide_metal>
0

> <r_i_glide_rewards>
-1.52406

> <r_i_glide_evdw>
-51.869068145752

> <r_i_glide_ecoul>
-12.3846559524536

> <r_i_glide_erotb>
0.589804780273261

> <r_i_glide_esite>
-0.1

> <r_i_glide_emodel>
-97.3940944827069

> <r_i_glide_energy>
-64.2537240982056

> <r_i_glide_einternal>
6.82811975479126

> <i_i_glide_confnum>
78

> <i_i_glide_posenum>
119

> <r_i_glide_eff_state_penalty>
0

> <s_user_duplicate_titles>
CHEMBL4618_lig448

> <s_m_subgroup_title>
dock_pv

> <s_m_subgroupid>
dock_pv

> <b_m_subgroup_collapsed>
1

$$$$
CHEMBL4618_lig19
                    3D
 Schrodinger Suite 2021-1.
 50 52  0  0  1  0            999 V2000
   15.9378   41.8210   64.6501 C   0  0  0  0  0  0
   11.4413   42.8202   66.0167 N   0  0  1  0  0  0
   14.6056   41.7013   64.6403 N   0  0  0  0  0  0
   16.6075   42.2160   65.5921 O   0  0  0  0  0  0
   13.7509   42.4611   65.5555 C   0  0  2  0  0  0
   12.4303   41.7527   65.9047 C   0  0  0  0  0  0
   13.2874   43.7456   64.8527 C   0  0  0  0  0  0
   16.5210   41.4160   63.5400 N   0  0  0  0  0  0
   11.7654   43.6872   64.9036 C   0  0  0  0  0  0
    8.1018   37.6876   69.9624 C   0  0  0  0  0  0
    7.7319   36.6632   71.0191 C   0  0  0  0  0  0
    8.6447   39.5935   67.9861 C   0  0  0  0  0  0
    8.2898   39.0170   70.3128 C   0  0  0  0  0  0
    8.1210   37.3244   68.6176 C   0  0  0  0  0  0
    8.4152   38.2675   67.6378 C   0  0  0  0  0  0
    8.5210   39.9727   69.3274 C   0  0  0  0  0  0
    8.8184   36.1781   71.9784 C   0  0  0  0  0  0
   10.0305   42.4264   66.0132 C   0  0  0  0  0  0
    8.9881   40.4562   66.9657 O   0  0  0  0  0  0
    9.5963   41.7020   67.2980 C   0  0  0  0  0  0
    9.2859   37.0163   72.9905 C   0  0  0  0  0  0
    9.2513   34.8497   71.9400 C   0  0  0  0  0  0
   10.1694   36.5339   73.9516 C   0  0  0  0  0  0
   10.1300   34.3607   72.9004 C   0  0  0  0  0  0
   10.5754   35.2033   73.9134 C   0  0  0  0  0  0
   14.1718   41.3663   63.7906 H   0  0  0  0  0  0
   14.2005   42.7255   66.5156 H   0  0  0  0  0  0
   12.1202   41.0483   65.1400 H   0  0  0  0  0  0
   12.4952   41.0911   66.7631 H   0  0  0  0  0  0
   13.6648   44.6159   65.3806 H   0  0  0  0  0  0
   13.6130   43.8255   63.8127 H   0  0  0  0  0  0
   17.4368   41.8215   63.3516 H   0  0  0  0  0  0
   15.9410   41.2994   62.7004 H   0  0  0  0  0  0
   11.3149   44.6492   65.1170 H   0  0  0  0  0  0
   11.3227   43.3618   63.9608 H   0  0  0  0  0  0
    6.9212   37.0749   71.6207 H   0  0  0  0  0  0
    7.3210   35.8160   70.4766 H   0  0  0  0  0  0
    8.2140   39.3293   71.3432 H   0  0  0  0  0  0
    7.9450   36.2975   68.3389 H   0  0  0  0  0  0
    8.4932   37.9696   66.6038 H   0  0  0  0  0  0
    8.6318   41.0040   69.6182 H   0  0  0  0  0  0
    9.4180   43.3243   65.9098 H   0  0  0  0  0  0
    9.8198   41.8160   65.1400 H   0  0  0  0  0  0
   10.4575   41.5230   67.9401 H   0  0  0  0  0  0
    8.8960   42.3347   67.8459 H   0  0  0  0  0  0
    8.9426   38.0368   73.0585 H   0  0  0  0  0  0
    8.8803   34.1769   71.1815 H   0  0  0  0  0  0
   10.5206   37.1823   74.7410 H   0  0  0  0  0  0
   10.4473   33.3280   72.8748 H   0  0  0  0  0  0
   11.2458   34.8229   74.6707 H   0  0  0  0  0  0
  1  3  1  0  0  0
  1  4  2  0  0  0
  1  8  1  0  0  0
  2  6  1  0  0  0
  2 18  1  0  0  0
  2  9  1  0  0  0
  3  5  1  0  0  0
  3 26  1  0  0  0
  5  6  1  0  0  0
  5  7  1  0  0  0
  5 27  1  0  0  0
  6 28  1  0  0  0
  6 29  1  0  0  0
  7  9  1  0  0  0
  7 30  1  0  0  0
  7 31  1  0  0  0
  8 32  1  0  0  0
  8 33  1  0  0  0
  9 34  1  0  0  0
  9 35  1  0  0  0
 10 13  2  0  0  0
 10 11  1  0  0  0
 10 14  1  0  0  0
 11 17  1  0  0  0
 11 36  1  0  0  0
 11 37  1  0  0  0
 12 19  1  0  0  0
 12 15  1  0  0  0
 12 16  2  0  0  0
 13 16  1  0  0  0
 13 38  1  0  0  0
 14 15  2  0  0  0
 14 39  1  0  0  0
 15 40  1  0  0  0
 16 41  1  0  0  0
 17 21  2  0  0  0
 17 22  1  0  0  0
 18 20  1  0  0  0
 18 42  1  0  0  0
 18 43  1  0  0  0
 19 20  1  0  0  0
 20 44  1  0  0  0
 20 45  1  0  0  0
 21 23  1  0  0  0
 21 46  1  0  0  0
 22 24  2  0  0  0
 22 47  1  0  0  0
 23 25  2  0  0  0
 23 48  1  0  0  0
 24 25  1  0  0  0
 24 49  1  0  0  0
 25 50  1  0  0  0
M  END
> <s_m_entry_id>
6578

> <s_m_entry_name>
dock_pv.8

> <s_m_Source_Path>
/home/csk/Desktop/cluster/DUD-E-result/lkha4

> <s_m_Source_File>
dock_pv.maegz

> <i_m_Source_File_Index>
8

> <chembl_id>
CHEMBL114264

> <chembl_pref_name>
None

> <i_lp_mmshare_version>
53161

> <i_f3d_flags>
0

> <r_lp_tautomer_probability>
1

> <s_lp_Force_Field>
OPLS_2005

> <r_lp_Energy>
27.49072

> <b_lp_Chiralities_Consistent>
1

> <s_lp_Variant>
CHEMBL4618_lig19-1

> <s_i_glide_gridfile>
glide-grid_3chp

> <i_i_glide_lignum>
26

> <i_i_glide_rotatable_bonds>
8

> <r_i_docking_score>
-11.8831403545991

> <r_i_glide_ligand_efficiency>
-0.475325614183963

> <r_i_glide_ligand_efficiency_sa>
-1.38986052580957

> <r_i_glide_ligand_efficiency_ln>
-2.81666037302018

> <r_i_glide_gscore>
-11.8831403545991

> <r_i_glide_lipo>
-5.87557328326657

> <r_i_glide_hbond>
-0.525517533729803

> <r_i_glide_metal>
0

> <r_i_glide_rewards>
-1.90337585315814

> <r_i_glide_evdw>
-47.9030456542969

> <r_i_glide_ecoul>
-13.6175889968872

> <r_i_glide_erotb>
1.14979660599623

> <r_i_glide_esite>
-0.290679658192879

> <r_i_glide_emodel>
-97.4687871200247

> <r_i_glide_energy>
-61.5206346511841

> <r_i_glide_einternal>
13.2756223678589

> <i_i_glide_confnum>
30

> <i_i_glide_posenum>
133

> <r_i_glide_eff_state_penalty>
0

> <s_user_duplicate_titles>
CHEMBL4618_lig19,188513

> <s_m_subgroup_title>
dock_pv

> <s_m_subgroupid>
dock_pv

> <b_m_subgroup_collapsed>
1

$$$$
CHEMBL4618_lig29
                    3D
 Schrodinger Suite 2021-1.
 51 53  0  0  1  0            999 V2000
   11.3511   41.7657   66.5608 N   0  0  1  0  0  0
   15.6362   41.8971   64.3941 C   0  0  0  0  0  0
   16.0416   41.0160   65.1400 O   0  0  0  0  0  0
   12.6211   41.3194   65.9889 C   0  0  0  0  0  0
   13.2678   42.5419   65.3356 C   0  0  1  0  0  0
   14.1503   42.1855   64.1054 C   0  0  0  0  0  0
   10.8260   42.6943   65.5706 C   0  0  0  0  0  0
   16.5210   42.6160   63.7487 N   0  0  0  0  0  0
    8.1570   37.6182   71.0316 C   0  0  0  0  0  0
    8.0752   36.9651   72.4077 C   0  0  0  0  0  0
    8.2647   38.9987   68.5841 C   0  0  0  0  0  0
   12.0467   43.4159   64.9843 C   0  0  0  0  0  0
    7.7210   36.9993   69.8579 C   0  0  0  0  0  0
    8.5861   38.9304   70.9754 C   0  0  0  0  0  0
    8.6127   39.6233   69.7784 C   0  0  0  0  0  0
    7.7882   37.6861   68.6400 C   0  0  0  0  0  0
    9.1486   35.9414   72.7593 C   0  0  0  0  0  0
   10.5046   40.6160   66.9100 C   0  0  0  0  0  0
    8.3527   39.6149   67.3482 O   0  0  0  0  0  0
    9.0120   40.8834   67.1893 C   0  0  0  0  0  0
    9.8907   36.0845   73.9376 C   0  0  0  0  0  0
    9.3208   34.8067   71.9668 C   0  0  0  0  0  0
   10.7726   35.0813   74.3327 C   0  0  0  0  0  0
   10.2137   33.8116   72.3483 C   0  0  0  0  0  0
   10.9210   33.9458   73.5400 C   0  0  0  0  0  0
   12.4677   40.5110   65.2703 H   0  0  0  0  0  0
   13.2689   40.8705   66.7400 H   0  0  0  0  0  0
   13.8683   43.0719   66.0785 H   0  0  0  0  0  0
   14.1112   43.0153   63.3966 H   0  0  0  0  0  0
   13.7348   41.3410   63.5543 H   0  0  0  0  0  0
   10.1548   43.3932   66.0724 H   0  0  0  0  0  0
   10.2253   42.2160   64.7996 H   0  0  0  0  0  0
   17.5229   42.4801   63.7926 H   0  0  0  0  0  0
   16.1987   43.3603   63.1400 H   0  0  0  0  0  0
    8.1210   37.7556   73.1560 H   0  0  0  0  0  0
    7.0909   36.5346   72.5501 H   0  0  0  0  0  0
   12.1489   44.4046   65.4300 H   0  0  0  0  0  0
   11.9243   43.5568   63.9108 H   0  0  0  0  0  0
    7.3375   35.9907   69.8860 H   0  0  0  0  0  0
    8.8624   39.4166   71.8895 H   0  0  0  0  0  0
    8.9210   40.6496   69.8149 H   0  0  0  0  0  0
    7.4750   37.1995   67.7302 H   0  0  0  0  0  0
   10.5696   39.8396   66.1448 H   0  0  0  0  0  0
   10.9210   40.2076   67.8273 H   0  0  0  0  0  0
    8.8631   41.5861   68.0066 H   0  0  0  0  0  0
    8.5471   41.3749   66.3400 H   0  0  0  0  0  0
    9.7573   36.9509   74.5699 H   0  0  0  0  0  0
    8.7099   34.6636   71.0938 H   0  0  0  0  0  0
   11.3213   35.1729   75.2592 H   0  0  0  0  0  0
   10.3254   32.9195   71.7493 H   0  0  0  0  0  0
   11.5905   33.1576   73.8549 H   0  0  0  0  0  0
  1  4  1  0  0  0
  1  7  1  0  0  0
  1 18  1  0  0  0
  2  6  1  0  0  0
  2  3  2  0  0  0
  2  8  1  0  0  0
  4  5  1  0  0  0
  4 26  1  0  0  0
  4 27  1  0  0  0
  5  6  1  0  0  0
  5 12  1  0  0  0
  5 28  1  0  0  0
  6 29  1  0  0  0
  6 30  1  0  0  0
  7 12  1  0  0  0
  7 31  1  0  0  0
  7 32  1  0  0  0
  8 33  1  0  0  0
  8 34  1  0  0  0
  9 13  2  0  0  0
  9 10  1  0  0  0
  9 14  1  0  0  0
 10 17  1  0  0  0
 10 35  1  0  0  0
 10 36  1  0  0  0
 11 19  1  0  0  0
 11 15  1  0  0  0
 11 16  2  0  0  0
 12 37  1  0  0  0
 12 38  1  0  0  0
 13 16  1  0  0  0
 13 39  1  0  0  0
 14 15  2  0  0  0
 14 40  1  0  0  0
 15 41  1  0  0  0
 16 42  1  0  0  0
 17 21  2  0  0  0
 17 22  1  0  0  0
 18 20  1  0  0  0
 18 43  1  0  0  0
 18 44  1  0  0  0
 19 20  1  0  0  0
 20 45  1  0  0  0
 20 46  1  0  0  0
 21 23  1  0  0  0
 21 47  1  0  0  0
 22 24  2  0  0  0
 22 48  1  0  0  0
 23 25  2  0  0  0
 23 49  1  0  0  0
 24 25  1  0  0  0
 24 50  1  0  0  0
 25 51  1  0  0  0
M  END
> <s_m_entry_id>
6579

> <s_m_entry_name>
dock_pv.9

> <s_m_Source_Path>
/home/csk/Desktop/cluster/DUD-E-result/lkha4

> <s_m_Source_File>
dock_pv.maegz

> <i_m_Source_File_Index>
9

> <chembl_id>
CHEMBL115295

> <chembl_pref_name>
None

> <i_lp_mmshare_version>
53161

> <i_f3d_flags>
0

> <r_lp_tautomer_probability>
1

> <s_lp_Force_Field>
OPLS_2005

> <r_lp_Energy>
32.959925

> <b_lp_Chiralities_Consistent>
1

> <s_lp_Variant>
CHEMBL4618_lig29-2

> <s_i_glide_gridfile>
glide-grid_3chp

> <i_i_glide_lignum>
41

> <i_i_glide_rotatable_bonds>
8

> <r_i_docking_score>
-11.8485641642634

> <r_i_glide_ligand_efficiency>
-0.473942566570537

> <r_i_glide_ligand_efficiency_sa>
-1.38581647005946

> <r_i_glide_ligand_efficiency_ln>
-2.80846477974582

> <r_i_glide_gscore>
-11.8485641642634

> <r_i_glide_lipo>
-5.91032448590861

> <r_i_glide_hbond>
-0.564304706796821

> <r_i_glide_metal>
0

> <r_i_glide_rewards>
-1.99990501810739

> <r_i_glide_evdw>
-38.3778648376465

> <r_i_glide_ecoul>
-16.0725917816162

> <r_i_glide_erotb>
1.15575205567416

> <r_i_glide_esite>
-0.2

> <r_i_glide_emodel>
-87.8010688143294

> <r_i_glide_energy>
-54.4504566192627

> <r_i_glide_einternal>
8.5689582824707

> <i_i_glide_confnum>
69

> <i_i_glide_posenum>
147

> <r_i_glide_eff_state_penalty>
0

> <s_user_duplicate_titles>
CHEMBL4618_lig29,188103

> <s_m_subgroup_title>
dock_pv

> <s_m_subgroupid>
dock_pv

> <b_m_subgroup_collapsed>
1

$$$$
CHEMBL4618_lig271
                    3D
 Schrodinger Suite 2021-1.
 53 56  0  0  1  0            999 V2000
   10.4156   35.7577   73.7608 C   0  0  0  0  0  0
    9.9934   34.6171   73.0854 C   0  0  0  0  0  0
    9.2007   34.7119   71.9400 C   0  0  0  0  0  0
   10.1210   37.0323   73.2773 C   0  0  0  0  0  0
    9.3660   37.1387   72.0997 C   0  0  0  0  0  0
    8.8667   35.9830   71.4533 C   0  0  0  0  0  0
    8.1210   36.2160   70.3411 N   0  0  0  0  0  0
    8.1187   37.4692   70.0187 C   0  0  0  0  0  0
    8.9210   38.5473   71.1401 S   0  0  0  0  0  0
    7.5597   37.9406   68.8558 O   0  0  0  0  0  0
    7.9951   39.1243   68.3155 C   0  0  0  0  0  0
    8.9209   39.0745   67.2839 C   0  0  0  0  0  0
    9.4126   40.2527   66.7400 C   0  0  0  0  0  0
    8.9344   41.4870   67.1850 C   0  0  0  0  0  0
    7.9752   41.5404   68.1940 C   0  0  0  0  0  0
    7.5153   40.3563   68.7538 C   0  0  0  0  0  0
    9.5217   42.7721   66.6283 C   0  0  0  0  0  0
   11.0222   42.8485   66.9502 C   0  0  0  0  0  0
   11.8442   42.4511   65.8111 N   0  0  2  0  0  0
   12.9488   41.6115   66.2544 C   0  0  0  0  0  0
   13.7953   41.1206   65.0790 C   0  0  0  0  0  0
   14.3389   42.2395   64.1750 C   0  0  0  0  0  0
   13.1527   43.1510   63.8349 C   0  0  0  0  0  0
   12.3278   43.6085   65.0540 C   0  0  0  0  0  0
   15.4092   43.0228   64.7682 N   0  0  0  0  0  0
   16.6167   42.6020   65.1395 C   0  0  0  0  0  0
   17.6282   43.6617   65.5527 C   0  0  0  0  0  0
   16.9210   41.4160   65.1400 O   0  0  0  0  0  0
   11.0009   35.6495   74.6630 H   0  0  0  0  0  0
   10.2519   33.6432   73.4779 H   0  0  0  0  0  0
    8.8412   33.8217   71.4466 H   0  0  0  0  0  0
   10.5035   37.9054   73.7846 H   0  0  0  0  0  0
    9.2708   38.1200   66.9249 H   0  0  0  0  0  0
   10.1611   40.2034   65.9618 H   0  0  0  0  0  0
    7.5948   42.4864   68.5557 H   0  0  0  0  0  0
    6.7855   40.3855   69.5399 H   0  0  0  0  0  0
    9.0125   43.6225   67.0831 H   0  0  0  0  0  0
    9.3203   42.8429   65.5579 H   0  0  0  0  0  0
   11.2107   42.2001   67.8058 H   0  0  0  0  0  0
   11.3169   43.8160   67.3094 H   0  0  0  0  0  0
   12.5096   40.7463   66.7401 H   0  0  0  0  0  0
   13.5547   42.1447   66.9901 H   0  0  0  0  0  0
   13.2750   40.3484   64.5117 H   0  0  0  0  0  0
   14.6372   40.6160   65.5242 H   0  0  0  0  0  0
   14.7543   41.8161   63.2651 H   0  0  0  0  0  0
   13.4949   44.0252   63.2803 H   0  0  0  0  0  0
   12.5210   42.6160   63.1414 H   0  0  0  0  0  0
   11.4808   44.2156   64.7348 H   0  0  0  0  0  0
   12.9346   44.2281   65.7141 H   0  0  0  0  0  0
   15.3569   44.0040   64.5217 H   0  0  0  0  0  0
   17.1541   44.6335   65.6868 H   0  0  0  0  0  0
   18.3928   43.7575   64.7805 H   0  0  0  0  0  0
   18.1123   43.3805   66.4880 H   0  0  0  0  0  0
  1  2  2  0  0  0
  1  4  1  0  0  0
  1 29  1  0  0  0
  2  3  1  0  0  0
  2 30  1  0  0  0
  3  6  2  0  0  0
  3 31  1  0  0  0
  4  5  2  0  0  0
  4 32  1  0  0  0
  5  9  1  0  0  0
  5  6  1  0  0  0
  6  7  1  0  0  0
  7  8  2  0  0  0
  8  9  1  0  0  0
  8 10  1  0  0  0
 10 11  1  0  0  0
 11 16  1  0  0  0
 11 12  2  0  0  0
 12 13  1  0  0  0
 12 33  1  0  0  0
 13 14  2  0  0  0
 13 34  1  0  0  0
 14 15  1  0  0  0
 14 17  1  0  0  0
 15 16  2  0  0  0
 15 35  1  0  0  0
 16 36  1  0  0  0
 17 18  1  0  0  0
 17 37  1  0  0  0
 17 38  1  0  0  0
 18 19  1  0  0  0
 18 39  1  0  0  0
 18 40  1  0  0  0
 19 20  1  0  0  0
 19 24  1  0  0  0
 20 21  1  0  0  0
 20 41  1  0  0  0
 20 42  1  0  0  0
 21 22  1  0  0  0
 21 43  1  0  0  0
 21 44  1  0  0  0
 22 23  1  0  0  0
 22 25  1  0  0  0
 22 45  1  0  0  0
 23 24  1  0  0  0
 23 46  1  0  0  0
 23 47  1  0  0  0
 24 48  1  0  0  0
 24 49  1  0  0  0
 25 26  1  0  0  0
 25 50  1  0  0  0
 26 27  1  0  0  0
 26 28  2  0  0  0
 27 51  1  0  0  0
 27 52  1  0  0  0
 27 53  1  0  0  0
M  END
> <s_m_entry_id>
6580

> <s_m_entry_name>
dock_pv.10

> <s_m_Source_Path>
/home/csk/Desktop/cluster/DUD-E-result/lkha4

> <s_m_Source_File>
dock_pv.maegz

> <i_m_Source_File_Index>
10

> <chembl_id>
CHEMBL520942

> <chembl_pref_name>
None

> <i_lp_mmshare_version>
53161

> <i_f3d_flags>
0

> <r_lp_tautomer_probability>
1

> <s_lp_Force_Field>
OPLS_2005

> <r_lp_Energy>
24.242653

> <b_lp_Chiralities_Consistent>
1

> <s_lp_Variant>
CHEMBL4618_lig271-1

> <s_i_glide_gridfile>
glide-grid_3chp

> <i_i_glide_lignum>
309

> <i_i_glide_rotatable_bonds>
7

> <r_i_docking_score>
-11.8333311027839

> <r_i_glide_ligand_efficiency>
-0.422618967956567

> <r_i_glide_ligand_efficiency_sa>
-1.28332009597696

> <r_i_glide_ligand_efficiency_ln>
-2.73148026022098

> <r_i_glide_gscore>
-11.8333311027839

> <r_i_glide_lipo>
-5.59592675684767

> <r_i_glide_hbond>
-0.544551358436576

> <r_i_glide_metal>
0

> <r_i_glide_rewards>
-2.03536021648194

> <r_i_glide_evdw>
-45.4664840698242

> <r_i_glide_ecoul>
-12.8947887420654

> <r_i_glide_erotb>
0.750049743783325

> <r_i_glide_esite>
-0.2

> <r_i_glide_emodel>
-95.7848452654597

> <r_i_glide_energy>
-58.3612728118896

> <r_i_glide_einternal>
9.17892074584961

> <i_i_glide_confnum>
63

> <i_i_glide_posenum>
342

> <r_i_glide_eff_state_penalty>
0

> <s_user_duplicate_titles>
CHEMBL4618_lig271,466925

> <s_m_subgroup_title>
dock_pv

> <s_m_subgroupid>
dock_pv

> <b_m_subgroup_collapsed>
1

$$$$
CHEMBL4618_lig419
                    3D
 Schrodinger Suite 2021-1.
 51 54  0  0  1  0            999 V2000
    8.7320   40.0640   67.4566 C   0  0  0  0  0  0
    8.1527   41.2854   67.8225 C   0  0  0  0  0  0
    8.7369   42.4979   67.4760 C   0  0  0  0  0  0
    9.9210   40.0519   66.7400 C   0  0  0  0  0  0
   10.6352   41.2282   66.4952 C   0  0  0  0  0  0
    9.9693   42.4335   66.8226 C   0  0  0  0  0  0
   10.7664   43.4161   66.3400 N   0  0  0  0  0  0
   11.9518   42.9377   65.8856 C   0  0  0  0  0  0
   11.9434   41.5656   65.9400 C   0  0  0  0  0  0
   13.0603   40.6415   65.4629 C   0  0  0  0  0  0
   13.9357   41.1696   64.2812 C   0  0  0  0  0  0
   14.7256   42.3814   64.5301 N   0  0  0  0  0  0
    8.1909   38.8239   67.7054 O   0  0  0  0  0  0
    7.3532   38.6309   68.8350 C   0  0  0  0  0  0
    8.0994   37.8856   69.9257 C   0  0  0  0  0  0
    8.9549   38.5481   70.8027 C   0  0  0  0  0  0
    9.5927   37.8160   71.8048 C   0  0  0  0  0  0
    9.3443   36.4636   71.9938 C   0  0  0  0  0  0
    8.5161   35.8160   71.0987 C   0  0  0  0  0  0
    7.9187   36.5160   70.0599 C   0  0  0  0  0  0
   10.0213   35.7400   73.0929 C   0  0  0  0  0  0
   10.4996   34.4362   72.9207 C   0  0  0  0  0  0
   11.2124   33.8188   73.9401 C   0  0  0  0  0  0
   11.4118   34.4942   75.1400 C   0  0  0  0  0  0
   10.9210   35.7780   75.3320 C   0  0  0  0  0  0
   10.2352   36.3974   74.3057 C   0  0  0  0  0  0
   16.0024   42.4065   64.9293 C   0  0  0  0  0  0
   16.6939   41.4160   65.1400 O   0  0  0  0  0  0
   16.4264   43.6781   65.1400 O   0  0  0  0  0  0
    7.2015   41.3320   68.3292 H   0  0  0  0  0  0
    8.2535   43.4364   67.7112 H   0  0  0  0  0  0
   10.2808   39.1068   66.3873 H   0  0  0  0  0  0
   10.5776   44.4074   66.3982 H   0  0  0  0  0  0
   12.6977   43.6387   65.5447 H   0  0  0  0  0  0
   12.6108   39.7031   65.1363 H   0  0  0  0  0  0
   13.7207   40.3715   66.2883 H   0  0  0  0  0  0
   13.3210   41.4177   63.4220 H   0  0  0  0  0  0
   14.5696   40.3648   63.9094 H   0  0  0  0  0  0
   14.2686   43.2579   64.3342 H   0  0  0  0  0  0
    6.9210   39.5284   69.2690 H   0  0  0  0  0  0
    6.5211   38.0210   68.4834 H   0  0  0  0  0  0
    9.1359   39.6072   70.6966 H   0  0  0  0  0  0
   10.3281   38.2469   72.4527 H   0  0  0  0  0  0
    8.3356   34.7566   71.1940 H   0  0  0  0  0  0
    7.3210   35.9680   69.3609 H   0  0  0  0  0  0
   10.3567   33.9113   71.9877 H   0  0  0  0  0  0
   11.5994   32.8217   73.8090 H   0  0  0  0  0  0
   11.9560   34.0170   75.9395 H   0  0  0  0  0  0
   11.0853   36.3021   76.2612 H   0  0  0  0  0  0
    9.8884   37.4100   74.4426 H   0  0  0  0  0  0
   16.0519   44.2631   64.4671 H   0  0  0  0  0  0
  1  2  2  0  0  0
  1  4  1  0  0  0
  1 13  1  0  0  0
  2  3  1  0  0  0
  2 30  1  0  0  0
  3  6  2  0  0  0
  3 31  1  0  0  0
  4  5  2  0  0  0
  4 32  1  0  0  0
  5  6  1  0  0  0
  5  9  1  0  0  0
  6  7  1  0  0  0
  7  8  1  0  0  0
  7 33  1  0  0  0
  8  9  2  0  0  0
  8 34  1  0  0  0
  9 10  1  0  0  0
 10 11  1  0  0  0
 10 35  1  0  0  0
 10 36  1  0  0  0
 11 12  1  0  0  0
 11 37  1  0  0  0
 11 38  1  0  0  0
 12 27  1  0  0  0
 12 39  1  0  0  0
 13 14  1  0  0  0
 14 15  1  0  0  0
 14 40  1  0  0  0
 14 41  1  0  0  0
 15 16  2  0  0  0
 15 20  1  0  0  0
 16 17  1  0  0  0
 16 42  1  0  0  0
 17 18  2  0  0  0
 17 43  1  0  0  0
 18 19  1  0  0  0
 18 21  1  0  0  0
 19 20  2  0  0  0
 19 44  1  0  0  0
 20 45  1  0  0  0
 21 22  2  0  0  0
 21 26  1  0  0  0
 22 23  1  0  0  0
 22 46  1  0  0  0
 23 24  2  0  0  0
 23 47  1  0  0  0
 24 25  1  0  0  0
 24 48  1  0  0  0
 25 26  2  0  0  0
 25 49  1  0  0  0
 26 50  1  0  0  0
 27 28  2  0  0  0
 27 29  1  0  0  0
 29 51  1  0  0  0
M  END
> <s_m_entry_id>
6581

> <s_m_entry_name>
dock_pv.11

> <s_m_Source_Path>
/home/csk/Desktop/cluster/DUD-E-result/lkha4

> <s_m_Source_File>
dock_pv.maegz

> <i_m_Source_File_Index>
11

> <chembl_id>
CHEMBL2316065

> <chembl_pref_name>
None

> <i_lp_mmshare_version>
53161

> <i_f3d_flags>
0

> <r_lp_tautomer_probability>
1

> <s_lp_Force_Field>
OPLS_2005

> <r_lp_Energy>
21.791157

> <b_lp_Chiralities_Consistent>
1

> <s_lp_Variant>
CHEMBL4618_lig419-1

> <s_i_glide_gridfile>
glide-grid_3chp

> <i_i_glide_lignum>
486

> <i_i_glide_rotatable_bonds>
9

> <r_i_docking_score>
-11.7747315581357

> <r_i_glide_ligand_efficiency>
-0.406025226142611

> <r_i_glide_ligand_efficiency_sa>
-1.24743813253068

> <r_i_glide_ligand_efficiency_ln>
-2.69611494538308

> <r_i_glide_gscore>
-11.7747315581357

> <r_i_glide_lipo>
-5.73875891289767

> <r_i_glide_hbond>
-0.304

> <r_i_glide_metal>
0

> <r_i_glide_rewards>
-1.57720025010517

> <r_i_glide_evdw>
-43.606315612793

> <r_i_glide_ecoul>
-18.7956104278564

> <r_i_glide_erotb>
1.04264990237076

> <r_i_glide_esite>
-0.19776495268554

> <r_i_glide_emodel>
-96.3777352526957

> <r_i_glide_energy>
-62.4019260406494

> <r_i_glide_einternal>
9.84298515319824

> <i_i_glide_confnum>
68

> <i_i_glide_posenum>
189

> <r_i_glide_eff_state_penalty>
0

> <s_user_duplicate_titles>
CHEMBL4618_lig419

> <s_m_subgroup_title>
dock_pv

> <s_m_subgroupid>
dock_pv

> <b_m_subgroup_collapsed>
1

$$$$
CHEMBL4618_lig423
                    3D
 Schrodinger Suite 2021-1.
 52 55  0  0  1  0            999 V2000
    9.4439   41.3212   67.3055 C   0  0  0  0  0  0
    8.7646   42.5071   67.0655 C   0  0  0  0  0  0
    9.3150   43.5337   66.3060 C   0  0  0  0  0  0
   10.7131   41.1258   66.7400 C   0  0  0  0  0  0
   11.3269   42.1432   66.0061 C   0  0  0  0  0  0
   10.6113   43.3503   65.8213 C   0  0  0  0  0  0
   11.4572   44.1883   65.1400 N   0  0  0  0  0  0
   12.6229   43.5599   64.8448 C   0  0  0  0  0  0
   12.5788   42.2599   65.3012 C   0  0  0  0  0  0
   13.5930   41.1654   65.0514 C   0  0  0  0  0  0
   14.5881   41.5347   63.9400 C   0  0  0  0  0  0
   15.5320   42.6160   64.2337 N   0  0  0  0  0  0
    8.8030   40.4111   68.1181 O   0  0  0  0  0  0
    9.4900   39.2235   68.4878 C   0  0  0  0  0  0
    8.8593   38.6160   69.7144 C   0  0  0  0  0  0
    7.5295   38.2445   69.6388 C   0  0  0  0  0  0
    6.9210   37.6744   70.7400 C   0  0  0  0  0  0
    7.6329   37.4154   71.9049 C   0  0  0  0  0  0
    8.9822   37.7293   71.9745 C   0  0  0  0  0  0
    9.5842   38.3702   70.8911 C   0  0  0  0  0  0
    9.7015   37.4160   73.1032 O   0  0  0  0  0  0
   10.1139   36.1242   73.3643 C   0  0  0  0  0  0
   10.7521   35.9060   74.5862 C   0  0  0  0  0  0
   11.3204   34.6669   74.8730 C   0  0  0  0  0  0
   11.2232   33.6408   73.9400 C   0  0  0  0  0  0
   10.5210   33.8161   72.7504 C   0  0  0  0  0  0
    9.9697   35.0601   72.4597 C   0  0  0  0  0  0
   16.6078   42.4722   65.0034 C   0  0  0  0  0  0
   17.2819   43.6433   65.1400 O   0  0  0  0  0  0
   16.9210   41.4160   65.5400 O   0  0  0  0  0  0
    7.7821   42.6464   67.4963 H   0  0  0  0  0  0
    8.7675   44.4538   66.1593 H   0  0  0  0  0  0
   11.2528   40.2160   66.8644 H   0  0  0  0  0  0
   11.3194   45.1675   64.9286 H   0  0  0  0  0  0
   13.3785   44.0967   64.2893 H   0  0  0  0  0  0
   13.0642   40.2630   64.7399 H   0  0  0  0  0  0
   14.1210   40.8611   65.9400 H   0  0  0  0  0  0
   13.9657   41.9113   63.1400 H   0  0  0  0  0  0
   15.0909   40.6529   63.5402 H   0  0  0  0  0  0
   15.3678   43.5089   63.7796 H   0  0  0  0  0  0
    9.4634   38.5062   67.6665 H   0  0  0  0  0  0
   10.5210   39.4160   68.7399 H   0  0  0  0  0  0
    6.9618   38.4160   68.7350 H   0  0  0  0  0  0
    5.8832   37.4160   70.6664 H   0  0  0  0  0  0
    7.1441   36.9408   72.7402 H   0  0  0  0  0  0
   10.6280   38.6304   70.9589 H   0  0  0  0  0  0
   10.8381   36.7146   75.2976 H   0  0  0  0  0  0
   11.8198   34.5013   75.8166 H   0  0  0  0  0  0
   11.6524   32.6799   74.1792 H   0  0  0  0  0  0
   10.4201   32.9957   72.0548 H   0  0  0  0  0  0
    9.4511   35.1966   71.5236 H   0  0  0  0  0  0
   17.1132   44.2107   64.3824 H   0  0  0  0  0  0
  1  2  2  0  0  0
  1  4  1  0  0  0
  1 13  1  0  0  0
  2  3  1  0  0  0
  2 31  1  0  0  0
  3  6  2  0  0  0
  3 32  1  0  0  0
  4  5  2  0  0  0
  4 33  1  0  0  0
  5  6  1  0  0  0
  5  9  1  0  0  0
  6  7  1  0  0  0
  7  8  1  0  0  0
  7 34  1  0  0  0
  8  9  2  0  0  0
  8 35  1  0  0  0
  9 10  1  0  0  0
 10 11  1  0  0  0
 10 36  1  0  0  0
 10 37  1  0  0  0
 11 12  1  0  0  0
 11 38  1  0  0  0
 11 39  1  0  0  0
 12 28  1  0  0  0
 12 40  1  0  0  0
 13 14  1  0  0  0
 14 15  1  0  0  0
 14 41  1  0  0  0
 14 42  1  0  0  0
 15 16  2  0  0  0
 15 20  1  0  0  0
 16 17  1  0  0  0
 16 43  1  0  0  0
 17 18  2  0  0  0
 17 44  1  0  0  0
 18 19  1  0  0  0
 18 45  1  0  0  0
 19 20  2  0  0  0
 19 21  1  0  0  0
 20 46  1  0  0  0
 21 22  1  0  0  0
 22 23  2  0  0  0
 22 27  1  0  0  0
 23 24  1  0  0  0
 23 47  1  0  0  0
 24 25  2  0  0  0
 24 48  1  0  0  0
 25 26  1  0  0  0
 25 49  1  0  0  0
 26 27  2  0  0  0
 26 50  1  0  0  0
 27 51  1  0  0  0
 28 29  1  0  0  0
 28 30  2  0  0  0
 29 52  1  0  0  0
M  END
> <s_m_entry_id>
6582

> <s_m_entry_name>
dock_pv.12

> <s_m_Source_Path>
/home/csk/Desktop/cluster/DUD-E-result/lkha4

> <s_m_Source_File>
dock_pv.maegz

> <i_m_Source_File_Index>
12

> <chembl_id>
CHEMBL2316066

> <chembl_pref_name>
None

> <i_lp_mmshare_version>
53161

> <i_f3d_flags>
0

> <r_lp_tautomer_probability>
1

> <s_lp_Force_Field>
OPLS_2005

> <r_lp_Energy>
21.584022

> <b_lp_Chiralities_Consistent>
1

> <s_lp_Variant>
CHEMBL4618_lig423-1

> <s_i_glide_gridfile>
glide-grid_3chp

> <i_i_glide_lignum>
490

> <i_i_glide_rotatable_bonds>
10

> <r_i_docking_score>
-11.7268681715475

> <r_i_glide_ligand_efficiency>
-0.390895605718251

> <r_i_glide_ligand_efficiency_sa>
-1.21460353114524

> <r_i_glide_ligand_efficiency_ln>
-2.66447222303826

> <r_i_glide_gscore>
-11.7268681715475

> <r_i_glide_lipo>
-6.03753350874009

> <r_i_glide_hbond>
-0.580227815422509

> <r_i_glide_metal>
0

> <r_i_glide_rewards>
-1.56508167129858

> <r_i_glide_evdw>
-37.6265678405762

> <r_i_glide_ecoul>
-17.0211906433105

> <r_i_glide_erotb>
1.09048181243903

> <r_i_glide_esite>
-0.2

> <r_i_glide_emodel>
-89.9848934851849

> <r_i_glide_energy>
-54.6477584838867

> <r_i_glide_einternal>
10.070276260376

> <i_i_glide_confnum>
48

> <i_i_glide_posenum>
386

> <r_i_glide_eff_state_penalty>
0

> <s_user_duplicate_titles>
CHEMBL4618_lig423

> <s_m_subgroup_title>
dock_pv

> <s_m_subgroupid>
dock_pv

> <b_m_subgroup_collapsed>
1

$$$$
CHEMBL4618_lig20
                    3D
 Schrodinger Suite 2021-1.
 50 52  0  0  1  0            999 V2000
   15.4797   41.8613   64.5499 C   0  0  0  0  0  0
   14.1481   42.0654   64.7523 N   0  0  0  0  0  0
   11.4303   42.6164   65.4855 N   0  0  0  0  0  0
   16.1402   41.0167   65.1387 O   0  0  0  0  0  0
   13.3690   43.0200   63.9453 C   0  0  0  0  0  0
   13.3626   41.0663   65.5118 C   0  0  0  0  0  0
   16.1197   42.6158   63.6675 N   0  0  0  0  0  0
   12.2762   41.7898   66.3450 C   0  0  0  0  0  0
   12.2283   43.6267   64.7918 C   0  0  0  0  0  0
    8.1228   38.1099   69.5477 C   0  0  0  0  0  0
    7.6791   37.0368   70.5494 C   0  0  0  0  0  0
    8.7568   40.1380   67.6898 C   0  0  0  0  0  0
    8.2856   37.8134   68.1988 C   0  0  0  0  0  0
    8.2506   39.4306   69.9440 C   0  0  0  0  0  0
    8.5204   40.4437   69.0330 C   0  0  0  0  0  0
    8.6062   38.8137   67.2748 C   0  0  0  0  0  0
    8.6745   36.5652   71.6177 C   0  0  0  0  0  0
    9.1415   41.0740   66.7455 O   0  0  0  0  0  0
   10.2080   43.2026   66.0611 C   0  0  0  0  0  0
    9.4923   42.3961   67.1712 C   0  0  0  0  0  0
    8.9368   35.2019   71.7784 C   0  0  0  0  0  0
    9.2709   37.4661   72.5014 C   0  0  0  0  0  0
    9.7837   34.7466   72.7813 C   0  0  0  0  0  0
   10.1211   37.0157   73.5096 C   0  0  0  0  0  0
   10.3667   35.6552   73.6544 C   0  0  0  0  0  0
   13.9623   43.8278   63.5288 H   0  0  0  0  0  0
   12.9188   42.4529   63.1383 H   0  0  0  0  0  0
   12.8556   40.4011   64.8116 H   0  0  0  0  0  0
   13.9668   40.4446   66.1669 H   0  0  0  0  0  0
   17.0990   42.4888   63.4375 H   0  0  0  0  0  0
   15.6485   43.3804   63.2000 H   0  0  0  0  0  0
   11.6819   41.0384   66.8642 H   0  0  0  0  0  0
   12.7376   42.4345   67.0961 H   0  0  0  0  0  0
   11.5867   44.2163   64.1478 H   0  0  0  0  0  0
   12.6559   44.2866   65.5474 H   0  0  0  0  0  0
    6.7995   37.4165   71.0721 H   0  0  0  0  0  0
    7.3228   36.1719   69.9875 H   0  0  0  0  0  0
    8.1849   36.7858   67.8986 H   0  0  0  0  0  0
    8.1214   39.6976   70.9762 H   0  0  0  0  0  0
    8.5805   41.4568   69.3980 H   0  0  0  0  0  0
    8.7681   38.5581   66.2375 H   0  0  0  0  0  0
   10.4125   44.2097   66.4197 H   0  0  0  0  0  0
    9.5036   43.3427   65.2402 H   0  0  0  0  0  0
   10.1418   42.3712   68.0472 H   0  0  0  0  0  0
    8.5855   42.9258   67.4684 H   0  0  0  0  0  0
    8.4976   34.4641   71.1376 H   0  0  0  0  0  0
    9.0605   38.5198   72.4374 H   0  0  0  0  0  0
    9.9808   33.6903   72.8908 H   0  0  0  0  0  0
   10.5809   37.7174   74.1877 H   0  0  0  0  0  0
   11.0158   35.3038   74.4433 H   0  0  0  0  0  0
  1  2  1  0  0  0
  1  4  2  0  0  0
  1  7  1  0  0  0
  2  5  1  0  0  0
  2  6  1  0  0  0
  3  8  1  0  0  0
  3 19  1  0  0  0
  3  9  1  0  0  0
  5  9  1  0  0  0
  5 26  1  0  0  0
  5 27  1  0  0  0
  6  8  1  0  0  0
  6 28  1  0  0  0
  6 29  1  0  0  0
  7 30  1  0  0  0
  7 31  1  0  0  0
  8 32  1  0  0  0
  8 33  1  0  0  0
  9 34  1  0  0  0
  9 35  1  0  0  0
 10 13  2  0  0  0
 10 11  1  0  0  0
 10 14  1  0  0  0
 11 17  1  0  0  0
 11 36  1  0  0  0
 11 37  1  0  0  0
 12 18  1  0  0  0
 12 15  1  0  0  0
 12 16  2  0  0  0
 13 16  1  0  0  0
 13 38  1  0  0  0
 14 15  2  0  0  0
 14 39  1  0  0  0
 15 40  1  0  0  0
 16 41  1  0  0  0
 17 21  2  0  0  0
 17 22  1  0  0  0
 18 20  1  0  0  0
 19 20  1  0  0  0
 19 42  1  0  0  0
 19 43  1  0  0  0
 20 44  1  0  0  0
 20 45  1  0  0  0
 21 23  1  0  0  0
 21 46  1  0  0  0
 22 24  2  0  0  0
 22 47  1  0  0  0
 23 25  2  0  0  0
 23 48  1  0  0  0
 24 25  1  0  0  0
 24 49  1  0  0  0
 25 50  1  0  0  0
M  END
> <s_m_entry_id>
6583

> <s_m_entry_name>
dock_pv.13

> <s_m_Source_Path>
/home/csk/Desktop/cluster/DUD-E-result/lkha4

> <s_m_Source_File>
dock_pv.maegz

> <i_m_Source_File_Index>
13

> <chembl_id>
CHEMBL114777

> <chembl_pref_name>
None

> <i_lp_mmshare_version>
53161

> <i_f3d_flags>
0

> <r_lp_tautomer_probability>
1

> <s_lp_Force_Field>
OPLS_2005

> <r_lp_Energy>
47.652025

> <b_lp_Chiralities_Consistent>
1

> <s_lp_Variant>
CHEMBL4618_lig20-1

> <s_i_glide_gridfile>
glide-grid_3chp

> <i_i_glide_lignum>
28

> <i_i_glide_rotatable_bonds>
7

> <r_i_docking_score>
-11.554369517117

> <r_i_glide_ligand_efficiency>
-0.462174780684682

> <r_i_glide_ligand_efficiency_sa>
-1.35140725542665

> <r_i_glide_ligand_efficiency_ln>
-2.73873183206998

> <r_i_glide_gscore>
-11.554369517117

> <r_i_glide_lipo>
-5.38083616752087

> <r_i_glide_hbond>
-0.322624317596146

> <r_i_glide_metal>
0

> <r_i_glide_rewards>
-1.99365055622972

> <r_i_glide_evdw>
-35.1295776367188

> <r_i_glide_ecoul>
-19.242130279541

> <r_i_glide_erotb>
0.985539947996771

> <r_i_glide_esite>
-0.2

> <r_i_glide_emodel>
-89.7388329279642

> <r_i_glide_energy>
-54.3717079162598

> <r_i_glide_einternal>
8.66667556762695

> <i_i_glide_confnum>
66

> <i_i_glide_posenum>
317

> <r_i_glide_eff_state_penalty>
0

> <s_user_duplicate_titles>
CHEMBL4618_lig20

> <s_m_subgroup_title>
dock_pv

> <s_m_subgroupid>
dock_pv

> <b_m_subgroup_collapsed>
1

$$$$
CHEMBL4618_lig462
                    3D
 Schrodinger Suite 2021-1.
 57 61  0  0  1  0            999 V2000
   18.0593   43.1820   65.1404 O   0  0  0  0  0  0
   16.7592   43.2709   64.5780 C   0  0  0  0  0  0
   15.9529   41.9783   64.7640 C   0  0  0  0  0  0
   16.5221   41.0166   65.2738 O   0  0  0  0  0  0
   14.6124   41.9599   64.5739 N   0  0  0  0  0  0
   13.7594   41.0084   65.2883 C   0  0  0  0  0  0
   12.8039   41.8657   66.1272 C   0  0  0  0  0  0
   11.9536   42.6431   65.2177 N   0  0  0  0  0  0
   10.8025   43.2662   65.8756 C   0  0  0  0  0  0
    9.9007   42.2942   66.6460 C   0  0  0  0  0  0
    9.0952   42.7674   67.6733 C   0  0  0  0  0  0
    8.4819   41.9918   68.5881 N   0  0  0  0  0  0
    8.5144   40.6557   68.3819 C   0  0  0  0  0  0
    7.9634   39.8197   69.3533 C   0  0  0  0  0  0
    7.7595   38.4798   69.0989 C   0  0  0  0  0  0
    7.1382   37.7129   70.0344 O   0  0  0  0  0  0
    7.9660   37.1409   70.9457 C   0  0  0  0  0  0
    8.5292   37.8638   71.9990 C   0  0  0  0  0  0
    9.3644   37.1840   72.8717 C   0  0  0  0  0  0
    9.5506   35.8130   72.7206 C   0  0  0  0  0  0
    8.9220   35.1677   71.6589 C   0  0  0  0  0  0
    8.1872   35.8241   70.7439 N   0  0  0  0  0  0
   10.4064   35.0835   73.6504 C   0  0  0  0  0  0
   10.8882   35.4248   74.8946 C   0  0  0  0  0  0
   11.6664   34.3403   75.2650 C   0  0  0  0  0  0
   11.7512   33.4181   74.3410 N   0  0  0  0  0  0
   10.9201   33.8405   73.3994 N   0  0  0  0  0  0
    8.2190   37.9187   67.9230 C   0  0  0  0  0  0
    8.9052   38.6916   66.9859 C   0  0  0  0  0  0
    9.0885   40.0737   67.2200 C   0  0  0  0  0  0
    9.8536   40.9222   66.3908 C   0  0  0  0  0  0
   12.7689   43.5853   64.4357 C   0  0  0  0  0  0
   13.8684   42.8189   63.6491 C   0  0  0  0  0  0
   18.6756   43.1199   64.3966 H   0  0  0  0  0  0
   16.2378   44.1085   65.0451 H   0  0  0  0  0  0
   16.9088   43.4159   63.5185 H   0  0  0  0  0  0
   13.2128   40.3611   64.6034 H   0  0  0  0  0  0
   14.3124   40.3416   65.9388 H   0  0  0  0  0  0
   13.3597   42.5382   66.7832 H   0  0  0  0  0  0
   12.2478   41.2035   66.7823 H   0  0  0  0  0  0
   11.1885   44.0010   66.5785 H   0  0  0  0  0  0
   10.1948   43.8013   65.1467 H   0  0  0  0  0  0
    8.9323   43.8137   67.8037 H   0  0  0  0  0  0
    7.7205   40.2172   70.3166 H   0  0  0  0  0  0
    8.3234   38.9114   72.1634 H   0  0  0  0  0  0
    9.8504   37.7247   73.6654 H   0  0  0  0  0  0
    9.0083   34.1018   71.5108 H   0  0  0  0  0  0
   10.6794   36.3126   75.4735 H   0  0  0  0  0  0
   12.1202   34.2178   76.2327 H   0  0  0  0  0  0
   10.7629   33.3078   72.5572 H   0  0  0  0  0  0
    8.0914   36.8618   67.7861 H   0  0  0  0  0  0
    9.3210   38.2394   66.0968 H   0  0  0  0  0  0
   10.4172   40.4974   65.5768 H   0  0  0  0  0  0
   13.2338   44.2951   65.1235 H   0  0  0  0  0  0
   12.1454   44.1466   63.7432 H   0  0  0  0  0  0
   14.5217   43.4184   63.0485 H   0  0  0  0  0  0
   13.3708   42.1772   62.9230 H   0  0  0  0  0  0
  1  2  1  0  0  0
  1 34  1  0  0  0
  2  3  1  0  0  0
  2 35  1  0  0  0
  2 36  1  0  0  0
  3  4  2  0  0  0
  3  5  1  0  0  0
  5  6  1  0  0  0
  5 33  1  0  0  0
  6  7  1  0  0  0
  6 37  1  0  0  0
  6 38  1  0  0  0
  7  8  1  0  0  0
  7 39  1  0  0  0
  7 40  1  0  0  0
  8  9  1  0  0  0
  8 32  1  0  0  0
  9 10  1  0  0  0
  9 41  1  0  0  0
  9 42  1  0  0  0
 10 11  2  0  0  0
 10 31  1  0  0  0
 11 12  1  0  0  0
 11 43  1  0  0  0
 12 13  2  0  0  0
 13 14  1  0  0  0
 13 30  1  0  0  0
 14 15  2  0  0  0
 14 44  1  0  0  0
 15 16  1  0  0  0
 15 28  1  0  0  0
 16 17  1  0  0  0
 17 18  2  0  0  0
 17 22  1  0  0  0
 18 19  1  0  0  0
 18 45  1  0  0  0
 19 20  2  0  0  0
 19 46  1  0  0  0
 20 21  1  0  0  0
 20 23  1  0  0  0
 21 22  2  0  0  0
 21 47  1  0  0  0
 23 24  2  0  0  0
 23 27  1  0  0  0
 24 25  1  0  0  0
 24 48  1  0  0  0
 25 26  2  0  0  0
 25 49  1  0  0  0
 26 27  1  0  0  0
 27 50  1  0  0  0
 28 29  2  0  0  0
 28 51  1  0  0  0
 29 30  1  0  0  0
 29 52  1  0  0  0
 30 31  2  0  0  0
 31 53  1  0  0  0
 32 33  1  0  0  0
 32 54  1  0  0  0
 32 55  1  0  0  0
 33 56  1  0  0  0
 33 57  1  0  0  0
M  END
> <s_m_entry_id>
6584

> <s_m_entry_name>
dock_pv.14

> <s_m_Source_Path>
/home/csk/Desktop/cluster/DUD-E-result/lkha4

> <s_m_Source_File>
dock_pv.maegz

> <i_m_Source_File_Index>
14

> <chembl_id>
CHEMBL3980517

> <chembl_pref_name>
None

> <i_lp_mmshare_version>
53161

> <i_f3d_flags>
0

> <r_lp_tautomer_probability>
0.5

> <s_lp_Force_Field>
OPLS_2005

> <r_lp_Energy>
49.01525

> <b_lp_Chiralities_Consistent>
1

> <s_lp_Variant>
CHEMBL4618_lig462-1

> <s_i_glide_gridfile>
glide-grid_3chp

> <i_i_glide_lignum>
539

> <i_i_glide_rotatable_bonds>
8

> <r_i_docking_score>
-11.5436315916682

> <r_i_glide_ligand_efficiency>
-0.34980701792934

> <r_i_glide_ligand_efficiency_sa>
-1.12201801757411

> <r_i_glide_ligand_efficiency_ln>
-2.56724389626143

> <r_i_glide_gscore>
-11.5436315916682

> <r_i_glide_lipo>
-5.9437576851173

> <r_i_glide_hbond>
-0.288905118573144

> <r_i_glide_metal>
0

> <r_i_glide_rewards>
-1.21408718678968

> <r_i_glide_evdw>
-28.9682312011719

> <r_i_glide_ecoul>
-21.1187934875488

> <r_i_glide_erotb>
0.708630345804181

> <r_i_glide_esite>
-0.189281363801343

> <r_i_glide_emodel>
-52.6915714759513

> <r_i_glide_energy>
-50.0870246887207

> <r_i_glide_einternal>
16.3105316162109

> <i_i_glide_confnum>
25

> <i_i_glide_posenum>
352

> <r_i_glide_eff_state_penalty>
0

> <s_user_duplicate_titles>
CHEMBL4618_lig462,CHEMBL4618_lig462

> <s_m_subgroup_title>
dock_pv

> <s_m_subgroupid>
dock_pv

> <b_m_subgroup_collapsed>
1

$$$$
CHEMBL4618_lig465
                    3D
 Schrodinger Suite 2021-1.
 60 64  0  0  1  0            999 V2000
   19.1784   42.9780   65.6662 C   0  0  0  0  0  0
   17.9913   43.6287   66.1064 O   0  0  0  0  0  0
   16.9421   43.7785   65.1424 C   0  0  0  0  0  0
   16.0406   42.5228   65.0697 C   0  0  0  0  0  0
   16.5774   41.4161   65.1400 O   0  0  0  0  0  0
   14.6903   42.6511   65.1133 N   0  0  0  0  0  0
   14.0538   43.8154   64.4787 C   0  0  0  0  0  0
   12.6232   44.0531   64.9864 C   0  0  0  0  0  0
   11.8280   42.8591   65.2589 N   0  0  0  0  0  0
   10.5115   43.3038   65.7514 C   0  0  0  0  0  0
    9.7223   42.3095   66.5907 C   0  0  0  0  0  0
    8.9529   42.7709   67.6511 C   0  0  0  0  0  0
    8.3907   41.9777   68.5806 N   0  0  0  0  0  0
    8.4564   40.6438   68.3669 C   0  0  0  0  0  0
    7.9476   39.8010   69.3422 C   0  0  0  0  0  0
    7.7907   38.4503   69.1101 C   0  0  0  0  0  0
    7.1910   37.6754   70.0531 O   0  0  0  0  0  0
    8.0205   37.1564   70.9953 C   0  0  0  0  0  0
    8.7069   37.9430   71.9198 C   0  0  0  0  0  0
    9.5513   37.3024   72.8189 C   0  0  0  0  0  0
    9.6481   35.9111   72.7974 C   0  0  0  0  0  0
    8.9169   35.2082   71.8446 C   0  0  0  0  0  0
    8.1211   35.8160   70.9478 N   0  0  0  0  0  0
   10.4845   35.1917   73.7600 C   0  0  0  0  0  0
   10.8783   35.6387   75.0235 C   0  0  0  0  0  0
   11.6415   34.6161   75.5125 C   0  0  0  0  0  0
   11.6865   33.6705   74.5315 N   0  0  0  0  0  0
   10.9217   33.9799   73.4949 N   0  0  0  0  0  0
    8.2651   37.8878   67.9392 C   0  0  0  0  0  0
    8.9066   38.6775   66.9863 C   0  0  0  0  0  0
    9.0278   40.0688   67.2035 C   0  0  0  0  0  0
    9.7266   40.9386   66.3520 C   0  0  0  0  0  0
   12.6234   41.9866   66.1332 C   0  0  0  0  0  0
   13.8347   41.4747   65.3381 C   0  0  0  0  0  0
   19.9501   43.0975   66.4257 H   0  0  0  0  0  0
   19.5624   43.4066   64.7407 H   0  0  0  0  0  0
   19.0286   41.9077   65.5347 H   0  0  0  0  0  0
   16.3864   44.6416   65.4928 H   0  0  0  0  0  0
   17.3290   44.0042   64.1532 H   0  0  0  0  0  0
   14.5215   44.7572   64.7399 H   0  0  0  0  0  0
   13.9643   43.6189   63.4087 H   0  0  0  0  0  0
   12.1200   44.7258   64.2989 H   0  0  0  0  0  0
   12.7112   44.5651   65.9399 H   0  0  0  0  0  0
   10.6203   44.2131   66.3410 H   0  0  0  0  0  0
    9.8994   43.5880   64.8955 H   0  0  0  0  0  0
    8.7896   43.8160   67.8028 H   0  0  0  0  0  0
    7.7209   40.2160   70.2935 H   0  0  0  0  0  0
    8.5868   39.0139   71.9415 H   0  0  0  0  0  0
   10.1123   37.8737   73.5408 H   0  0  0  0  0  0
    8.9418   34.1294   71.7868 H   0  0  0  0  0  0
   10.6182   36.5652   75.5154 H   0  0  0  0  0  0
   12.1209   34.4464   76.4499 H   0  0  0  0  0  0
   12.1203   32.7609   74.6209 H   0  0  0  0  0  0
    8.1818   36.8216   67.8217 H   0  0  0  0  0  0
    9.3181   38.2353   66.0902 H   0  0  0  0  0  0
   10.2914   40.5229   65.5401 H   0  0  0  0  0  0
   12.1006   41.1102   66.4963 H   0  0  0  0  0  0
   12.9399   42.5255   67.0298 H   0  0  0  0  0  0
   13.4855   41.0283   64.4053 H   0  0  0  0  0  0
   14.3132   40.7057   65.9393 H   0  0  0  0  0  0
  1  2  1  0  0  0
  1 35  1  0  0  0
  1 36  1  0  0  0
  1 37  1  0  0  0
  2  3  1  0  0  0
  3  4  1  0  0  0
  3 38  1  0  0  0
  3 39  1  0  0  0
  4  5  2  0  0  0
  4  6  1  0  0  0
  6  7  1  0  0  0
  6 34  1  0  0  0
  7  8  1  0  0  0
  7 40  1  0  0  0
  7 41  1  0  0  0
  8  9  1  0  0  0
  8 42  1  0  0  0
  8 43  1  0  0  0
  9 10  1  0  0  0
  9 33  1  0  0  0
 10 11  1  0  0  0
 10 44  1  0  0  0
 10 45  1  0  0  0
 11 12  2  0  0  0
 11 32  1  0  0  0
 12 13  1  0  0  0
 12 46  1  0  0  0
 13 14  2  0  0  0
 14 15  1  0  0  0
 14 31  1  0  0  0
 15 16  2  0  0  0
 15 47  1  0  0  0
 16 17  1  0  0  0
 16 29  1  0  0  0
 17 18  1  0  0  0
 18 19  2  0  0  0
 18 23  1  0  0  0
 19 20  1  0  0  0
 19 48  1  0  0  0
 20 21  2  0  0  0
 20 49  1  0  0  0
 21 22  1  0  0  0
 21 24  1  0  0  0
 22 23  2  0  0  0
 22 50  1  0  0  0
 24 28  2  0  0  0
 24 25  1  0  0  0
 25 26  2  0  0  0
 25 51  1  0  0  0
 26 27  1  0  0  0
 26 52  1  0  0  0
 27 28  1  0  0  0
 27 53  1  0  0  0
 29 30  2  0  0  0
 29 54  1  0  0  0
 30 31  1  0  0  0
 30 55  1  0  0  0
 31 32  2  0  0  0
 32 56  1  0  0  0
 33 34  1  0  0  0
 33 57  1  0  0  0
 33 58  1  0  0  0
 34 59  1  0  0  0
 34 60  1  0  0  0
M  END
> <s_m_entry_id>
6585

> <s_m_entry_name>
dock_pv.15

> <s_m_Source_Path>
/home/csk/Desktop/cluster/DUD-E-result/lkha4

> <s_m_Source_File>
dock_pv.maegz

> <i_m_Source_File_Index>
15

> <chembl_id>
CHEMBL3979012

> <chembl_pref_name>
None

> <i_lp_mmshare_version>
53161

> <i_f3d_flags>
0

> <r_lp_tautomer_probability>
0.5

> <s_lp_Force_Field>
OPLS_2005

> <r_lp_Energy>
48.636808

> <b_lp_Chiralities_Consistent>
1

> <s_lp_Variant>
CHEMBL4618_lig465-2

> <s_i_glide_gridfile>
glide-grid_3chp

> <i_i_glide_lignum>
546

> <i_i_glide_rotatable_bonds>
8

> <r_i_docking_score>
-11.5395035266847

> <r_i_glide_ligand_efficiency>
-0.33939716254955

> <r_i_glide_ligand_efficiency_sa>
-1.09951505182319

> <r_i_glide_ligand_efficiency_ln>
-2.54940000115507

> <r_i_glide_gscore>
-11.5395035266847

> <r_i_glide_lipo>
-5.90479222594323

> <r_i_glide_hbond>
-0.395120281479424

> <r_i_glide_metal>
0

> <r_i_glide_rewards>
-1.06671419724064

> <r_i_glide_evdw>
-43.3591651916504

> <r_i_glide_ecoul>
-16.6799640655518

> <r_i_glide_erotb>
0.669700037039898

> <r_i_glide_esite>
-0.17262398964602

> <r_i_glide_emodel>
-52.1347385043614

> <r_i_glide_energy>
-60.0391292572021

> <r_i_glide_einternal>
31.966854095459

> <i_i_glide_confnum>
1

> <i_i_glide_posenum>
308

> <r_i_glide_eff_state_penalty>
0

> <s_user_duplicate_titles>
CHEMBL4618_lig465,CHEMBL4618_lig465

> <s_m_subgroup_title>
dock_pv

> <s_m_subgroupid>
dock_pv

> <b_m_subgroup_collapsed>
1

$$$$
CHEMBL4618_lig267
                    3D
 Schrodinger Suite 2021-1.
 47 50  0  0  1  0            999 V2000
   10.5204   35.5448   73.8188 C   0  0  0  0  0  0
   10.1206   34.4501   73.0568 C   0  0  0  0  0  0
    9.2942   34.6136   71.9401 C   0  0  0  0  0  0
   10.1669   36.8447   73.4559 C   0  0  0  0  0  0
    9.4010   37.0131   72.2942 C   0  0  0  0  0  0
    8.9160   35.9062   71.5549 C   0  0  0  0  0  0
    8.1215   36.2162   70.4888 N   0  0  0  0  0  0
    8.0891   37.5003   70.2897 C   0  0  0  0  0  0
    8.9199   38.4737   71.4676 S   0  0  0  0  0  0
    7.4330   38.1136   69.2493 O   0  0  0  0  0  0
    8.0217   39.1796   68.6016 C   0  0  0  0  0  0
    7.8861   40.5081   69.0173 C   0  0  0  0  0  0
    8.4668   41.5534   68.2965 C   0  0  0  0  0  0
    9.1976   41.2759   67.1403 C   0  0  0  0  0  0
    9.3217   39.9385   66.7400 C   0  0  0  0  0  0
    8.7456   38.9032   67.4557 C   0  0  0  0  0  0
    9.7590   42.4204   66.2662 C   0  0  0  0  0  0
   11.2288   42.5758   66.1928 N   0  0  1  0  0  0
   11.9261   41.3013   66.0235 C   0  0  0  0  0  0
   13.4232   41.4530   65.8919 C   0  0  0  0  0  0
   13.8163   42.3057   64.6799 C   0  0  0  0  0  0
   13.1485   43.6861   64.8898 C   0  0  0  0  0  0
   11.6137   43.5414   65.1398 C   0  0  0  0  0  0
   15.3677   42.4042   64.6280 C   0  0  0  0  0  0
   16.0094   42.8205   65.5884 O   0  0  0  0  0  0
   16.0193   41.9823   63.5404 N   0  0  0  0  0  0
   11.1272   35.3797   74.6976 H   0  0  0  0  0  0
   10.4157   33.4558   73.3628 H   0  0  0  0  0  0
    8.9350   33.7565   71.3902 H   0  0  0  0  0  0
   10.5216   37.6927   74.0243 H   0  0  0  0  0  0
    7.3243   40.7388   69.8974 H   0  0  0  0  0  0
    8.3226   42.5730   68.6248 H   0  0  0  0  0  0
    9.8695   39.6667   65.8604 H   0  0  0  0  0  0
    8.8582   37.8833   67.1171 H   0  0  0  0  0  0
    9.3378   43.3670   66.6103 H   0  0  0  0  0  0
    9.3622   42.2744   65.2613 H   0  0  0  0  0  0
   11.5613   40.7885   65.1406 H   0  0  0  0  0  0
   11.7215   40.6569   66.8763 H   0  0  0  0  0  0
   13.7970   40.4354   65.8090 H   0  0  0  0  0  0
   13.7209   41.9216   66.8278 H   0  0  0  0  0  0
   13.4903   41.8369   63.7493 H   0  0  0  0  0  0
   13.5379   44.2135   65.7634 H   0  0  0  0  0  0
   13.2646   44.3085   64.0008 H   0  0  0  0  0  0
   11.1410   43.2410   64.2038 H   0  0  0  0  0  0
   11.1887   44.5162   65.3836 H   0  0  0  0  0  0
   16.9991   42.2206   63.4227 H   0  0  0  0  0  0
   15.5034   41.7001   62.6980 H   0  0  0  0  0  0
  1  2  2  0  0  0
  1  4  1  0  0  0
  1 27  1  0  0  0
  2  3  1  0  0  0
  2 28  1  0  0  0
  3  6  2  0  0  0
  3 29  1  0  0  0
  4  5  2  0  0  0
  4 30  1  0  0  0
  5  9  1  0  0  0
  5  6  1  0  0  0
  6  7  1  0  0  0
  7  8  2  0  0  0
  8  9  1  0  0  0
  8 10  1  0  0  0
 10 11  1  0  0  0
 11 16  1  0  0  0
 11 12  2  0  0  0
 12 13  1  0  0  0
 12 31  1  0  0  0
 13 14  2  0  0  0
 13 32  1  0  0  0
 14 15  1  0  0  0
 14 17  1  0  0  0
 15 16  2  0  0  0
 15 33  1  0  0  0
 16 34  1  0  0  0
 17 18  1  0  0  0
 17 35  1  0  0  0
 17 36  1  0  0  0
 18 19  1  0  0  0
 18 23  1  0  0  0
 19 20  1  0  0  0
 19 37  1  0  0  0
 19 38  1  0  0  0
 20 21  1  0  0  0
 20 39  1  0  0  0
 20 40  1  0  0  0
 21 22  1  0  0  0
 21 24  1  0  0  0
 21 41  1  0  0  0
 22 23  1  0  0  0
 22 42  1  0  0  0
 22 43  1  0  0  0
 23 44  1  0  0  0
 23 45  1  0  0  0
 24 25  2  0  0  0
 24 26  1  0  0  0
 26 46  1  0  0  0
 26 47  1  0  0  0
M  END
> <s_m_entry_id>
6586

> <s_m_entry_name>
dock_pv.16

> <s_m_Source_Path>
/home/csk/Desktop/cluster/DUD-E-result/lkha4

> <s_m_Source_File>
dock_pv.maegz

> <i_m_Source_File_Index>
16

> <chembl_id>
CHEMBL517533

> <chembl_pref_name>
None

> <i_lp_mmshare_version>
53161

> <i_f3d_flags>
0

> <r_lp_tautomer_probability>
1

> <s_lp_Force_Field>
OPLS_2005

> <r_lp_Energy>
21.593256

> <b_lp_Chiralities_Consistent>
1

> <s_lp_Variant>
CHEMBL4618_lig267-1

> <s_i_glide_gridfile>
glide-grid_3chp

> <i_i_glide_lignum>
305

> <i_i_glide_rotatable_bonds>
5

> <r_i_docking_score>
-11.4996073982986

> <r_i_glide_ligand_efficiency>
-0.442292592242255

> <r_i_glide_ligand_efficiency_sa>
-1.31029006418037

> <r_i_glide_ligand_efficiency_ln>
-2.70064506420089

> <r_i_glide_gscore>
-11.4996073982986

> <r_i_glide_lipo>
-5.79740922577044

> <r_i_glide_hbond>
-0.457587689816485

> <r_i_glide_metal>
0

> <r_i_glide_rewards>
-1.80364336363636

> <r_i_glide_evdw>
-43.0403366088867

> <r_i_glide_ecoul>
-11.0630369186401

> <r_i_glide_erotb>
0.570505249165019

> <r_i_glide_esite>
-0.2

> <r_i_glide_emodel>
-79.8147146679212

> <r_i_glide_energy>
-54.1033735275269

> <r_i_glide_einternal>
11.8526668548584

> <i_i_glide_confnum>
22

> <i_i_glide_posenum>
357

> <r_i_glide_eff_state_penalty>
0

> <s_user_duplicate_titles>
CHEMBL4618_lig267,466989

> <s_m_subgroup_title>
dock_pv

> <s_m_subgroupid>
dock_pv

> <b_m_subgroup_collapsed>
1

$$$$
CHEMBL4618_lig447
                    3D
 Schrodinger Suite 2021-1.
 48 52  0  0  1  0            999 V2000
    7.8770   37.0158   69.4722 O   0  0  0  0  0  0
    9.0939   37.9055   71.7883 S   0  0  0  0  0  0
    8.4095   36.6977   70.7136 C   0  0  0  0  0  0
    8.5210   35.4742   71.1400 N   0  0  0  0  0  0
    9.3492   35.3881   72.2090 C   0  0  0  0  0  0
    9.7212   36.6181   72.7951 C   0  0  0  0  0  0
    9.8113   34.2158   72.6385 N   0  0  0  0  0  0
   10.5942   34.2333   73.7485 C   0  0  0  0  0  0
   10.9208   35.3907   74.4539 C   0  0  0  0  0  0
   10.5134   36.6290   73.9547 C   0  0  0  0  0  0
    9.0220   39.4145   66.9000 C   0  0  0  0  0  0
    8.6725   38.2312   67.5658 C   0  0  0  0  0  0
    8.0949   38.2223   68.8337 C   0  0  0  0  0  0
    7.7211   39.4268   69.4049 C   0  0  0  0  0  0
    8.9578   42.0433   67.2188 C   0  0  0  0  0  0
    8.7423   40.6465   67.5111 C   0  0  0  0  0  0
    8.0517   40.6119   68.7399 C   0  0  0  0  0  0
    7.7478   41.8642   69.1548 O   0  0  0  0  0  0
    8.2918   42.7029   68.2385 C   0  0  0  0  0  0
    9.6779   42.6949   66.0523 C   0  0  0  0  0  0
   11.1484   42.7253   66.1277 N   0  0  1  0  0  0
   11.7348   41.3773   66.1927 C   0  0  0  0  0  0
   13.2619   41.3472   66.0121 C   0  0  0  0  0  0
   13.7234   42.1066   64.7574 C   0  0  0  0  0  0
   13.2216   43.5571   64.8906 C   0  0  0  0  0  0
   11.6779   43.5543   65.0231 C   0  0  0  0  0  0
   15.2655   42.0261   64.7399 C   0  0  0  0  0  0
   15.9853   42.6321   65.5325 O   0  0  0  0  0  0
   15.7213   41.0196   63.9399 O   0  0  0  0  0  0
   10.9403   33.2684   74.0918 H   0  0  0  0  0  0
   11.5213   35.3294   75.3511 H   0  0  0  0  0  0
   10.8068   37.5506   74.4335 H   0  0  0  0  0  0
    9.5184   39.3669   65.9422 H   0  0  0  0  0  0
    8.9206   37.2876   67.1123 H   0  0  0  0  0  0
    7.1987   39.4158   70.3400 H   0  0  0  0  0  0
    8.1210   43.7537   68.4307 H   0  0  0  0  0  0
    9.3499   43.7347   65.9872 H   0  0  0  0  0  0
    9.3595   42.2162   65.1386 H   0  0  0  0  0  0
   11.2952   40.7454   65.4320 H   0  0  0  0  0  0
   11.4575   40.9194   67.1416 H   0  0  0  0  0  0
   13.5346   40.2922   65.9526 H   0  0  0  0  0  0
   13.6487   41.8188   66.9150 H   0  0  0  0  0  0
   13.3609   41.6456   63.8370 H   0  0  0  0  0  0
   13.5963   44.0592   65.7852 H   0  0  0  0  0  0
   13.4559   44.1403   63.9982 H   0  0  0  0  0  0
   11.2539   43.1951   64.0850 H   0  0  0  0  0  0
   11.3162   44.5747   65.1409 H   0  0  0  0  0  0
   15.2234   40.9969   63.0968 H   0  0  0  0  0  0
  1  3  1  0  0  0
  1 13  1  0  0  0
  2  3  1  0  0  0
  2  6  1  0  0  0
  3  4  2  0  0  0
  4  5  1  0  0  0
  5  6  1  0  0  0
  5  7  2  0  0  0
  6 10  2  0  0  0
  7  8  1  0  0  0
  8  9  2  0  0  0
  8 30  1  0  0  0
  9 10  1  0  0  0
  9 31  1  0  0  0
 10 32  1  0  0  0
 11 16  2  0  0  0
 11 12  1  0  0  0
 11 33  1  0  0  0
 12 13  2  0  0  0
 12 34  1  0  0  0
 13 14  1  0  0  0
 14 17  2  0  0  0
 14 35  1  0  0  0
 15 16  1  0  0  0
 15 19  2  0  0  0
 15 20  1  0  0  0
 16 17  1  0  0  0
 17 18  1  0  0  0
 18 19  1  0  0  0
 19 36  1  0  0  0
 20 21  1  0  0  0
 20 37  1  0  0  0
 20 38  1  0  0  0
 21 22  1  0  0  0
 21 26  1  0  0  0
 22 23  1  0  0  0
 22 39  1  0  0  0
 22 40  1  0  0  0
 23 24  1  0  0  0
 23 41  1  0  0  0
 23 42  1  0  0  0
 24 25  1  0  0  0
 24 27  1  0  0  0
 24 43  1  0  0  0
 25 26  1  0  0  0
 25 44  1  0  0  0
 25 45  1  0  0  0
 26 46  1  0  0  0
 26 47  1  0  0  0
 27 28  2  0  0  0
 27 29  1  0  0  0
 29 48  1  0  0  0
M  END
> <s_m_entry_id>
6587

> <s_m_entry_name>
dock_pv.17

> <s_m_Source_Path>
/home/csk/Desktop/cluster/DUD-E-result/lkha4

> <s_m_Source_File>
dock_pv.maegz

> <i_m_Source_File_Index>
17

> <chembl_id>
CHEMBL2313567

> <chembl_pref_name>
None

> <i_lp_mmshare_version>
53161

> <i_f3d_flags>
0

> <r_lp_tautomer_probability>
1

> <s_lp_Force_Field>
OPLS_2005

> <r_lp_Energy>
28.378004

> <b_lp_Chiralities_Consistent>
1

> <s_lp_Variant>
CHEMBL4618_lig447-1

> <s_i_glide_gridfile>
glide-grid_3chp

> <i_i_glide_lignum>
523

> <i_i_glide_rotatable_bonds>
6

> <r_i_docking_score>
-11.4908968321542

> <r_i_glide_ligand_efficiency>
-0.396237821798421

> <r_i_glide_ligand_efficiency_sa>
-1.21736812551799

> <r_i_glide_ligand_efficiency_ln>
-2.63112399056095

> <r_i_glide_gscore>
-11.4908968321542

> <r_i_glide_lipo>
-5.70227293235905

> <r_i_glide_hbond>
-0.280615397525602

> <r_i_glide_metal>
0

> <r_i_glide_rewards>
-1.51732322727273

> <r_i_glide_evdw>
-51.0790710449219

> <r_i_glide_ecoul>
-12.8264808654785

> <r_i_glide_erotb>
0.587240407071043

> <r_i_glide_esite>
-0.1

> <r_i_glide_emodel>
-98.0559791546535

> <r_i_glide_energy>
-63.9055519104004

> <r_i_glide_einternal>
7.05641222000122

> <i_i_glide_confnum>
87

> <i_i_glide_posenum>
247

> <r_i_glide_eff_state_penalty>
0

> <s_user_duplicate_titles>
CHEMBL4618_lig447

> <s_m_subgroup_title>
dock_pv

> <s_m_subgroupid>
dock_pv

> <b_m_subgroup_collapsed>
1

$$$$
CHEMBL4618_lig211
                    3D
 Schrodinger Suite 2021-1.
 45 46  0  0  1  0            999 V2000
    8.1240   39.7502   68.5311 C   0  0  0  0  0  0
    8.8877   39.1281   67.5494 C   0  0  0  0  0  0
    9.7236   39.8865   66.7439 C   0  0  0  0  0  0
    9.8197   41.2620   66.9198 C   0  0  0  0  0  0
    9.0102   41.9049   67.8680 C   0  0  0  0  0  0
    8.1526   41.1393   68.6684 C   0  0  0  0  0  0
   10.8306   41.8994   66.1903 N   0  0  0  0  0  0
   10.7912   43.0975   65.5749 C   0  0  0  0  0  0
    9.7970   43.8138   65.5411 O   0  0  0  0  0  0
   12.0598   43.5325   64.8079 C   0  0  0  0  0  0
   13.4353   43.0440   65.3498 C   0  0  0  0  0  0
   14.2904   42.3362   64.2702 C   0  0  1  0  0  0
   15.7483   42.1212   64.7416 C   0  0  0  0  0  0
   13.7211   41.0218   63.9397 N   0  0  0  0  0  0
   16.5798   43.1453   64.7384 N   0  0  0  0  0  0
   16.1223   41.0170   65.1390 O   0  0  0  0  0  0
    7.3218   38.9940   69.3475 O   0  0  0  0  0  0
    7.9297   38.1510   70.2537 C   0  0  0  0  0  0
    8.5207   38.6621   71.4001 C   0  0  0  0  0  0
    9.1106   37.8155   72.3349 C   0  0  0  0  0  0
    9.1107   36.4364   72.1197 C   0  0  0  0  0  0
    8.5207   35.9241   70.9693 C   0  0  0  0  0  0
    7.9493   36.7826   70.0295 C   0  0  0  0  0  0
    9.7212   35.5037   73.1493 C   0  0  0  0  0  0
    8.8424   38.0536   67.4203 H   0  0  0  0  0  0
   10.3252   39.3934   65.9936 H   0  0  0  0  0  0
    9.0624   42.9754   68.0122 H   0  0  0  0  0  0
    7.5340   41.6188   69.4142 H   0  0  0  0  0  0
   11.6180   41.3141   65.9447 H   0  0  0  0  0  0
   12.0806   44.6163   64.7093 H   0  0  0  0  0  0
   11.9161   43.1952   63.7810 H   0  0  0  0  0  0
   13.3439   42.3930   66.2191 H   0  0  0  0  0  0
   13.9642   43.9181   65.7308 H   0  0  0  0  0  0
   14.3196   42.9653   63.3715 H   0  0  0  0  0  0
   14.1124   40.7543   63.0301 H   0  0  0  0  0  0
   14.0256   40.3092   64.5973 H   0  0  0  0  0  0
   17.5551   43.0138   64.9817 H   0  0  0  0  0  0
   16.3074   43.9951   64.2468 H   0  0  0  0  0  0
    8.5209   39.7288   71.5667 H   0  0  0  0  0  0
    9.5686   38.2155   73.2152 H   0  0  0  0  0  0
    8.5225   34.8594   70.7912 H   0  0  0  0  0  0
    7.5164   36.3719   69.1350 H   0  0  0  0  0  0
    9.3677   35.7526   74.1502 H   0  0  0  0  0  0
    9.4400   34.4632   72.9596 H   0  0  0  0  0  0
   10.8103   35.5739   73.1529 H   0  0  0  0  0  0
  1  6  1  0  0  0
  1  2  2  0  0  0
  1 17  1  0  0  0
  2  3  1  0  0  0
  2 25  1  0  0  0
  3  4  2  0  0  0
  3 26  1  0  0  0
  4  7  1  0  0  0
  4  5  1  0  0  0
  5  6  2  0  0  0
  5 27  1  0  0  0
  6 28  1  0  0  0
  7  8  1  0  0  0
  7 29  1  0  0  0
  8  9  2  0  0  0
  8 10  1  0  0  0
 10 11  1  0  0  0
 10 30  1  0  0  0
 10 31  1  0  0  0
 11 12  1  0  0  0
 11 32  1  0  0  0
 11 33  1  0  0  0
 12 13  1  0  0  0
 12 14  1  0  0  0
 12 34  1  0  0  0
 13 15  1  0  0  0
 13 16  2  0  0  0
 14 35  1  0  0  0
 14 36  1  0  0  0
 15 37  1  0  0  0
 15 38  1  0  0  0
 17 18  1  0  0  0
 18 19  2  0  0  0
 18 23  1  0  0  0
 19 20  1  0  0  0
 19 39  1  0  0  0
 20 21  2  0  0  0
 20 40  1  0  0  0
 21 22  1  0  0  0
 21 24  1  0  0  0
 22 23  2  0  0  0
 22 41  1  0  0  0
 23 42  1  0  0  0
 24 43  1  0  0  0
 24 44  1  0  0  0
 24 45  1  0  0  0
M  END
> <s_m_entry_id>
6588

> <s_m_entry_name>
dock_pv.18

> <s_m_Source_Path>
/home/csk/Desktop/cluster/DUD-E-result/lkha4

> <s_m_Source_File>
dock_pv.maegz

> <i_m_Source_File_Index>
18

> <chembl_id>
CHEMBL479157

> <chembl_pref_name>
None

> <i_lp_mmshare_version>
53161

> <i_f3d_flags>
0

> <r_lp_tautomer_probability>
1

> <s_lp_Force_Field>
OPLS_2005

> <r_lp_Energy>
17.772532

> <b_lp_Chiralities_Consistent>
1

> <s_lp_Variant>
CHEMBL4618_lig211-1

> <s_i_glide_gridfile>
glide-grid_3chp

> <i_i_glide_lignum>
239

> <i_i_glide_rotatable_bonds>
8

> <r_i_docking_score>
-11.4377577049888

> <r_i_glide_ligand_efficiency>
-0.476573237707868

> <r_i_glide_ligand_efficiency_sa>
-1.3746750931521

> <r_i_glide_ligand_efficiency_ln>
-2.73758026330559

> <r_i_glide_gscore>
-11.4377577049888

> <r_i_glide_lipo>
-4.67712751404584

> <r_i_glide_hbond>
-1.16774813179254

> <r_i_glide_metal>
0

> <r_i_glide_rewards>
-1.52420206996804

> <r_i_glide_evdw>
-35.1316757202148

> <r_i_glide_ecoul>
-22.2523345947266

> <r_i_glide_erotb>
1.22575398603731

> <r_i_glide_esite>
-0.2

> <r_i_glide_emodel>
-91.812327919373

> <r_i_glide_energy>
-57.3840103149414

> <r_i_glide_einternal>
8.86927604675293

> <i_i_glide_confnum>
54

> <i_i_glide_posenum>
362

> <r_i_glide_eff_state_penalty>
0

> <s_user_duplicate_titles>
CHEMBL4618_lig211,507022

> <s_m_subgroup_title>
dock_pv

> <s_m_subgroupid>
dock_pv

> <b_m_subgroup_collapsed>
1

$$$$
CHEMBL4618_lig440
                    3D
 Schrodinger Suite 2021-1.
 50 55  0  0  1  0            999 V2000
    7.8832   37.0203   69.4827 O   0  0  0  0  0  0
    8.9923   37.9033   71.8726 S   0  0  0  0  0  0
    8.3817   36.7022   70.7403 C   0  0  0  0  0  0
    8.5223   35.4747   71.1400 N   0  0  0  0  0  0
    9.3500   35.3836   72.2078 C   0  0  0  0  0  0
    9.6941   36.6083   72.8247 C   0  0  0  0  0  0
    9.8391   34.2115   72.6043 N   0  0  0  0  0  0
   10.6166   34.2166   73.7164 C   0  0  0  0  0  0
   10.9195   35.3639   74.4480 C   0  0  0  0  0  0
   10.4966   36.6083   73.9763 C   0  0  0  0  0  0
    9.0330   39.4036   66.8888 C   0  0  0  0  0  0
    8.6827   38.2243   67.5650 C   0  0  0  0  0  0
    8.1140   38.2225   68.8377 C   0  0  0  0  0  0
    7.7512   39.4312   69.4018 C   0  0  0  0  0  0
    9.0041   42.0467   67.1879 C   0  0  0  0  0  0
    8.7743   40.6448   67.4896 C   0  0  0  0  0  0
    8.0967   40.6122   68.7319 C   0  0  0  0  0  0
    7.8082   41.8637   69.1506 O   0  0  0  0  0  0
    8.3334   42.6949   68.2188 C   0  0  0  0  0  0
    9.6397   42.7765   65.9972 C   0  0  0  0  0  0
   11.0079   42.4520   65.5398 N   0  0  2  0  0  0
   11.7115   41.2246   65.9459 C   0  0  0  0  0  0
   13.8078   42.1554   64.9850 N   0  0  0  0  0  0
   13.0505   43.3253   64.5139 C   0  0  0  0  0  0
   12.0387   43.4891   65.6691 C   0  0  2  0  0  0
   15.0851   41.8525   64.6374 C   0  0  0  0  0  0
   15.8069   41.0156   65.1401 O   0  0  0  0  0  0
   15.8277   42.6460   63.6412 C   0  0  0  0  0  0
   12.8590   43.0392   66.8595 C   0  0  0  0  0  0
   13.1519   41.6872   66.2207 C   0  0  1  0  0  0
   11.6502   44.5033   65.7336 H   0  0  0  0  0  0
   13.7205   40.9352   66.7517 H   0  0  0  0  0  0
   10.9882   33.2524   74.0358 H   0  0  0  0  0  0
   11.5273   35.2925   75.3388 H   0  0  0  0  0  0
   10.7934   37.5219   74.4710 H   0  0  0  0  0  0
    9.5338   39.3460   65.9374 H   0  0  0  0  0  0
    8.9196   37.2774   67.1120 H   0  0  0  0  0  0
    7.2241   39.4173   70.3328 H   0  0  0  0  0  0
    8.1222   43.7390   68.4022 H   0  0  0  0  0  0
    9.6205   43.8415   66.2287 H   0  0  0  0  0  0
    8.9697   42.7486   65.1426 H   0  0  0  0  0  0
   11.6957   40.3914   65.2485 H   0  0  0  0  0  0
   11.3136   40.8544   66.8871 H   0  0  0  0  0  0
   12.5781   43.2151   63.5413 H   0  0  0  0  0  0
   13.7312   44.1779   64.4850 H   0  0  0  0  0  0
   15.1643   43.0190   62.8676 H   0  0  0  0  0  0
   16.2490   43.4182   64.3240 H   0  0  0  0  0  0
   16.6252   42.0847   63.1553 H   0  0  0  0  0  0
   12.2316   43.0097   67.7458 H   0  0  0  0  0  0
   13.7448   43.6437   67.0578 H   0  0  0  0  0  0
  1  3  1  0  0  0
  1 13  1  0  0  0
  2  3  1  0  0  0
  2  6  1  0  0  0
  3  4  2  0  0  0
  4  5  1  0  0  0
  5  6  1  0  0  0
  5  7  2  0  0  0
  6 10  2  0  0  0
  7  8  1  0  0  0
  8  9  2  0  0  0
  8 33  1  0  0  0
  9 10  1  0  0  0
  9 34  1  0  0  0
 10 35  1  0  0  0
 11 16  2  0  0  0
 11 12  1  0  0  0
 11 36  1  0  0  0
 12 13  2  0  0  0
 12 37  1  0  0  0
 13 14  1  0  0  0
 14 17  2  0  0  0
 14 38  1  0  0  0
 15 16  1  0  0  0
 15 19  2  0  0  0
 15 20  1  0  0  0
 16 17  1  0  0  0
 17 18  1  0  0  0
 18 19  1  0  0  0
 19 39  1  0  0  0
 20 21  1  0  0  0
 20 40  1  0  0  0
 20 41  1  0  0  0
 21 22  1  0  0  0
 21 25  1  0  0  0
 22 30  1  0  0  0
 22 42  1  0  0  0
 22 43  1  0  0  0
 23 30  1  0  0  0
 23 24  1  0  0  0
 23 26  1  0  0  0
 24 25  1  0  0  0
 24 44  1  0  0  0
 24 45  1  0  0  0
 25 29  1  0  0  0
 25 31  1  0  0  0
 26 27  2  0  0  0
 26 28  1  0  0  0
 28 46  1  0  0  0
 28 47  1  0  0  0
 28 48  1  0  0  0
 29 30  1  0  0  0
 29 49  1  0  0  0
 29 50  1  0  0  0
 30 32  1  0  0  0
M  END
> <s_m_entry_id>
6589

> <s_m_entry_name>
dock_pv.19

> <s_m_Source_Path>
/home/csk/Desktop/cluster/DUD-E-result/lkha4

> <s_m_Source_File>
dock_pv.maegz

> <i_m_Source_File_Index>
19

> <chembl_id>
CHEMBL2313265

> <chembl_pref_name>
None

> <i_lp_mmshare_version>
53161

> <i_f3d_flags>
0

> <r_lp_tautomer_probability>
1

> <s_lp_Force_Field>
OPLS_2005

> <r_lp_Energy>
78.62789

> <b_lp_Chiralities_Consistent>
1

> <s_lp_Variant>
CHEMBL4618_lig440-1

> <s_i_glide_gridfile>
glide-grid_3chp

> <i_i_glide_lignum>
516

> <i_i_glide_rotatable_bonds>
5

> <r_i_docking_score>
-11.3600776067886

> <r_i_glide_ligand_efficiency>
-0.378669253559618

> <r_i_glide_ligand_efficiency_sa>
-1.17661341233177

> <r_i_glide_ligand_efficiency_ln>
-2.58113341022172

> <r_i_glide_gscore>
-11.3600776067886

> <r_i_glide_lipo>
-5.60024584564298

> <r_i_glide_hbond>
-0.207434328406223

> <r_i_glide_metal>
0

> <r_i_glide_rewards>
-1.43086774020491

> <r_i_glide_evdw>
-42.7754135131836

> <r_i_glide_ecoul>
-15.5369424819946

> <r_i_glide_erotb>
0.447782355423934

> <r_i_glide_esite>
-0.1

> <r_i_glide_emodel>
-69.5576234535235

> <r_i_glide_energy>
-58.3123559951782

> <r_i_glide_einternal>
13.2267589569092

> <i_i_glide_confnum>
8

> <i_i_glide_posenum>
12

> <r_i_glide_eff_state_penalty>
0

> <s_user_duplicate_titles>
CHEMBL4618_lig440,CHEMBL4618_lig433

> <s_m_subgroup_title>
dock_pv

> <s_m_subgroupid>
dock_pv

> <b_m_subgroup_collapsed>
1

$$$$
CHEMBL4618_lig498
                    3D
 Schrodinger Suite 2021-1.
 49 51  0  0  1  0            999 V2000
    9.7209   34.6952   72.7114 C   0  0  0  0  0  0
   10.3639   35.0826   73.8818 C   0  0  0  0  0  0
   10.5342   36.4235   74.1902 C   0  0  0  0  0  0
   10.1213   37.4162   73.3036 C   0  0  0  0  0  0
    9.2194   35.7168   71.9001 C   0  0  0  0  0  0
    9.4129   37.0987   72.1427 C   0  0  0  0  0  0
    8.8210   37.8545   71.0429 C   0  0  0  0  0  0
    8.3536   36.8850   70.1662 C   0  0  0  0  0  0
    8.5199   35.6591   70.7399 N   0  0  0  0  0  0
    7.7945   36.9327   68.7637 C   0  0  0  0  0  0
    8.7701   39.3756   70.8575 C   0  0  0  0  0  0
    8.3515   39.8272   69.4194 C   0  0  0  0  0  0
    8.2005   41.2590   69.1623 N   0  0  1  0  0  0
    8.0464   41.6585   67.7738 C   0  0  0  0  0  0
    9.3961   41.7359   67.0925 C   0  0  0  0  0  0
   10.0640   40.5877   66.6993 C   0  0  0  0  0  0
   11.3207   40.6996   66.1310 C   0  0  0  0  0  0
   11.9457   41.9270   65.9709 C   0  0  0  0  0  0
   11.2572   43.0827   66.3257 C   0  0  0  0  0  0
    9.9748   42.9728   66.8592 C   0  0  0  0  0  0
   13.3214   41.8916   65.4747 C   0  0  0  0  0  0
   14.2598   42.8590   65.5500 C   0  0  0  0  0  0
   15.6039   42.6012   65.1032 C   0  0  0  0  0  0
   15.6873   41.9232   63.9398 N   0  0  0  0  0  0
   16.5706   42.8709   65.8165 O   0  0  0  0  0  0
   16.9211   41.4160   63.5401 O   0  0  0  0  0  0
    9.6113   33.6533   72.4516 H   0  0  0  0  0  0
   10.7419   34.3297   74.5581 H   0  0  0  0  0  0
   11.0394   36.6976   75.1059 H   0  0  0  0  0  0
   10.3395   38.4376   73.5398 H   0  0  0  0  0  0
    8.1622   34.8175   70.2990 H   0  0  0  0  0  0
    8.4590   37.4583   68.0792 H   0  0  0  0  0  0
    7.7210   35.9365   68.3386 H   0  0  0  0  0  0
    6.8177   37.4150   68.7087 H   0  0  0  0  0  0
    9.7235   39.7952   71.1379 H   0  0  0  0  0  0
    8.1230   39.7932   71.6138 H   0  0  0  0  0  0
    7.3862   39.3906   69.1760 H   0  0  0  0  0  0
    9.0863   39.3991   68.7462 H   0  0  0  0  0  0
    7.4437   41.6313   69.7249 H   0  0  0  0  0  0
    7.6012   42.6550   67.7941 H   0  0  0  0  0  0
    7.3639   41.0163   67.2377 H   0  0  0  0  0  0
    9.6092   39.6132   66.7801 H   0  0  0  0  0  0
   11.7993   39.8133   65.7567 H   0  0  0  0  0  0
   11.7026   44.0582   66.1986 H   0  0  0  0  0  0
    9.4030   43.8267   67.1404 H   0  0  0  0  0  0
   13.5892   40.9468   65.0152 H   0  0  0  0  0  0
   14.0713   43.8290   65.9876 H   0  0  0  0  0  0
   14.9557   41.7586   63.2519 H   0  0  0  0  0  0
   17.2165   42.0399   62.8524 H   0  0  0  0  0  0
  1  2  2  0  0  0
  1  5  1  0  0  0
  1 27  1  0  0  0
  2  3  1  0  0  0
  2 28  1  0  0  0
  3  4  2  0  0  0
  3 29  1  0  0  0
  4  6  1  0  0  0
  4 30  1  0  0  0
  5  9  1  0  0  0
  5  6  2  0  0  0
  6  7  1  0  0  0
  7  8  2  0  0  0
  7 11  1  0  0  0
  8  9  1  0  0  0
  8 10  1  0  0  0
  9 31  1  0  0  0
 10 32  1  0  0  0
 10 33  1  0  0  0
 10 34  1  0  0  0
 11 12  1  0  0  0
 11 35  1  0  0  0
 11 36  1  0  0  0
 12 13  1  0  0  0
 12 37  1  0  0  0
 12 38  1  0  0  0
 13 14  1  0  0  0
 13 39  1  0  0  0
 14 15  1  0  0  0
 14 40  1  0  0  0
 14 41  1  0  0  0
 15 16  2  0  0  0
 15 20  1  0  0  0
 16 17  1  0  0  0
 16 42  1  0  0  0
 17 18  2  0  0  0
 17 43  1  0  0  0
 18 19  1  0  0  0
 18 21  1  0  0  0
 19 20  2  0  0  0
 19 44  1  0  0  0
 20 45  1  0  0  0
 21 22  2  0  0  0
 21 46  1  0  0  0
 22 23  1  0  0  0
 22 47  1  0  0  0
 23 24  1  0  0  0
 23 25  2  0  0  0
 24 26  1  0  0  0
 24 48  1  0  0  0
 26 49  1  0  0  0
M  END
> <s_m_entry_id>
6590

> <s_m_entry_name>
dock_pv.20

> <s_m_Source_Path>
/home/csk/Desktop/cluster/DUD-E-result/lkha4

> <s_m_Source_File>
dock_pv.maegz

> <i_m_Source_File_Index>
20

> <chembl_id>
CHEMBL483254

> <chembl_pref_name>
PANOBINOSTAT

> <i_lp_mmshare_version>
53161

> <i_f3d_flags>
0

> <r_lp_tautomer_probability>
1

> <s_lp_Force_Field>
OPLS_2005

> <r_lp_Energy>
21.513609

> <b_lp_Chiralities_Consistent>
1

> <s_lp_Variant>
CHEMBL4618_lig498-1

> <s_i_glide_gridfile>
glide-grid_3chp

> <i_i_glide_lignum>
598

> <i_i_glide_rotatable_bonds>
9

> <r_i_docking_score>
-11.3537265267073

> <r_i_glide_ligand_efficiency>
-0.436681789488744

> <r_i_glide_ligand_efficiency_sa>
-1.29366808310053

> <r_i_glide_ligand_efficiency_ln>
-2.66638542018186

> <r_i_glide_gscore>
-11.3537265267073

> <r_i_glide_lipo>
-5.16141361862879

> <r_i_glide_hbond>
-0.832209777521475

> <r_i_glide_metal>
0

> <r_i_glide_rewards>
-2.6765089845503

> <r_i_glide_evdw>
-24.8823509216309

> <r_i_glide_ecoul>
-16.5837059020996

> <r_i_glide_erotb>
1.24807928538972

> <r_i_glide_esite>
-0.2

> <r_i_glide_emodel>
-61.3085709262765

> <r_i_glide_energy>
-41.4660568237305

> <r_i_glide_einternal>
8.72299194335938

> <i_i_glide_confnum>
69

> <i_i_glide_posenum>
137

> <r_i_glide_eff_state_penalty>
0

> <s_user_duplicate_titles>
CHEMBL4618_lig498

> <s_m_subgroup_title>
dock_pv

> <s_m_subgroupid>
dock_pv

> <b_m_subgroup_collapsed>
1

$$$$
CHEMBL4618_lig24
                    3D
 Schrodinger Suite 2021-1.
 51 53  0  0  1  0            999 V2000
   15.5079   42.1045   64.5836 C   0  0  0  0  0  0
   11.2816   42.7260   65.5923 N   0  0  1  0  0  0
   14.2219   42.8457   65.0486 C   0  0  0  0  0  0
   16.0009   41.1181   65.1400 O   0  0  0  0  0  0
   13.1595   42.9469   63.9326 C   0  0  0  0  0  0
   13.6271   42.2668   66.3394 C   0  0  0  0  0  0
   11.7975   43.4838   64.4468 C   0  0  0  0  0  0
   12.2311   42.8031   66.7008 C   0  0  0  0  0  0
   16.1221   42.6160   63.5397 N   0  0  0  0  0  0
    8.0899   38.0696   69.5989 C   0  0  0  0  0  0
    7.6518   37.0133   70.6190 C   0  0  0  0  0  0
    8.7203   40.0612   67.7076 C   0  0  0  0  0  0
    8.2458   39.3954   69.9810 C   0  0  0  0  0  0
    8.2095   37.7509   68.2488 C   0  0  0  0  0  0
    8.5388   38.7339   67.3117 C   0  0  0  0  0  0
    8.5210   40.3881   69.0531 C   0  0  0  0  0  0
    8.6682   36.5288   71.6603 C   0  0  0  0  0  0
    9.0913   40.9798   66.7407 O   0  0  0  0  0  0
    9.9306   43.1685   65.9855 C   0  0  0  0  0  0
    9.2551   42.3539   67.1093 C   0  0  0  0  0  0
    9.2430   37.4217   72.5633 C   0  0  0  0  0  0
    8.9729   35.1684   71.7799 C   0  0  0  0  0  0
   10.1257   36.9700   73.5400 C   0  0  0  0  0  0
    9.8717   34.7135   72.7404 C   0  0  0  0  0  0
   10.4356   35.6173   73.6308 C   0  0  0  0  0  0
   14.5279   43.8701   65.2704 H   0  0  0  0  0  0
   13.4879   43.6318   63.1485 H   0  0  0  0  0  0
   12.9617   41.9712   63.4966 H   0  0  0  0  0  0
   13.5294   41.1791   66.3157 H   0  0  0  0  0  0
   14.2621   42.6160   67.1400 H   0  0  0  0  0  0
   11.8702   44.5391   64.7181 H   0  0  0  0  0  0
   11.0709   43.4160   63.6368 H   0  0  0  0  0  0
   12.2902   43.8160   67.0868 H   0  0  0  0  0  0
   11.8379   42.1976   67.5118 H   0  0  0  0  0  0
   16.9544   42.2170   63.1218 H   0  0  0  0  0  0
   15.8736   43.5628   63.2430 H   0  0  0  0  0  0
    6.7913   37.4159   71.1569 H   0  0  0  0  0  0
    7.2816   36.1499   70.0669 H   0  0  0  0  0  0
    8.1210   39.6723   71.0123 H   0  0  0  0  0  0
    8.0716   36.7276   67.9400 H   0  0  0  0  0  0
    8.6715   38.4647   66.2739 H   0  0  0  0  0  0
    8.5969   41.4010   69.4127 H   0  0  0  0  0  0
    9.9569   44.2159   66.2792 H   0  0  0  0  0  0
    9.2570   43.1148   65.1399 H   0  0  0  0  0  0
    9.8262   42.4742   68.0288 H   0  0  0  0  0  0
    8.2688   42.7780   67.3066 H   0  0  0  0  0  0
    8.9903   38.4681   72.5354 H   0  0  0  0  0  0
    8.5210   34.4352   71.1399 H   0  0  0  0  0  0
   10.5683   37.6662   74.2352 H   0  0  0  0  0  0
   10.1074   33.6618   72.8141 H   0  0  0  0  0  0
   11.1159   35.2675   74.3941 H   0  0  0  0  0  0
  1  3  1  0  0  0
  1  4  2  0  0  0
  1  9  1  0  0  0
  2  8  1  0  0  0
  2 19  1  0  0  0
  2  7  1  0  0  0
  3  5  1  0  0  0
  3  6  1  0  0  0
  3 26  1  0  0  0
  5  7  1  0  0  0
  5 27  1  0  0  0
  5 28  1  0  0  0
  6  8  1  0  0  0
  6 29  1  0  0  0
  6 30  1  0  0  0
  7 31  1  0  0  0
  7 32  1  0  0  0
  8 33  1  0  0  0
  8 34  1  0  0  0
  9 35  1  0  0  0
  9 36  1  0  0  0
 10 13  2  0  0  0
 10 11  1  0  0  0
 10 14  1  0  0  0
 11 17  1  0  0  0
 11 37  1  0  0  0
 11 38  1  0  0  0
 12 18  1  0  0  0
 12 15  1  0  0  0
 12 16  2  0  0  0
 13 16  1  0  0  0
 13 39  1  0  0  0
 14 15  2  0  0  0
 14 40  1  0  0  0
 15 41  1  0  0  0
 16 42  1  0  0  0
 17 21  2  0  0  0
 17 22  1  0  0  0
 18 20  1  0  0  0
 19 20  1  0  0  0
 19 43  1  0  0  0
 19 44  1  0  0  0
 20 45  1  0  0  0
 20 46  1  0  0  0
 21 23  1  0  0  0
 21 47  1  0  0  0
 22 24  2  0  0  0
 22 48  1  0  0  0
 23 25  2  0  0  0
 23 49  1  0  0  0
 24 25  1  0  0  0
 24 50  1  0  0  0
 25 51  1  0  0  0
M  END
> <s_m_entry_id>
6591

> <s_m_entry_name>
dock_pv.21

> <s_m_Source_Path>
/home/csk/Desktop/cluster/DUD-E-result/lkha4

> <s_m_Source_File>
dock_pv.maegz

> <i_m_Source_File_Index>
21

> <chembl_id>
CHEMBL115074

> <chembl_pref_name>
None

> <i_lp_mmshare_version>
53161

> <i_f3d_flags>
0

> <r_lp_tautomer_probability>
1

> <s_lp_Force_Field>
OPLS_2005

> <r_lp_Energy>
26.407887

> <b_lp_Chiralities_Consistent>
1

> <s_lp_Variant>
CHEMBL4618_lig24-1

> <s_i_glide_gridfile>
glide-grid_3chp

> <i_i_glide_lignum>
34

> <i_i_glide_rotatable_bonds>
7

> <r_i_docking_score>
-11.3520276813372

> <r_i_glide_ligand_efficiency>
-0.454081107253486

> <r_i_glide_ligand_efficiency_sa>
-1.32774121077192

> <r_i_glide_ligand_efficiency_ln>
-2.69077075329464

> <r_i_glide_gscore>
-11.3520276813372

> <r_i_glide_lipo>
-5.32576114359635

> <r_i_glide_hbond>
-0.557174701727293

> <r_i_glide_metal>
0

> <r_i_glide_rewards>
-2.00152169533614

> <r_i_glide_evdw>
-34.1918525695801

> <r_i_glide_ecoul>
-16.9908142089844

> <r_i_glide_erotb>
0.990644619149277

> <r_i_glide_esite>
-0.2

> <r_i_glide_emodel>
-89.3289431427863

> <r_i_glide_energy>
-51.1826667785645

> <r_i_glide_einternal>
2.11608529090881

> <i_i_glide_confnum>
23

> <i_i_glide_posenum>
93

> <r_i_glide_eff_state_penalty>
0

> <s_user_duplicate_titles>
CHEMBL4618_lig24,187661

> <s_m_subgroup_title>
dock_pv

> <s_m_subgroupid>
dock_pv

> <b_m_subgroup_collapsed>
1

$$$$
CHEMBL4618_lig428
                    3D
 Schrodinger Suite 2021-1.
 48 51  0  0  1  0            999 V2000
    9.2734   40.6477   67.3619 C   0  0  0  0  0  0
    8.5925   41.8668   67.3903 C   0  0  0  0  0  0
    9.1289   43.0114   66.7902 C   0  0  0  0  0  0
   10.5125   40.5904   66.7383 C   0  0  0  0  0  0
   11.1495   41.7096   66.2039 C   0  0  0  0  0  0
   10.4057   42.9110   66.2118 C   0  0  0  0  0  0
   11.1895   43.8157   65.5404 N   0  0  0  0  0  0
   12.3965   43.2771   65.1883 C   0  0  0  0  0  0
   12.4246   41.9475   65.5396 C   0  0  0  0  0  0
   13.4929   40.9234   65.1657 C   0  0  0  0  0  0
   14.9637   41.4147   65.1391 C   0  0  0  0  0  0
   15.7542   41.3331   63.9388 N   0  0  0  0  0  0
    8.8124   39.4386   67.8555 O   0  0  0  0  0  0
    7.7694   39.3610   68.8284 C   0  0  0  0  0  0
    8.1745   38.3580   69.9073 C   0  0  0  0  0  0
    8.9185   38.8007   70.9897 C   0  0  0  0  0  0
    9.3794   37.9037   71.9444 C   0  0  0  0  0  0
    9.0858   36.5558   71.8877 C   0  0  0  0  0  0
    8.3165   36.1184   70.8134 C   0  0  0  0  0  0
    7.8660   36.9994   69.8222 C   0  0  0  0  0  0
    9.7246   35.6508   72.8894 C   0  0  0  0  0  0
   10.0702   36.1423   74.1594 C   0  0  0  0  0  0
   10.9149   35.4342   74.9990 C   0  0  0  0  0  0
   11.3569   34.1860   74.6040 C   0  0  0  0  0  0
   10.9188   33.6135   73.4137 C   0  0  0  0  0  0
   10.1187   34.3523   72.5474 C   0  0  0  0  0  0
    7.6111   41.9374   67.8351 H   0  0  0  0  0  0
    8.5722   43.9379   66.7846 H   0  0  0  0  0  0
   10.9220   39.6252   66.5733 H   0  0  0  0  0  0
   10.9764   44.7912   65.3881 H   0  0  0  0  0  0
   13.1253   43.8798   64.6614 H   0  0  0  0  0  0
   13.2599   40.3979   64.2407 H   0  0  0  0  0  0
   13.4347   40.1648   65.9380 H   0  0  0  0  0  0
   15.5464   40.6105   65.5380 H   0  0  0  0  0  0
   15.1530   42.3101   65.7292 H   0  0  0  0  0  0
   15.1779   41.1670   63.0963 H   0  0  0  0  0  0
   16.1473   42.2525   63.7399 H   0  0  0  0  0  0
    7.5349   40.3152   69.3026 H   0  0  0  0  0  0
    6.8640   39.0097   68.3423 H   0  0  0  0  0  0
    9.1660   39.8384   71.0731 H   0  0  0  0  0  0
   10.0381   38.2152   72.7299 H   0  0  0  0  0  0
    8.1252   35.0670   70.7449 H   0  0  0  0  0  0
    7.3206   36.6184   68.9746 H   0  0  0  0  0  0
    9.7360   37.1088   74.4897 H   0  0  0  0  0  0
   11.2287   35.8567   75.9385 H   0  0  0  0  0  0
   12.0171   33.6233   75.2463 H   0  0  0  0  0  0
   11.2342   32.6169   73.1373 H   0  0  0  0  0  0
    9.8579   33.9246   71.5915 H   0  0  0  0  0  0
  1  2  2  0  0  0
  1  4  1  0  0  0
  1 13  1  0  0  0
  2  3  1  0  0  0
  2 27  1  0  0  0
  3  6  2  0  0  0
  3 28  1  0  0  0
  4  5  2  0  0  0
  4 29  1  0  0  0
  5  6  1  0  0  0
  5  9  1  0  0  0
  6  7  1  0  0  0
  7  8  1  0  0  0
  7 30  1  0  0  0
  8  9  2  0  0  0
  8 31  1  0  0  0
  9 10  1  0  0  0
 10 11  1  0  0  0
 10 32  1  0  0  0
 10 33  1  0  0  0
 11 12  1  0  0  0
 11 34  1  0  0  0
 11 35  1  0  0  0
 12 36  1  0  0  0
 12 37  1  0  0  0
 13 14  1  0  0  0
 14 15  1  0  0  0
 14 38  1  0  0  0
 14 39  1  0  0  0
 15 16  2  0  0  0
 15 20  1  0  0  0
 16 17  1  0  0  0
 16 40  1  0  0  0
 17 18  2  0  0  0
 17 41  1  0  0  0
 18 19  1  0  0  0
 18 21  1  0  0  0
 19 20  2  0  0  0
 19 42  1  0  0  0
 20 43  1  0  0  0
 21 22  2  0  0  0
 21 26  1  0  0  0
 22 23  1  0  0  0
 22 44  1  0  0  0
 23 24  2  0  0  0
 23 45  1  0  0  0
 24 25  1  0  0  0
 24 46  1  0  0  0
 25 26  2  0  0  0
 25 47  1  0  0  0
 26 48  1  0  0  0
M  END
> <s_m_entry_id>
6592

> <s_m_entry_name>
dock_pv.22

> <s_m_Source_Path>
/home/csk/Desktop/cluster/DUD-E-result/lkha4

> <s_m_Source_File>
dock_pv.maegz

> <i_m_Source_File_Index>
22

> <chembl_id>
CHEMBL2316057

> <chembl_pref_name>
None

> <i_lp_mmshare_version>
53161

> <i_f3d_flags>
0

> <r_lp_tautomer_probability>
1

> <s_lp_Force_Field>
OPLS_2005

> <r_lp_Energy>
23.002559

> <b_lp_Chiralities_Consistent>
1

> <s_lp_Variant>
CHEMBL4618_lig428-1

> <s_i_glide_gridfile>
glide-grid_3chp

> <i_i_glide_lignum>
495

> <i_i_glide_rotatable_bonds>
6

> <r_i_docking_score>
-11.3259500145627

> <r_i_glide_ligand_efficiency>
-0.435613462098565

> <r_i_glide_ligand_efficiency_sa>
-1.29050316741079

> <r_i_glide_ligand_efficiency_ln>
-2.65986219744686

> <r_i_glide_gscore>
-11.3259500145627

> <r_i_glide_lipo>
-6.35089195974746

> <r_i_glide_hbond>
-0.16

> <r_i_glide_metal>
0

> <r_i_glide_rewards>
-1.94948503463937

> <r_i_glide_evdw>
-40.2303619384766

> <r_i_glide_ecoul>
-11.0840921401978

> <r_i_glide_erotb>
0.808558897777628

> <r_i_glide_esite>
0

> <r_i_glide_emodel>
-64.5198283706203

> <r_i_glide_energy>
-51.3144540786743

> <r_i_glide_einternal>
9.00037956237793

> <i_i_glide_confnum>
136

> <i_i_glide_posenum>
174

> <r_i_glide_eff_state_penalty>
0

> <s_user_duplicate_titles>
CHEMBL4618_lig428

> <s_m_subgroup_title>
dock_pv

> <s_m_subgroupid>
dock_pv

> <b_m_subgroup_collapsed>
1

$$$$
CHEMBL4618_lig188
                    3D
 Schrodinger Suite 2021-1.
 46 47  0  0  1  0            999 V2000
    8.9323   35.4526   71.8317 C   0  0  0  0  0  0
    9.5836   36.2341   72.7767 C   0  0  0  0  0  0
    9.6116   37.6169   72.6329 C   0  0  0  0  0  0
    8.9658   38.2268   71.5548 C   0  0  0  0  0  0
    8.3229   37.4510   70.5963 C   0  0  0  0  0  0
    8.3293   36.0692   70.7406 C   0  0  0  0  0  0
    7.5595   38.0538   69.4209 C   0  0  0  0  0  0
    7.6239   39.4837   69.3707 O   0  0  0  0  0  0
    8.4203   40.1454   68.4580 C   0  0  0  0  0  0
    8.3544   41.5424   68.4603 C   0  0  0  0  0  0
    9.1883   42.2961   67.6326 C   0  0  0  0  0  0
   10.1013   41.6381   66.8017 C   0  0  0  0  0  0
   10.1183   40.2537   66.7426 C   0  0  0  0  0  0
    9.2818   39.5067   67.5608 C   0  0  0  0  0  0
   11.0969   42.2863   66.0680 N   0  0  0  0  0  0
   10.9876   43.4055   65.3367 C   0  0  0  0  0  0
    9.9183   43.9785   65.1401 O   0  0  0  0  0  0
   12.2598   43.8622   64.5978 C   0  0  0  0  0  0
   13.6342   43.3844   65.1722 C   0  0  0  0  0  0
   14.4309   42.4830   64.1969 C   0  0  1  0  0  0
   15.8482   42.1564   64.7381 C   0  0  0  0  0  0
   13.7217   41.2157   63.9403 N   0  0  0  0  0  0
   16.7215   43.1718   64.7409 N   0  0  0  0  0  0
   16.1212   41.0163   65.1387 O   0  0  0  0  0  0
   18.0451   42.9355   65.1390 O   0  0  0  0  0  0
    8.9075   34.3768   71.9302 H   0  0  0  0  0  0
   10.0654   35.7680   73.6239 H   0  0  0  0  0  0
   10.1119   38.2154   73.3788 H   0  0  0  0  0  0
    8.9334   39.3037   71.4795 H   0  0  0  0  0  0
    7.8531   35.4614   69.9955 H   0  0  0  0  0  0
    6.5212   37.8123   69.6143 H   0  0  0  0  0  0
    7.7900   37.5449   68.4864 H   0  0  0  0  0  0
    7.6687   42.0440   69.1290 H   0  0  0  0  0  0
    9.1531   43.3755   67.6725 H   0  0  0  0  0  0
   10.8030   39.7573   66.0717 H   0  0  0  0  0  0
    9.3619   38.4342   67.5052 H   0  0  0  0  0  0
   11.9497   41.7625   65.9346 H   0  0  0  0  0  0
   12.2681   44.9466   64.5088 H   0  0  0  0  0  0
   12.1486   43.5108   63.5701 H   0  0  0  0  0  0
   13.5358   42.8771   66.1336 H   0  0  0  0  0  0
   14.2157   44.2741   65.4122 H   0  0  0  0  0  0
   14.5461   43.0163   63.2520 H   0  0  0  0  0  0
   14.0081   40.9133   62.9994 H   0  0  0  0  0  0
   14.0379   40.4845   64.5686 H   0  0  0  0  0  0
   16.5922   44.0579   64.2596 H   0  0  0  0  0  0
   18.5225   42.9793   64.2923 H   0  0  0  0  0  0
  1  6  1  0  0  0
  1  2  2  0  0  0
  1 26  1  0  0  0
  2  3  1  0  0  0
  2 27  1  0  0  0
  3  4  2  0  0  0
  3 28  1  0  0  0
  4  5  1  0  0  0
  4 29  1  0  0  0
  5  7  1  0  0  0
  5  6  2  0  0  0
  6 30  1  0  0  0
  7  8  1  0  0  0
  7 31  1  0  0  0
  7 32  1  0  0  0
  8  9  1  0  0  0
  9 14  1  0  0  0
  9 10  2  0  0  0
 10 11  1  0  0  0
 10 33  1  0  0  0
 11 12  2  0  0  0
 11 34  1  0  0  0
 12 13  1  0  0  0
 12 15  1  0  0  0
 13 14  2  0  0  0
 13 35  1  0  0  0
 14 36  1  0  0  0
 15 16  1  0  0  0
 15 37  1  0  0  0
 16 17  2  0  0  0
 16 18  1  0  0  0
 18 19  1  0  0  0
 18 38  1  0  0  0
 18 39  1  0  0  0
 19 20  1  0  0  0
 19 40  1  0  0  0
 19 41  1  0  0  0
 20 21  1  0  0  0
 20 22  1  0  0  0
 20 42  1  0  0  0
 21 23  1  0  0  0
 21 24  2  0  0  0
 22 43  1  0  0  0
 22 44  1  0  0  0
 23 25  1  0  0  0
 23 45  1  0  0  0
 25 46  1  0  0  0
M  END
> <s_m_entry_id>
6593

> <s_m_entry_name>
dock_pv.23

> <s_m_Source_Path>
/home/csk/Desktop/cluster/DUD-E-result/lkha4

> <s_m_Source_File>
dock_pv.maegz

> <i_m_Source_File_Index>
23

> <chembl_id>
CHEMBL479156

> <chembl_pref_name>
None

> <i_lp_mmshare_version>
53161

> <i_f3d_flags>
0

> <r_lp_tautomer_probability>
1

> <s_lp_Force_Field>
OPLS_2005

> <r_lp_Energy>
31.223045

> <b_lp_Chiralities_Consistent>
1

> <s_lp_Variant>
CHEMBL4618_lig188-1

> <s_i_glide_gridfile>
glide-grid_3chp

> <i_i_glide_lignum>
215

> <i_i_glide_rotatable_bonds>
11

> <r_i_docking_score>
-11.306844739301

> <r_i_glide_ligand_efficiency>
-0.452273789572041

> <r_i_glide_ligand_efficiency_sa>
-1.32245658181846

> <r_i_glide_ligand_efficiency_ln>
-2.68006104200857

> <r_i_glide_gscore>
-11.306844739301

> <r_i_glide_lipo>
-4.66943221366599

> <r_i_glide_hbond>
-1.18000123781382

> <r_i_glide_metal>
0

> <r_i_glide_rewards>
-1.41980848290274

> <r_i_glide_evdw>
-32.7151222229004

> <r_i_glide_ecoul>
-25.4072647094727

> <r_i_glide_erotb>
1.60924301264746

> <r_i_glide_esite>
-0.2

> <r_i_glide_emodel>
-96.2132061781533

> <r_i_glide_energy>
-58.122386932373

> <r_i_glide_einternal>
14.0602416992188

> <i_i_glide_confnum>
61

> <i_i_glide_posenum>
371

> <r_i_glide_eff_state_penalty>
0

> <s_user_duplicate_titles>
CHEMBL4618_lig188,507020

> <s_m_subgroup_title>
dock_pv

> <s_m_subgroupid>
dock_pv

> <b_m_subgroup_collapsed>
1

$$$$
CHEMBL4618_lig39
                    3D
 Schrodinger Suite 2021-1.
 54 56  0  0  1  0            999 V2000
   11.0586   43.0719   66.0348 N   0  0  1  0  0  0
   16.2000   42.2150   64.9256 C   0  0  0  0  0  0
   15.1334   42.9856   64.7367 N   0  0  0  0  0  0
   16.1212   41.0160   65.1398 O   0  0  0  0  0  0
   13.2177   41.8288   66.0207 C   0  0  0  0  0  0
   12.8818   43.8422   64.5364 C   0  0  0  0  0  0
   13.7251   42.5904   64.7602 C   0  0  0  0  0  0
   11.6737   41.7503   66.1977 C   0  0  0  0  0  0
   11.3868   43.6362   64.7372 C   0  0  0  0  0  0
    8.1484   37.8717   69.2841 C   0  0  0  0  0  0
    7.9681   36.6339   70.1466 C   0  0  0  0  0  0
    8.5237   40.1386   67.7220 C   0  0  0  0  0  0
    8.5171   37.7551   67.9523 C   0  0  0  0  0  0
    7.9180   39.1290   69.8143 C   0  0  0  0  0  0
    8.1198   40.2737   69.0546 C   0  0  0  0  0  0
    8.6897   38.8794   67.1637 C   0  0  0  0  0  0
    8.8450   36.4781   71.3933 C   0  0  0  0  0  0
    8.7707   41.1796   66.8737 O   0  0  0  0  0  0
    9.6037   43.2266   66.2223 C   0  0  0  0  0  0
    8.9839   42.4753   67.3982 C   0  0  0  0  0  0
   17.5629   42.8847   64.9139 C   0  0  0  0  0  0
    8.9690   35.2053   71.9526 C   0  0  0  0  0  0
    9.5346   37.5480   71.9789 C   0  0  0  0  0  0
    9.7215   35.0135   73.1086 C   0  0  0  0  0  0
   10.2619   37.3641   73.1447 C   0  0  0  0  0  0
   10.3399   36.0984   73.7197 C   0  0  0  0  0  0
   15.3149   43.8727   64.2718 H   0  0  0  0  0  0
   13.6063   40.8099   66.0083 H   0  0  0  0  0  0
   13.6099   42.3056   66.9181 H   0  0  0  0  0  0
   13.1892   44.6159   65.2330 H   0  0  0  0  0  0
   13.0584   44.2272   63.5305 H   0  0  0  0  0  0
   13.5223   41.9400   63.9050 H   0  0  0  0  0  0
   11.2184   41.0157   65.5398 H   0  0  0  0  0  0
   11.4543   41.3933   67.2030 H   0  0  0  0  0  0
   10.9247   43.0717   63.9274 H   0  0  0  0  0  0
   10.9391   44.6161   64.7410 H   0  0  0  0  0  0
    6.9213   36.6168   70.4388 H   0  0  0  0  0  0
    8.1147   35.7560   69.5249 H   0  0  0  0  0  0
    8.6816   36.7793   67.5403 H   0  0  0  0  0  0
    7.6309   39.1909   70.8467 H   0  0  0  0  0  0
    7.9597   41.2422   69.5040 H   0  0  0  0  0  0
    8.9924   38.7744   66.1312 H   0  0  0  0  0  0
    9.3699   44.2827   66.3395 H   0  0  0  0  0  0
    9.0801   42.9180   65.3158 H   0  0  0  0  0  0
    9.6421   42.4880   68.2690 H   0  0  0  0  0  0
    8.0277   42.9227   67.6800 H   0  0  0  0  0  0
   17.9312   43.0124   65.9342 H   0  0  0  0  0  0
   17.5208   43.8641   64.4360 H   0  0  0  0  0  0
   18.2758   42.2650   64.3630 H   0  0  0  0  0  0
    8.4684   34.3560   71.5143 H   0  0  0  0  0  0
    9.5346   38.5381   71.5606 H   0  0  0  0  0  0
    9.8045   34.0275   73.5430 H   0  0  0  0  0  0
   10.7700   38.2021   73.5999 H   0  0  0  0  0  0
   10.9070   35.9541   74.6278 H   0  0  0  0  0  0
  1  8  1  0  0  0
  1  9  1  0  0  0
  1 19  1  0  0  0
  2  3  1  0  0  0
  2  4  2  0  0  0
  2 21  1  0  0  0
  3  7  1  0  0  0
  3 27  1  0  0  0
  5  8  1  0  0  0
  5  7  1  0  0  0
  5 28  1  0  0  0
  5 29  1  0  0  0
  6  9  1  0  0  0
  6  7  1  0  0  0
  6 30  1  0  0  0
  6 31  1  0  0  0
  7 32  1  0  0  0
  8 33  1  0  0  0
  8 34  1  0  0  0
  9 35  1  0  0  0
  9 36  1  0  0  0
 10 13  2  0  0  0
 10 11  1  0  0  0
 10 14  1  0  0  0
 11 17  1  0  0  0
 11 37  1  0  0  0
 11 38  1  0  0  0
 12 18  1  0  0  0
 12 15  1  0  0  0
 12 16  2  0  0  0
 13 16  1  0  0  0
 13 39  1  0  0  0
 14 15  2  0  0  0
 14 40  1  0  0  0
 15 41  1  0  0  0
 16 42  1  0  0  0
 17 22  2  0  0  0
 17 23  1  0  0  0
 18 20  1  0  0  0
 19 20  1  0  0  0
 19 43  1  0  0  0
 19 44  1  0  0  0
 20 45  1  0  0  0
 20 46  1  0  0  0
 21 47  1  0  0  0
 21 48  1  0  0  0
 21 49  1  0  0  0
 22 24  1  0  0  0
 22 50  1  0  0  0
 23 25  2  0  0  0
 23 51  1  0  0  0
 24 26  2  0  0  0
 24 52  1  0  0  0
 25 26  1  0  0  0
 25 53  1  0  0  0
 26 54  1  0  0  0
M  END
> <s_m_entry_id>
6594

> <s_m_entry_name>
dock_pv.24

> <s_m_Source_Path>
/home/csk/Desktop/cluster/DUD-E-result/lkha4

> <s_m_Source_File>
dock_pv.maegz

> <i_m_Source_File_Index>
24

> <chembl_id>
CHEMBL114563

> <chembl_pref_name>
None

> <i_lp_mmshare_version>
53161

> <i_f3d_flags>
0

> <r_lp_tautomer_probability>
1

> <s_lp_Force_Field>
OPLS_2005

> <r_lp_Energy>
27.130139

> <b_lp_Chiralities_Consistent>
1

> <s_lp_Variant>
CHEMBL4618_lig39-1

> <s_i_glide_gridfile>
glide-grid_3chp

> <i_i_glide_lignum>
54

> <i_i_glide_rotatable_bonds>
8

> <r_i_docking_score>
-11.286228661814

> <r_i_glide_ligand_efficiency>
-0.434085717762079

> <r_i_glide_ligand_efficiency_sa>
-1.28597723082534

> <r_i_glide_ligand_efficiency_ln>
-2.65053376809023

> <r_i_glide_gscore>
-11.286228661814

> <r_i_glide_lipo>
-5.6993994698092

> <r_i_glide_hbond>
-0.550568525398697

> <r_i_glide_metal>
0

> <r_i_glide_rewards>
-1.89024557011201

> <r_i_glide_evdw>
-37.2343368530273

> <r_i_glide_ecoul>
-14.3976964950562

> <r_i_glide_erotb>
1.07535622041565

> <r_i_glide_esite>
-0.2

> <r_i_glide_emodel>
-83.1618647858315

> <r_i_glide_energy>
-51.6320333480835

> <r_i_glide_einternal>
14.4339294433594

> <i_i_glide_confnum>
21

> <i_i_glide_posenum>
145

> <r_i_glide_eff_state_penalty>
0

> <s_user_duplicate_titles>
CHEMBL4618_lig39,188255

> <s_m_subgroup_title>
dock_pv

> <s_m_subgroupid>
dock_pv

> <b_m_subgroup_collapsed>
1

$$$$
CHEMBL4618_lig320
                    3D
 Schrodinger Suite 2021-1.
 59 63  0  0  1  0            999 V2000
   13.3267   42.9929   65.5068 N   0  0  1  0  0  0
   14.5539   42.7645   64.7377 C   0  0  0  0  0  0
   15.8403   43.0836   65.5095 C   0  0  0  0  0  0
   15.8264   43.8175   66.6969 C   0  0  0  0  0  0
   17.0102   44.2376   67.2911 C   0  0  0  0  0  0
   18.2439   43.9302   66.7088 C   0  0  0  0  0  0
   18.2614   43.1544   65.5401 C   0  0  0  0  0  0
   17.0687   42.7370   64.9491 C   0  0  0  0  0  0
   19.5068   44.5081   67.3023 C   0  0  0  0  0  0
   20.6667   43.9624   66.8395 O   0  0  0  0  0  0
   19.4821   45.4160   68.1371 O   0  0  0  0  0  0
   12.2366   43.5614   64.7386 C   0  0  0  0  0  0
   10.9834   43.3365   65.5890 C   0  0  0  0  0  0
   11.3161   42.1575   66.5160 C   0  0  2  0  0  0
   12.7179   41.7805   66.0143 C   0  0  0  0  0  0
    9.4648   36.0952   72.6083 C   0  0  0  0  0  0
    8.8171   35.4733   71.5400 C   0  0  0  0  0  0
    8.1217   36.2481   70.6088 C   0  0  0  0  0  0
    8.0494   37.6234   70.7640 C   0  0  0  0  0  0
    8.6603   38.2357   71.8396 C   0  0  0  0  0  0
    9.3935   37.4785   72.7397 C   0  0  0  0  0  0
    7.3203   38.3735   69.8902 O   0  0  0  0  0  0
    7.9675   39.1086   68.9447 C   0  0  0  0  0  0
    8.4115   38.4694   67.7975 C   0  0  0  0  0  0
    9.1397   39.1877   66.8691 C   0  0  0  0  0  0
    9.4833   40.5098   67.1313 C   0  0  0  0  0  0
    8.9210   41.1954   68.2028 C   0  0  0  0  0  0
    8.1429   40.4841   69.1054 C   0  0  0  0  0  0
   10.4148   41.0568   66.2612 N   0  0  0  0  0  0
   10.2499   35.3359   73.6136 C   0  0  0  0  0  0
   10.7854   34.1405   73.2543 O   0  0  0  0  0  0
   11.5073   33.7828   74.3399 C   0  0  0  0  0  0
   11.3210   34.7575   75.2948 C   0  0  0  0  0  0
   10.5569   35.7256   74.8327 N   0  0  0  0  0  0
   14.5440   43.4147   63.8629 H   0  0  0  0  0  0
   14.5952   41.7477   64.3439 H   0  0  0  0  0  0
   14.8904   44.1223   67.1395 H   0  0  0  0  0  0
   16.9497   44.8292   68.1943 H   0  0  0  0  0  0
   19.1783   42.9234   65.0147 H   0  0  0  0  0  0
   17.1085   42.2263   63.9966 H   0  0  0  0  0  0
   20.5029   43.2470   66.2237 H   0  0  0  0  0  0
   12.4451   44.6182   64.5698 H   0  0  0  0  0  0
   12.1567   43.1201   63.7439 H   0  0  0  0  0  0
   10.7519   44.2160   66.1786 H   0  0  0  0  0  0
   10.1173   43.1589   64.9517 H   0  0  0  0  0  0
   11.3344   42.5310   67.5403 H   0  0  0  0  0  0
   12.6756   41.0337   65.2166 H   0  0  0  0  0  0
   13.3211   41.2515   66.7406 H   0  0  0  0  0  0
    8.8526   34.3992   71.4274 H   0  0  0  0  0  0
    7.6199   35.8160   69.7610 H   0  0  0  0  0  0
    8.5424   39.3028   71.9560 H   0  0  0  0  0  0
    9.9086   37.9788   73.5400 H   0  0  0  0  0  0
    8.2233   37.4183   67.6438 H   0  0  0  0  0  0
    9.5178   38.6752   65.9954 H   0  0  0  0  0  0
    9.1213   42.2445   68.3627 H   0  0  0  0  0  0
    7.7210   41.0052   69.9401 H   0  0  0  0  0  0
   10.7214   40.4298   65.5290 H   0  0  0  0  0  0
   12.0309   32.8384   74.3118 H   0  0  0  0  0  0
   11.7210   34.7543   76.2983 H   0  0  0  0  0  0
  1 12  1  0  0  0
  1  2  1  0  0  0
  1 15  1  0  0  0
  2  3  1  0  0  0
  2 35  1  0  0  0
  2 36  1  0  0  0
  3  4  2  0  0  0
  3  8  1  0  0  0
  4  5  1  0  0  0
  4 37  1  0  0  0
  5  6  2  0  0  0
  5 38  1  0  0  0
  6  9  1  0  0  0
  6  7  1  0  0  0
  7  8  2  0  0  0
  7 39  1  0  0  0
  8 40  1  0  0  0
  9 10  1  0  0  0
  9 11  2  0  0  0
 10 41  1  0  0  0
 12 13  1  0  0  0
 12 42  1  0  0  0
 12 43  1  0  0  0
 13 14  1  0  0  0
 13 44  1  0  0  0
 13 45  1  0  0  0
 14 15  1  0  0  0
 14 29  1  0  0  0
 14 46  1  0  0  0
 15 47  1  0  0  0
 15 48  1  0  0  0
 16 17  2  0  0  0
 16 21  1  0  0  0
 16 30  1  0  0  0
 17 18  1  0  0  0
 17 49  1  0  0  0
 18 19  2  0  0  0
 18 50  1  0  0  0
 19 20  1  0  0  0
 19 22  1  0  0  0
 20 21  2  0  0  0
 20 51  1  0  0  0
 21 52  1  0  0  0
 22 23  1  0  0  0
 23 24  2  0  0  0
 23 28  1  0  0  0
 24 25  1  0  0  0
 24 53  1  0  0  0
 25 26  2  0  0  0
 25 54  1  0  0  0
 26 27  1  0  0  0
 26 29  1  0  0  0
 27 28  2  0  0  0
 27 55  1  0  0  0
 28 56  1  0  0  0
 29 57  1  0  0  0
 30 31  1  0  0  0
 30 34  2  0  0  0
 31 32  1  0  0  0
 32 33  2  0  0  0
 32 58  1  0  0  0
 33 34  1  0  0  0
 33 59  1  0  0  0
M  END
> <s_m_entry_id>
6595

> <s_m_entry_name>
dock_pv.25

> <s_m_Source_Path>
/home/csk/Desktop/cluster/DUD-E-result/lkha4

> <s_m_Source_File>
dock_pv.maegz

> <i_m_Source_File_Index>
25

> <chembl_id>
CHEMBL479956

> <chembl_pref_name>
None

> <i_lp_mmshare_version>
53161

> <i_f3d_flags>
0

> <r_lp_tautomer_probability>
1

> <s_lp_Force_Field>
OPLS_2005

> <r_lp_Energy>
44.471548

> <b_lp_Chiralities_Consistent>
1

> <s_lp_Variant>
CHEMBL4618_lig320-1

> <s_i_glide_gridfile>
glide-grid_3chp

> <i_i_glide_lignum>
359

> <i_i_glide_rotatable_bonds>
9

> <r_i_docking_score>
-11.2395449124996

> <r_i_glide_ligand_efficiency>
-0.330574850367635

> <r_i_glide_ligand_efficiency_sa>
-1.0709341851977

> <r_i_glide_ligand_efficiency_ln>
-2.48313072972744

> <r_i_glide_gscore>
-11.2395449124996

> <r_i_glide_lipo>
-5.87313932577002

> <r_i_glide_hbond>
-0.16

> <r_i_glide_metal>
0

> <r_i_glide_rewards>
-1.15324422953319

> <r_i_glide_evdw>
-62.3733520507812

> <r_i_glide_ecoul>
-11.1025047302246

> <r_i_glide_erotb>
0.774595156467523

> <r_i_glide_esite>
-0.0437132015911526

> <r_i_glide_emodel>
-110.553756006266

> <r_i_glide_energy>
-73.4758567810059

> <r_i_glide_einternal>
8.60109519958496

> <i_i_glide_confnum>
24

> <i_i_glide_posenum>
327

> <r_i_glide_eff_state_penalty>
0

> <s_user_duplicate_titles>
CHEMBL4618_lig320,467399

> <s_m_subgroup_title>
dock_pv

> <s_m_subgroupid>
dock_pv

> <b_m_subgroup_collapsed>
1

$$$$
CHEMBL4618_lig209
                    3D
 Schrodinger Suite 2021-1.
 49 51  0  0  1  0            999 V2000
   10.9165   42.7329   65.8058 C   0  0  0  0  0  0
   11.9204   42.2610   66.6424 C   0  0  0  0  0  0
   13.2568   42.4683   66.3400 C   0  0  0  0  0  0
   13.6233   43.0958   65.1608 C   0  0  0  0  0  0
   12.6345   43.6013   64.3249 C   0  0  0  0  0  0
   11.2902   43.4160   64.6556 C   0  0  0  0  0  0
   14.9590   43.3927   64.9003 N   0  0  0  0  0  0
   16.0635   42.6497   65.1340 C   0  0  0  0  0  0
   16.1210   41.4157   65.1400 O   0  0  0  0  0  0
   17.3206   43.4646   65.4583 C   0  0  0  0  0  0
   17.0573   44.5514   66.5465 C   0  0  0  0  0  0
   18.0223   44.5810   67.7521 C   0  0  1  0  0  0
   17.5730   45.6762   68.7602 C   0  0  0  0  0  0
   18.1224   43.2790   68.4485 N   0  0  0  0  0  0
   16.5530   45.4160   69.5854 N   0  0  0  0  0  0
   18.1210   46.7765   68.7400 O   0  0  0  0  0  0
    9.5727   42.5823   66.0955 O   0  0  0  0  0  0
    9.1601   41.5972   66.9695 C   0  0  0  0  0  0
    9.4779   40.2576   66.7400 C   0  0  0  0  0  0
    9.0893   39.2728   67.6307 C   0  0  0  0  0  0
    8.4642   39.6170   68.8222 C   0  0  0  0  0  0
    8.1207   40.9559   69.0419 C   0  0  0  0  0  0
    8.4415   41.9410   68.1095 C   0  0  0  0  0  0
    8.2903   38.5274   69.8285 C   0  0  0  0  0  0
    8.3728   38.6160   71.2126 C   0  0  0  0  0  0
    8.2707   37.4018   71.8065 O   0  0  0  0  0  0
    8.1210   36.5064   70.8052 C   0  0  0  0  0  0
    8.0953   37.1595   69.5869 C   0  0  0  0  0  0
   11.6506   41.7471   67.5404 H   0  0  0  0  0  0
   14.0079   42.2160   67.0569 H   0  0  0  0  0  0
   12.9076   44.1373   63.4268 H   0  0  0  0  0  0
   10.5219   43.8007   64.0094 H   0  0  0  0  0  0
   15.1275   44.2767   64.4310 H   0  0  0  0  0  0
   17.7210   43.9103   64.5464 H   0  0  0  0  0  0
   18.1061   42.7821   65.7866 H   0  0  0  0  0  0
   16.0422   44.4729   66.9449 H   0  0  0  0  0  0
   17.0695   45.5145   66.0413 H   0  0  0  0  0  0
   19.0109   44.8600   67.3827 H   0  0  0  0  0  0
   18.6837   43.3207   69.2879 H   0  0  0  0  0  0
   17.2257   42.8880   68.7000 H   0  0  0  0  0  0
   16.0581   44.5304   69.5400 H   0  0  0  0  0  0
   16.2451   46.1230   70.2340 H   0  0  0  0  0  0
   10.0652   39.9702   65.8888 H   0  0  0  0  0  0
    9.3561   38.2469   67.4254 H   0  0  0  0  0  0
    7.6274   41.2625   69.9400 H   0  0  0  0  0  0
    8.1774   42.9731   68.2943 H   0  0  0  0  0  0
    8.5210   39.4437   71.8871 H   0  0  0  0  0  0
    8.0370   35.4685   71.0951 H   0  0  0  0  0  0
    7.9897   36.6882   68.6209 H   0  0  0  0  0  0
  1 17  1  0  0  0
  1  6  1  0  0  0
  1  2  2  0  0  0
  2  3  1  0  0  0
  2 29  1  0  0  0
  3  4  2  0  0  0
  3 30  1  0  0  0
  4  7  1  0  0  0
  4  5  1  0  0  0
  5  6  2  0  0  0
  5 31  1  0  0  0
  6 32  1  0  0  0
  7  8  1  0  0  0
  7 33  1  0  0  0
  8  9  2  0  0  0
  8 10  1  0  0  0
 10 11  1  0  0  0
 10 34  1  0  0  0
 10 35  1  0  0  0
 11 12  1  0  0  0
 11 36  1  0  0  0
 11 37  1  0  0  0
 12 14  1  0  0  0
 12 13  1  0  0  0
 12 38  1  0  0  0
 13 15  1  0  0  0
 13 16  2  0  0  0
 14 39  1  0  0  0
 14 40  1  0  0  0
 15 41  1  0  0  0
 15 42  1  0  0  0
 17 18  1  0  0  0
 18 19  2  0  0  0
 18 23  1  0  0  0
 19 20  1  0  0  0
 19 43  1  0  0  0
 20 21  2  0  0  0
 20 44  1  0  0  0
 21 22  1  0  0  0
 21 24  1  0  0  0
 22 23  2  0  0  0
 22 45  1  0  0  0
 23 46  1  0  0  0
 24 25  2  0  0  0
 24 28  1  0  0  0
 25 26  1  0  0  0
 25 47  1  0  0  0
 26 27  1  0  0  0
 27 28  2  0  0  0
 27 48  1  0  0  0
 28 49  1  0  0  0
M  END
> <s_m_entry_id>
6596

> <s_m_entry_name>
dock_pv.26

> <s_m_Source_Path>
/home/csk/Desktop/cluster/DUD-E-result/lkha4

> <s_m_Source_File>
dock_pv.maegz

> <i_m_Source_File_Index>
26

> <chembl_id>
CHEMBL515470

> <chembl_pref_name>
None

> <i_lp_mmshare_version>
53161

> <i_f3d_flags>
0

> <r_lp_tautomer_probability>
1

> <s_lp_Force_Field>
OPLS_2005

> <r_lp_Energy>
15.314071

> <b_lp_Chiralities_Consistent>
1

> <s_lp_Variant>
CHEMBL4618_lig209-1

> <s_i_glide_gridfile>
glide-grid_3chp

> <i_i_glide_lignum>
237

> <i_i_glide_rotatable_bonds>
9

> <r_i_docking_score>
-11.2050782270796

> <r_i_glide_ligand_efficiency>
-0.400181365252844

> <r_i_glide_ligand_efficiency_sa>
-1.21518631912718

> <r_i_glide_ligand_efficiency_ln>
-2.58646105020247

> <r_i_glide_gscore>
-11.2050782270796

> <r_i_glide_lipo>
-4.66466081649429

> <r_i_glide_hbond>
-1.07692564701651

> <r_i_glide_metal>
0

> <r_i_glide_rewards>
-1.3091259577483

> <r_i_glide_evdw>
-44.9588775634766

> <r_i_glide_ecoul>
-17.9039363861084

> <r_i_glide_erotb>
1.07756126841296

> <r_i_glide_esite>
-0.298392738143407

> <r_i_glide_emodel>
-96.1934117426838

> <r_i_glide_energy>
-62.862813949585

> <r_i_glide_einternal>
15.0628900527954

> <i_i_glide_confnum>
14

> <i_i_glide_posenum>
400

> <r_i_glide_eff_state_penalty>
0

> <s_user_duplicate_titles>
CHEMBL4618_lig209,507024

> <s_m_subgroup_title>
dock_pv

> <s_m_subgroupid>
dock_pv

> <b_m_subgroup_collapsed>
1

$$$$
CHEMBL4618_lig207
                    3D
 Schrodinger Suite 2021-1.
 48 49  0  0  1  0            999 V2000
    8.1209   39.5893   68.5508 C   0  0  0  0  0  0
    8.8881   39.0161   67.5408 C   0  0  0  0  0  0
    9.7209   39.8164   66.7731 C   0  0  0  0  0  0
    9.8010   41.1803   67.0188 C   0  0  0  0  0  0
    8.9661   41.7809   67.9691 C   0  0  0  0  0  0
    8.1220   40.9756   68.7383 C   0  0  0  0  0  0
   10.8178   41.8539   66.3398 N   0  0  0  0  0  0
   10.7480   43.0387   65.7149 C   0  0  0  0  0  0
    9.7210   43.7078   65.6149 O   0  0  0  0  0  0
   12.0191   43.5311   65.0052 C   0  0  0  0  0  0
   13.4037   43.0511   65.5434 C   0  0  0  0  0  0
   14.3060   42.4803   64.4228 C   0  0  2  0  0  0
   13.7445   41.2048   63.9400 N   0  0  0  0  0  0
    7.3305   38.7820   69.3308 O   0  0  0  0  0  0
    7.9468   38.0039   70.2822 C   0  0  0  0  0  0
    8.5598   38.5899   71.3869 C   0  0  0  0  0  0
    9.1820   37.7886   72.3412 C   0  0  0  0  0  0
    9.1502   36.4066   72.2254 C   0  0  0  0  0  0
    8.5210   35.8160   71.1400 C   0  0  0  0  0  0
    7.9328   36.6160   70.1593 C   0  0  0  0  0  0
   15.7515   42.2160   64.9170 C   0  0  0  0  0  0
   16.1300   41.0572   65.1400 O   0  0  0  0  0  0
   16.5211   43.2918   65.1400 N   0  0  0  0  0  0
   17.9175   43.2638   65.5987 C   0  0  0  0  0  0
   18.1718   44.4130   66.5921 C   0  0  0  0  0  0
   19.5020   44.4816   66.8920 O   0  0  0  0  0  0
   17.3208   45.1615   67.0312 O   0  0  0  0  0  0
    8.8580   37.9496   67.3717 H   0  0  0  0  0  0
   10.3350   39.3779   66.0019 H   0  0  0  0  0  0
    9.0075   42.8464   68.1469 H   0  0  0  0  0  0
    7.4944   41.4187   69.4982 H   0  0  0  0  0  0
   11.6436   41.3079   66.1464 H   0  0  0  0  0  0
   12.0146   44.6160   64.9717 H   0  0  0  0  0  0
   11.9041   43.2466   63.9592 H   0  0  0  0  0  0
   13.3114   42.3200   66.3480 H   0  0  0  0  0  0
   13.8854   43.9079   66.0183 H   0  0  0  0  0  0
   14.3545   43.1909   63.5970 H   0  0  0  0  0  0
   14.1211   41.0162   62.9986 H   0  0  0  0  0  0
   14.0417   40.4288   64.5222 H   0  0  0  0  0  0
    8.5391   39.6633   71.4988 H   0  0  0  0  0  0
    9.6801   38.2160   73.1928 H   0  0  0  0  0  0
    9.6188   35.7899   72.9787 H   0  0  0  0  0  0
    8.5210   34.7397   71.0614 H   0  0  0  0  0  0
    7.4637   36.1595   69.3052 H   0  0  0  0  0  0
   16.1645   44.1849   64.8179 H   0  0  0  0  0  0
   18.5770   43.3782   64.7401 H   0  0  0  0  0  0
   18.1766   42.3199   66.0815 H   0  0  0  0  0  0
   20.0267   43.8166   66.4402 H   0  0  0  0  0  0
  1  2  2  0  0  0
  1 14  1  0  0  0
  1  6  1  0  0  0
  2  3  1  0  0  0
  2 28  1  0  0  0
  3  4  2  0  0  0
  3 29  1  0  0  0
  4  7  1  0  0  0
  4  5  1  0  0  0
  5  6  2  0  0  0
  5 30  1  0  0  0
  6 31  1  0  0  0
  7  8  1  0  0  0
  7 32  1  0  0  0
  8  9  2  0  0  0
  8 10  1  0  0  0
 10 11  1  0  0  0
 10 33  1  0  0  0
 10 34  1  0  0  0
 11 12  1  0  0  0
 11 35  1  0  0  0
 11 36  1  0  0  0
 12 21  1  0  0  0
 12 13  1  0  0  0
 12 37  1  0  0  0
 13 38  1  0  0  0
 13 39  1  0  0  0
 14 15  1  0  0  0
 15 16  2  0  0  0
 15 20  1  0  0  0
 16 17  1  0  0  0
 16 40  1  0  0  0
 17 18  2  0  0  0
 17 41  1  0  0  0
 18 19  1  0  0  0
 18 42  1  0  0  0
 19 20  2  0  0  0
 19 43  1  0  0  0
 20 44  1  0  0  0
 21 22  2  0  0  0
 21 23  1  0  0  0
 23 24  1  0  0  0
 23 45  1  0  0  0
 24 25  1  0  0  0
 24 46  1  0  0  0
 24 47  1  0  0  0
 25 26  1  0  0  0
 25 27  2  0  0  0
 26 48  1  0  0  0
M  END
> <s_m_entry_id>
6598

> <s_m_entry_name>
dock_pv.28

> <s_m_Source_Path>
/home/csk/Desktop/cluster/DUD-E-result/lkha4

> <s_m_Source_File>
dock_pv.maegz

> <i_m_Source_File_Index>
28

> <chembl_id>
CHEMBL478994

> <chembl_pref_name>
None

> <i_lp_mmshare_version>
53161

> <i_f3d_flags>
0

> <r_lp_tautomer_probability>
1

> <s_lp_Force_Field>
OPLS_2005

> <r_lp_Energy>
19.253192

> <b_lp_Chiralities_Consistent>
1

> <s_lp_Variant>
CHEMBL4618_lig207-1

> <s_i_glide_gridfile>
glide-grid_3chp

> <i_i_glide_lignum>
235

> <i_i_glide_rotatable_bonds>
12

> <r_i_docking_score>
-11.071317262129

> <r_i_glide_ligand_efficiency>
-0.410048787486259

> <r_i_glide_ligand_efficiency_sa>
-1.23014636110732

> <r_i_glide_ligand_efficiency_ln>
-2.57722013369346

> <r_i_glide_gscore>
-11.071317262129

> <r_i_glide_lipo>
-4.3782328688771

> <r_i_glide_hbond>
-1.15384544709516

> <r_i_glide_metal>
0

> <r_i_glide_rewards>
-1.08717616152855

> <r_i_glide_evdw>
-45.0408668518066

> <r_i_glide_ecoul>
-23.5961933135986

> <r_i_glide_erotb>
1.53940955500195

> <r_i_glide_esite>
-0.2

> <r_i_glide_emodel>
-107.194689510618

> <r_i_glide_energy>
-68.6370601654053

> <r_i_glide_einternal>
13.3978490829468

> <i_i_glide_confnum>
20

> <i_i_glide_posenum>
300

> <r_i_glide_eff_state_penalty>
0

> <s_user_duplicate_titles>
CHEMBL4618_lig207,507033

> <s_m_subgroup_title>
dock_pv

> <s_m_subgroupid>
dock_pv

> <b_m_subgroup_collapsed>
1

$$$$
CHEMBL4618_lig274
                    3D
 Schrodinger Suite 2021-1.
 50 53  0  0  1  0            999 V2000
   10.2899   35.7761   73.7462 C   0  0  0  0  0  0
    9.7714   34.6577   73.1017 C   0  0  0  0  0  0
    9.0117   34.7783   71.9394 C   0  0  0  0  0  0
   10.0921   37.0556   73.2345 C   0  0  0  0  0  0
    9.3341   37.1862   72.0631 C   0  0  0  0  0  0
    8.7832   36.0547   71.4140 C   0  0  0  0  0  0
    8.0984   36.3139   70.2697 N   0  0  0  0  0  0
    8.1341   37.5774   69.9698 C   0  0  0  0  0  0
    8.9151   38.6119   71.1434 S   0  0  0  0  0  0
    7.6343   38.1020   68.7981 O   0  0  0  0  0  0
    8.1168   39.2929   68.2985 C   0  0  0  0  0  0
    9.0467   39.2423   67.2753 C   0  0  0  0  0  0
    9.5584   40.4180   66.7396 C   0  0  0  0  0  0
    9.0608   41.6574   67.1396 C   0  0  0  0  0  0
    8.1231   41.7139   68.1712 C   0  0  0  0  0  0
    7.6615   40.5325   68.7453 C   0  0  0  0  0  0
    9.4103   42.9290   66.3677 C   0  0  0  0  0  0
   10.8774   43.4049   66.3663 C   0  0  0  0  0  0
   11.7971   42.6172   65.5448 N   0  0  2  0  0  0
   12.6786   41.7985   66.3710 C   0  0  0  0  0  0
   13.4820   40.8456   65.4839 C   0  0  0  0  0  0
   14.2741   41.4833   64.3155 C   0  0  0  0  0  0
   13.4768   42.6399   63.6950 C   0  0  0  0  0  0
   12.6133   43.4717   64.6680 C   0  0  0  0  0  0
   15.6438   42.0639   64.7392 C   0  0  0  0  0  0
   15.7980   42.7354   65.7558 O   0  0  0  0  0  0
   16.6755   41.7985   63.9406 N   0  0  0  0  0  0
   10.8649   35.6470   74.6523 H   0  0  0  0  0  0
    9.9635   33.6786   73.5188 H   0  0  0  0  0  0
    8.5850   33.9041   71.4723 H   0  0  0  0  0  0
   10.5181   37.9081   73.7401 H   0  0  0  0  0  0
    9.3514   38.2835   66.8929 H   0  0  0  0  0  0
   10.2781   40.3497   65.9404 H   0  0  0  0  0  0
    7.7149   42.6598   68.4973 H   0  0  0  0  0  0
    6.9303   40.5737   69.5397 H   0  0  0  0  0  0
    8.8108   43.7465   66.7756 H   0  0  0  0  0  0
    9.0608   42.8247   65.3418 H   0  0  0  0  0  0
   11.2351   43.5138   67.3921 H   0  0  0  0  0  0
   10.8425   44.4005   65.9358 H   0  0  0  0  0  0
   12.0763   41.2013   67.0549 H   0  0  0  0  0  0
   13.3227   42.4250   66.9922 H   0  0  0  0  0  0
   12.8461   40.0501   65.0976 H   0  0  0  0  0  0
   14.1212   40.2171   66.0872 H   0  0  0  0  0  0
   14.5402   40.7175   63.5868 H   0  0  0  0  0  0
   14.1195   43.2937   63.1040 H   0  0  0  0  0  0
   12.9186   42.2196   62.8699 H   0  0  0  0  0  0
   11.9524   44.1002   64.0720 H   0  0  0  0  0  0
   13.2270   44.1503   65.2676 H   0  0  0  0  0  0
   17.5616   42.2388   64.1621 H   0  0  0  0  0  0
   16.4601   41.7562   62.9424 H   0  0  0  0  0  0
  1  2  2  0  0  0
  1  4  1  0  0  0
  1 28  1  0  0  0
  2  3  1  0  0  0
  2 29  1  0  0  0
  3  6  2  0  0  0
  3 30  1  0  0  0
  4  5  2  0  0  0
  4 31  1  0  0  0
  5  9  1  0  0  0
  5  6  1  0  0  0
  6  7  1  0  0  0
  7  8  2  0  0  0
  8  9  1  0  0  0
  8 10  1  0  0  0
 10 11  1  0  0  0
 11 16  1  0  0  0
 11 12  2  0  0  0
 12 13  1  0  0  0
 12 32  1  0  0  0
 13 14  2  0  0  0
 13 33  1  0  0  0
 14 15  1  0  0  0
 14 17  1  0  0  0
 15 16  2  0  0  0
 15 34  1  0  0  0
 16 35  1  0  0  0
 17 18  1  0  0  0
 17 36  1  0  0  0
 17 37  1  0  0  0
 18 19  1  0  0  0
 18 38  1  0  0  0
 18 39  1  0  0  0
 19 20  1  0  0  0
 19 24  1  0  0  0
 20 21  1  0  0  0
 20 40  1  0  0  0
 20 41  1  0  0  0
 21 22  1  0  0  0
 21 42  1  0  0  0
 21 43  1  0  0  0
 22 23  1  0  0  0
 22 25  1  0  0  0
 22 44  1  0  0  0
 23 24  1  0  0  0
 23 45  1  0  0  0
 23 46  1  0  0  0
 24 47  1  0  0  0
 24 48  1  0  0  0
 25 26  2  0  0  0
 25 27  1  0  0  0
 27 49  1  0  0  0
 27 50  1  0  0  0
M  END
> <s_m_entry_id>
6599

> <s_m_entry_name>
dock_pv.29

> <s_m_Source_Path>
/home/csk/Desktop/cluster/DUD-E-result/lkha4

> <s_m_Source_File>
dock_pv.maegz

> <i_m_Source_File_Index>
29

> <chembl_id>
CHEMBL511292

> <chembl_pref_name>
None

> <i_lp_mmshare_version>
53161

> <i_f3d_flags>
0

> <r_lp_tautomer_probability>
1

> <s_lp_Force_Field>
OPLS_2005

> <r_lp_Energy>
24.049829

> <b_lp_Chiralities_Consistent>
1

> <s_lp_Variant>
CHEMBL4618_lig274-1

> <s_i_glide_gridfile>
glide-grid_3chp

> <i_i_glide_lignum>
312

> <i_i_glide_rotatable_bonds>
6

> <r_i_docking_score>
-10.9980213380977

> <r_i_glide_ligand_efficiency>
-0.407334123633246

> <r_i_glide_ligand_efficiency_sa>
-1.22200236955723

> <r_i_glide_ligand_efficiency_ln>
-2.56015805095672

> <r_i_glide_gscore>
-10.9980213380977

> <r_i_glide_lipo>
-5.52734795016805

> <r_i_glide_hbond>
-0.245564697177028

> <r_i_glide_metal>
0

> <r_i_glide_rewards>
-1.70800759090909

> <r_i_glide_evdw>
-44.3068389892578

> <r_i_glide_ecoul>
-11.7910652160645

> <r_i_glide_erotb>
0.666900632029076

> <r_i_glide_esite>
-0.2

> <r_i_glide_emodel>
-85.1165875911516

> <r_i_glide_energy>
-56.0979042053223

> <r_i_glide_einternal>
8.4049129486084

> <i_i_glide_confnum>
44

> <i_i_glide_posenum>
137

> <r_i_glide_eff_state_penalty>
0

> <s_user_duplicate_titles>
CHEMBL4618_lig274,466873

> <s_m_subgroup_title>
dock_pv

> <s_m_subgroupid>
dock_pv

> <b_m_subgroup_collapsed>
1

$$$$
CHEMBL4618_lig409
                    3D
 Schrodinger Suite 2021-1.
 50 53  0  0  1  0            999 V2000
   10.7926   35.2828   74.3227 C   0  0  0  0  0  0
   10.3420   36.5560   73.9675 C   0  0  0  0  0  0
    9.7836   34.2866   72.3400 N   0  0  0  0  0  0
   10.5210   34.2025   73.4812 C   0  0  0  0  0  0
    9.3163   35.4980   72.0245 C   0  0  0  0  0  0
    9.6068   36.6614   72.7776 C   0  0  0  0  0  0
    8.9210   38.0460   71.9400 S   0  0  0  0  0  0
    8.2980   36.9584   70.7304 C   0  0  0  0  0  0
    8.5210   35.7026   70.9450 N   0  0  0  0  0  0
    7.5845   37.4273   69.6536 O   0  0  0  0  0  0
    8.0576   38.4748   68.8954 C   0  0  0  0  0  0
    8.4970   38.2129   67.6071 C   0  0  0  0  0  0
    8.9210   39.2429   66.7831 C   0  0  0  0  0  0
    8.9213   40.5544   67.2446 C   0  0  0  0  0  0
    8.4742   40.8330   68.5387 C   0  0  0  0  0  0
    8.0560   39.7879   69.3494 C   0  0  0  0  0  0
    9.3773   41.4980   66.3626 O   0  0  0  0  0  0
    9.4360   42.8609   66.7438 C   0  0  0  0  0  0
   10.2206   43.5637   65.6321 C   0  0  0  0  0  0
   11.5560   43.0100   65.3808 N   0  0  1  0  0  0
   12.1750   43.5848   64.1879 C   0  0  0  0  0  0
   13.4888   42.8602   63.8119 C   0  0  0  0  0  0
   14.4767   42.8570   64.9949 C   0  0  0  0  0  0
   13.7729   42.3608   66.2737 C   0  0  0  0  0  0
   12.4546   43.1053   66.5272 C   0  0  0  0  0  0
   15.7627   42.0737   64.6257 C   0  0  0  0  0  0
   16.5210   42.6160   63.7004 N   0  0  0  0  0  0
   16.1210   41.0160   65.1400 O   0  0  0  0  0  0
   11.3588   35.1367   75.2318 H   0  0  0  0  0  0
   10.5550   37.4160   74.5828 H   0  0  0  0  0  0
   10.8822   33.2149   73.7337 H   0  0  0  0  0  0
    8.5210   37.1986   67.2527 H   0  0  0  0  0  0
    9.2750   39.0159   65.7898 H   0  0  0  0  0  0
    8.4408   41.8389   68.9279 H   0  0  0  0  0  0
    7.7210   39.9900   70.3400 H   0  0  0  0  0  0
    9.9125   43.0123   67.7127 H   0  0  0  0  0  0
    8.4276   43.2734   66.8097 H   0  0  0  0  0  0
   10.2841   44.6160   65.8383 H   0  0  0  0  0  0
    9.6165   43.4809   64.7400 H   0  0  0  0  0  0
   12.3342   44.6550   64.3307 H   0  0  0  0  0  0
   11.4608   43.4757   63.3767 H   0  0  0  0  0  0
   13.8965   43.4160   62.9715 H   0  0  0  0  0  0
   13.2419   41.8481   63.4928 H   0  0  0  0  0  0
   14.7983   43.8851   65.1740 H   0  0  0  0  0  0
   13.5275   41.2967   66.2407 H   0  0  0  0  0  0
   14.3735   42.6160   67.1399 H   0  0  0  0  0  0
   12.6232   44.1569   66.7400 H   0  0  0  0  0  0
   11.9873   42.6663   67.4063 H   0  0  0  0  0  0
   17.3992   42.2388   63.3621 H   0  0  0  0  0  0
   16.2327   43.5070   63.2992 H   0  0  0  0  0  0
  1  2  2  0  0  0
  1  4  1  0  0  0
  1 29  1  0  0  0
  2  6  1  0  0  0
  2 30  1  0  0  0
  3  5  1  0  0  0
  3  4  2  0  0  0
  4 31  1  0  0  0
  5  6  2  0  0  0
  5  9  1  0  0  0
  6  7  1  0  0  0
  7  8  1  0  0  0
  8  9  2  0  0  0
  8 10  1  0  0  0
 10 11  1  0  0  0
 11 12  2  0  0  0
 11 16  1  0  0  0
 12 13  1  0  0  0
 12 32  1  0  0  0
 13 14  2  0  0  0
 13 33  1  0  0  0
 14 15  1  0  0  0
 14 17  1  0  0  0
 15 16  2  0  0  0
 15 34  1  0  0  0
 16 35  1  0  0  0
 17 18  1  0  0  0
 18 19  1  0  0  0
 18 36  1  0  0  0
 18 37  1  0  0  0
 19 20  1  0  0  0
 19 38  1  0  0  0
 19 39  1  0  0  0
 20 21  1  0  0  0
 20 25  1  0  0  0
 21 22  1  0  0  0
 21 40  1  0  0  0
 21 41  1  0  0  0
 22 23  1  0  0  0
 22 42  1  0  0  0
 22 43  1  0  0  0
 23 24  1  0  0  0
 23 26  1  0  0  0
 23 44  1  0  0  0
 24 25  1  0  0  0
 24 45  1  0  0  0
 24 46  1  0  0  0
 25 47  1  0  0  0
 25 48  1  0  0  0
 26 27  1  0  0  0
 26 28  2  0  0  0
 27 49  1  0  0  0
 27 50  1  0  0  0
M  END
> <s_m_entry_id>
6600

> <s_m_entry_name>
dock_pv.30

> <s_m_Source_Path>
/home/csk/Desktop/cluster/DUD-E-result/lkha4

> <s_m_Source_File>
dock_pv.maegz

> <i_m_Source_File_Index>
30

> <chembl_id>
CHEMBL2207737

> <chembl_pref_name>
None

> <i_lp_mmshare_version>
53161

> <i_f3d_flags>
0

> <r_lp_tautomer_probability>
1

> <s_lp_Force_Field>
OPLS_2005

> <r_lp_Energy>
28.5837

> <b_lp_Chiralities_Consistent>
1

> <s_lp_Variant>
CHEMBL4618_lig409-1

> <s_i_glide_gridfile>
glide-grid_3chp

> <i_i_glide_lignum>
476

> <i_i_glide_rotatable_bonds>
7

> <r_i_docking_score>
-10.9915199914619

> <r_i_glide_ligand_efficiency>
-0.392554285409353

> <r_i_glide_ligand_efficiency_sa>
-1.19202601261255

> <r_i_glide_ligand_efficiency_ln>
-2.53716553907963

> <r_i_glide_gscore>
-10.9915199914619

> <r_i_glide_lipo>
-5.04642803105379

> <r_i_glide_hbond>
-0.608677207162737

> <r_i_glide_metal>
0

> <r_i_glide_rewards>
-1.31456442703712

> <r_i_glide_evdw>
-34.4354782104492

> <r_i_glide_ecoul>
-18.9342060089111

> <r_i_glide_erotb>
0.740054485650889

> <r_i_glide_esite>
-0.2

> <r_i_glide_emodel>
-86.7812928396792

> <r_i_glide_energy>
-53.3696842193604

> <r_i_glide_einternal>
7.51015281677246

> <i_i_glide_confnum>
5

> <i_i_glide_posenum>
192

> <r_i_glide_eff_state_penalty>
0

> <s_user_duplicate_titles>
CHEMBL4618_lig409

> <s_m_subgroup_title>
dock_pv

> <s_m_subgroupid>
dock_pv

> <b_m_subgroup_collapsed>
1

$$$$
CHEMBL4618_lig474
                    3D
 Schrodinger Suite 2021-1.
 50 54  0  0  1  0            999 V2000
   17.1779   42.2160   65.9400 O   0  0  0  0  0  0
   16.3353   43.0160   65.1398 C   0  0  1  0  0  0
   15.7935   42.2160   63.9457 C   0  0  0  0  0  0
   14.3741   41.8365   64.3375 C   0  0  0  0  0  0
   13.9475   42.9663   65.1416 N   0  0  3  0  0  0
   12.5543   43.4159   65.3191 C   0  0  0  0  0  0
   11.5845   42.4732   66.0397 C   0  0  0  0  0  0
   11.7208   41.0971   65.9400 C   0  0  0  0  0  0
   10.7968   40.2160   66.3401 N   0  0  0  0  0  0
    9.8068   40.6411   67.1400 C   0  0  0  0  0  0
    9.0707   39.6635   67.8267 C   0  0  0  0  0  0
    8.0901   40.0414   68.7297 C   0  0  0  0  0  0
    7.4329   39.0616   69.4388 O   0  0  0  0  0  0
    8.1198   38.1890   70.2672 C   0  0  0  0  0  0
    7.7210   36.8586   70.3401 C   0  0  0  0  0  0
    8.3320   36.0054   71.2622 C   0  0  0  0  0  0
    9.3249   36.4975   72.1009 C   0  0  0  0  0  0
    9.7210   37.8160   71.9198 C   0  0  0  0  0  0
    9.1475   38.6610   71.0217 N   0  0  0  0  0  0
   10.0036   35.6762   73.1251 C   0  0  0  0  0  0
   10.5210   34.3937   73.0991 C   0  0  0  0  0  0
   11.1327   34.2160   74.3418 C   0  0  0  0  0  0
   10.9520   35.2427   75.1400 N   0  0  0  0  0  0
   10.2863   36.1244   74.3914 N   0  0  0  0  0  0
    7.7411   41.3915   68.8394 C   0  0  0  0  0  0
    8.4518   42.3835   68.1546 C   0  0  0  0  0  0
    9.5475   42.0238   67.3319 C   0  0  0  0  0  0
   10.4314   42.9434   66.6909 C   0  0  0  0  0  0
   15.0695   43.4478   65.9269 C   0  0  0  0  0  0
   17.6556   42.7962   66.5413 H   0  0  0  0  0  0
   16.8916   43.8712   64.7522 H   0  0  0  0  0  0
   15.7406   42.8305   63.0465 H   0  0  0  0  0  0
   16.4132   41.3734   63.6528 H   0  0  0  0  0  0
   13.7213   41.7236   63.4706 H   0  0  0  0  0  0
   14.3866   40.9026   64.8956 H   0  0  0  0  0  0
   12.5564   44.3672   65.8460 H   0  0  0  0  0  0
   12.1423   43.6138   64.3291 H   0  0  0  0  0  0
   12.4929   40.6237   65.3711 H   0  0  0  0  0  0
    9.3148   38.6188   67.6908 H   0  0  0  0  0  0
    6.9210   36.5080   69.7159 H   0  0  0  0  0  0
    8.0126   34.9797   71.3491 H   0  0  0  0  0  0
   10.5325   38.2160   72.5073 H   0  0  0  0  0  0
   10.4988   33.6942   72.2765 H   0  0  0  0  0  0
   11.6579   33.3301   74.6732 H   0  0  0  0  0  0
   10.0160   37.0321   74.7494 H   0  0  0  0  0  0
    6.9324   41.6827   69.4928 H   0  0  0  0  0  0
    8.1944   43.4248   68.2851 H   0  0  0  0  0  0
   10.2126   43.9936   66.7400 H   0  0  0  0  0  0
   15.0039   43.0160   66.9227 H   0  0  0  0  0  0
   15.0146   44.5253   66.0579 H   0  0  0  0  0  0
  1  2  1  0  0  0
  1 30  1  0  0  0
  2  3  1  0  0  0
  2 29  1  0  0  0
  2 31  1  0  0  0
  3  4  1  0  0  0
  3 32  1  0  0  0
  3 33  1  0  0  0
  4  5  1  0  0  0
  4 34  1  0  0  0
  4 35  1  0  0  0
  5  6  1  0  0  0
  5 29  1  0  0  0
  6  7  1  0  0  0
  6 36  1  0  0  0
  6 37  1  0  0  0
  7  8  2  0  0  0
  7 28  1  0  0  0
  8  9  1  0  0  0
  8 38  1  0  0  0
  9 10  2  0  0  0
 10 11  1  0  0  0
 10 27  1  0  0  0
 11 12  2  0  0  0
 11 39  1  0  0  0
 12 13  1  0  0  0
 12 25  1  0  0  0
 13 14  1  0  0  0
 14 15  2  0  0  0
 14 19  1  0  0  0
 15 16  1  0  0  0
 15 40  1  0  0  0
 16 17  2  0  0  0
 16 41  1  0  0  0
 17 18  1  0  0  0
 17 20  1  0  0  0
 18 19  2  0  0  0
 18 42  1  0  0  0
 20 21  2  0  0  0
 20 24  1  0  0  0
 21 22  1  0  0  0
 21 43  1  0  0  0
 22 23  2  0  0  0
 22 44  1  0  0  0
 23 24  1  0  0  0
 24 45  1  0  0  0
 25 26  2  0  0  0
 25 46  1  0  0  0
 26 27  1  0  0  0
 26 47  1  0  0  0
 27 28  2  0  0  0
 28 48  1  0  0  0
 29 49  1  0  0  0
 29 50  1  0  0  0
M  END
> <s_m_entry_id>
6601

> <s_m_entry_name>
dock_pv.31

> <s_m_Source_Path>
/home/csk/Desktop/cluster/DUD-E-result/lkha4

> <s_m_Source_File>
dock_pv.maegz

> <i_m_Source_File_Index>
31

> <chembl_id>
CHEMBL3906966

> <chembl_pref_name>
None

> <i_lp_mmshare_version>
53161

> <i_f3d_flags>
0

> <r_lp_tautomer_probability>
0.5

> <s_lp_Force_Field>
OPLS_2005

> <r_lp_Energy>
46.863903

> <b_lp_Chiralities_Consistent>
1

> <s_lp_Variant>
CHEMBL4618_lig474-1

> <s_i_glide_gridfile>
glide-grid_3chp

> <i_i_glide_lignum>
563

> <i_i_glide_rotatable_bonds>
6

> <r_i_docking_score>
-10.9768946026804

> <r_i_glide_ligand_efficiency>
-0.378513606988978

> <r_i_glide_ligand_efficiency_sa>
-1.16291372219798

> <r_i_glide_ligand_efficiency_ln>
-2.51343051398337

> <r_i_glide_gscore>
-10.9768946026804

> <r_i_glide_lipo>
-5.20829665653489

> <r_i_glide_hbond>
-0.438055614771726

> <r_i_glide_metal>
0

> <r_i_glide_rewards>
-2.41749245454545

> <r_i_glide_evdw>
-48.6339569091797

> <r_i_glide_ecoul>
-7.5334587097168

> <r_i_glide_erotb>
0.648666775088222

> <r_i_glide_esite>
0

> <r_i_glide_emodel>
-66.5148519277584

> <r_i_glide_energy>
-56.1674156188965

> <r_i_glide_einternal>
17.9510078430176

> <i_i_glide_confnum>
20

> <i_i_glide_posenum>
66

> <r_i_glide_eff_state_penalty>
0

> <s_user_duplicate_titles>
CHEMBL4618_lig474,CHEMBL4618_lig474

> <s_m_subgroup_title>
dock_pv

> <s_m_subgroupid>
dock_pv

> <b_m_subgroup_collapsed>
1

$$$$
CHEMBL4618_lig212
                    3D
 Schrodinger Suite 2021-1.
 45 46  0  0  1  0            999 V2000
    8.4025   40.4100   68.4292 C   0  0  0  0  0  0
    9.2312   39.6653   67.5826 C   0  0  0  0  0  0
   10.1181   40.3120   66.7396 C   0  0  0  0  0  0
   10.1834   41.6965   66.7394 C   0  0  0  0  0  0
    9.3050   42.4450   67.5295 C   0  0  0  0  0  0
    8.4063   41.7996   68.3659 C   0  0  0  0  0  0
   11.1921   42.2711   65.9690 N   0  0  0  0  0  0
   11.0958   43.4159   65.2825 C   0  0  0  0  0  0
   10.0350   44.0210   65.1422 O   0  0  0  0  0  0
   12.3576   43.9148   64.5629 C   0  0  0  0  0  0
   13.7265   43.4477   65.1380 C   0  0  0  0  0  0
   14.4940   42.5139   64.1757 C   0  0  1  0  0  0
   15.8933   42.1587   64.7299 C   0  0  0  0  0  0
   13.7493   41.2608   63.9406 N   0  0  0  0  0  0
   16.8270   43.1022   64.7377 N   0  0  0  0  0  0
   16.1336   41.0260   65.1398 O   0  0  0  0  0  0
    7.5500   39.8321   69.3327 O   0  0  0  0  0  0
    7.8951   38.6529   69.9320 C   0  0  0  0  0  0
    7.5973   37.4720   69.2827 C   0  0  0  0  0  0
    7.9325   36.2771   69.8807 C   0  0  0  0  0  0
    8.5300   36.2159   71.1376 C   0  0  0  0  0  0
    8.8364   37.4063   71.7934 C   0  0  0  0  0  0
    8.5205   38.6218   71.1794 C   0  0  0  0  0  0
    9.5436   37.3727   73.1308 C   0  0  0  0  0  0
    9.2247   38.5869   67.5861 H   0  0  0  0  0  0
   10.7722   39.7377   66.1002 H   0  0  0  0  0  0
    9.3269   43.5206   67.5174 H   0  0  0  0  0  0
    7.7353   42.3745   68.9897 H   0  0  0  0  0  0
   12.0144   41.7116   65.7980 H   0  0  0  0  0  0
   12.3473   45.0016   64.4885 H   0  0  0  0  0  0
   12.2535   43.5696   63.5401 H   0  0  0  0  0  0
   13.6278   42.9675   66.1134 H   0  0  0  0  0  0
   14.3229   44.3364   65.3416 H   0  0  0  0  0  0
   14.6288   43.0153   63.2184 H   0  0  0  0  0  0
   14.0061   40.9599   62.9901 H   0  0  0  0  0  0
   14.0824   40.5224   64.5521 H   0  0  0  0  0  0
   17.7723   42.8989   65.0248 H   0  0  0  0  0  0
   16.6366   43.9612   64.2318 H   0  0  0  0  0  0
    7.1245   37.4883   68.3118 H   0  0  0  0  0  0
    7.7211   35.4174   69.2955 H   0  0  0  0  0  0
    8.7609   35.2572   71.5744 H   0  0  0  0  0  0
    8.7174   39.5578   71.6681 H   0  0  0  0  0  0
   10.1416   36.4673   73.2423 H   0  0  0  0  0  0
   10.2307   38.2127   73.2270 H   0  0  0  0  0  0
    8.8175   37.4151   73.9371 H   0  0  0  0  0  0
  1  6  1  0  0  0
  1  2  2  0  0  0
  1 17  1  0  0  0
  2  3  1  0  0  0
  2 25  1  0  0  0
  3  4  2  0  0  0
  3 26  1  0  0  0
  4  7  1  0  0  0
  4  5  1  0  0  0
  5  6  2  0  0  0
  5 27  1  0  0  0
  6 28  1  0  0  0
  7  8  1  0  0  0
  7 29  1  0  0  0
  8  9  2  0  0  0
  8 10  1  0  0  0
 10 11  1  0  0  0
 10 30  1  0  0  0
 10 31  1  0  0  0
 11 12  1  0  0  0
 11 32  1  0  0  0
 11 33  1  0  0  0
 12 13  1  0  0  0
 12 14  1  0  0  0
 12 34  1  0  0  0
 13 15  1  0  0  0
 13 16  2  0  0  0
 14 35  1  0  0  0
 14 36  1  0  0  0
 15 37  1  0  0  0
 15 38  1  0  0  0
 17 18  1  0  0  0
 18 19  2  0  0  0
 18 23  1  0  0  0
 19 20  1  0  0  0
 19 39  1  0  0  0
 20 21  2  0  0  0
 20 40  1  0  0  0
 21 22  1  0  0  0
 21 41  1  0  0  0
 22 23  2  0  0  0
 22 24  1  0  0  0
 23 42  1  0  0  0
 24 43  1  0  0  0
 24 44  1  0  0  0
 24 45  1  0  0  0
M  END
> <s_m_entry_id>
6602

> <s_m_entry_name>
dock_pv.32

> <s_m_Source_Path>
/home/csk/Desktop/cluster/DUD-E-result/lkha4

> <s_m_Source_File>
dock_pv.maegz

> <i_m_Source_File_Index>
32

> <chembl_id>
CHEMBL446500

> <chembl_pref_name>
None

> <i_lp_mmshare_version>
53161

> <i_f3d_flags>
0

> <r_lp_tautomer_probability>
1

> <s_lp_Force_Field>
OPLS_2005

> <r_lp_Energy>
16.316993

> <b_lp_Chiralities_Consistent>
1

> <s_lp_Variant>
CHEMBL4618_lig212-1

> <s_i_glide_gridfile>
glide-grid_3chp

> <i_i_glide_lignum>
240

> <i_i_glide_rotatable_bonds>
8

> <r_i_docking_score>
-10.9749731071816

> <r_i_glide_ligand_efficiency>
-0.457290546132566

> <r_i_glide_ligand_efficiency_sa>
-1.31905418593332

> <r_i_glide_ligand_efficiency_ln>
-2.62681467324886

> <r_i_glide_gscore>
-10.9749731071816

> <r_i_glide_lipo>
-4.45901056112861

> <r_i_glide_hbond>
-1.14653660467844

> <r_i_glide_metal>
0

> <r_i_glide_rewards>
-1.64014166599826

> <r_i_glide_evdw>
-29.5656585693359

> <r_i_glide_ecoul>
-21.8450355529785

> <r_i_glide_erotb>
1.22575398603731

> <r_i_glide_esite>
-0.2

> <r_i_glide_emodel>
-81.0852295473323

> <r_i_glide_energy>
-51.4106941223145

> <r_i_glide_einternal>
7.17423248291016

> <i_i_glide_confnum>
49

> <i_i_glide_posenum>
117

> <r_i_glide_eff_state_penalty>
0

> <s_user_duplicate_titles>
CHEMBL4618_lig212,507021

> <s_m_subgroup_title>
dock_pv

> <s_m_subgroupid>
dock_pv

> <b_m_subgroup_collapsed>
1

$$$$
CHEMBL4618_lig140
                    3D
 Schrodinger Suite 2021-1.
 46 47  0  0  1  0            999 V2000
   15.6205   41.8826   64.4640 C   0  0  0  0  0  0
   16.2384   42.2160   65.4758 O   0  0  0  0  0  0
    8.0655   38.0532   69.6096 C   0  0  0  0  0  0
    7.6291   37.0079   70.6375 C   0  0  0  0  0  0
    8.7265   40.0331   67.7241 C   0  0  0  0  0  0
   16.1210   41.0161   63.5400 O   0  0  0  0  0  0
   13.7220   43.4006   64.9169 N   0  0  2  0  0  0
    8.2382   39.3754   69.9931 C   0  0  0  0  0  0
    8.1708   37.7337   68.2580 C   0  0  0  0  0  0
    8.5211   38.7111   67.3238 C   0  0  0  0  0  0
    8.5212   40.3639   69.0678 C   0  0  0  0  0  0
    8.6547   36.5302   71.6715 C   0  0  0  0  0  0
   14.1472   42.2150   64.1741 C   0  0  0  0  0  0
    9.1340   40.9456   66.7673 O   0  0  0  0  0  0
   12.2759   43.5836   64.8638 C   0  0  0  0  0  0
    9.3487   42.3009   67.1673 C   0  0  0  0  0  0
    8.9692   35.1720   71.7821 C   0  0  0  0  0  0
    9.2306   37.4247   72.5739 C   0  0  0  0  0  0
   11.5329   42.6713   65.8616 C   0  0  0  0  0  0
   10.0572   43.0776   66.0569 C   0  0  0  0  0  0
    9.8752   34.7182   72.7382 C   0  0  0  0  0  0
   10.1260   36.9749   73.5398 C   0  0  0  0  0  0
   10.4414   35.6224   73.6260 C   0  0  0  0  0  0
    6.7726   37.4157   71.1764 H   0  0  0  0  0  0
    7.2592   36.1401   70.0914 H   0  0  0  0  0  0
   15.6133   41.0154   62.6928 H   0  0  0  0  0  0
   14.1944   44.2145   64.5371 H   0  0  0  0  0  0
    8.1211   39.6579   71.0224 H   0  0  0  0  0  0
    8.0122   36.7158   67.9408 H   0  0  0  0  0  0
    8.6537   38.4429   66.2860 H   0  0  0  0  0  0
    8.6098   41.3758   69.4292 H   0  0  0  0  0  0
   14.0029   42.3966   63.1094 H   0  0  0  0  0  0
   13.5617   41.3379   64.4510 H   0  0  0  0  0  0
   12.0766   44.6163   65.1448 H   0  0  0  0  0  0
   11.8939   43.4758   63.8469 H   0  0  0  0  0  0
    9.9619   42.3689   68.0678 H   0  0  0  0  0  0
    8.3842   42.7637   67.3881 H   0  0  0  0  0  0
    8.5211   34.4437   71.1321 H   0  0  0  0  0  0
    8.9702   38.4691   72.5514 H   0  0  0  0  0  0
   11.5827   41.6293   65.5410 H   0  0  0  0  0  0
   12.0413   42.7156   66.8268 H   0  0  0  0  0  0
    9.9920   44.1380   66.2968 H   0  0  0  0  0  0
    9.4944   42.9464   65.1400 H   0  0  0  0  0  0
   10.1181   33.6672   72.8082 H   0  0  0  0  0  0
   10.5748   37.6708   74.2319 H   0  0  0  0  0  0
   11.1292   35.2735   74.3830 H   0  0  0  0  0  0
  1  2  2  0  0  0
  1  6  1  0  0  0
  1 13  1  0  0  0
  3  8  1  0  0  0
  3  4  1  0  0  0
  3  9  2  0  0  0
  4 12  1  0  0  0
  4 24  1  0  0  0
  4 25  1  0  0  0
  5 14  1  0  0  0
  5 10  2  0  0  0
  5 11  1  0  0  0
  6 26  1  0  0  0
  7 13  1  0  0  0
  7 15  1  0  0  0
  7 27  1  0  0  0
  8 11  2  0  0  0
  8 28  1  0  0  0
  9 10  1  0  0  0
  9 29  1  0  0  0
 10 30  1  0  0  0
 11 31  1  0  0  0
 12 17  1  0  0  0
 12 18  2  0  0  0
 13 32  1  0  0  0
 13 33  1  0  0  0
 14 16  1  0  0  0
 15 19  1  0  0  0
 15 34  1  0  0  0
 15 35  1  0  0  0
 16 20  1  0  0  0
 16 36  1  0  0  0
 16 37  1  0  0  0
 17 21  2  0  0  0
 17 38  1  0  0  0
 18 22  1  0  0  0
 18 39  1  0  0  0
 19 20  1  0  0  0
 19 40  1  0  0  0
 19 41  1  0  0  0
 20 42  1  0  0  0
 20 43  1  0  0  0
 21 23  1  0  0  0
 21 44  1  0  0  0
 22 23  2  0  0  0
 22 45  1  0  0  0
 23 46  1  0  0  0
M  END
> <s_m_entry_id>
6603

> <s_m_entry_name>
dock_pv.33

> <s_m_Source_Path>
/home/csk/Desktop/cluster/DUD-E-result/lkha4

> <s_m_Source_File>
dock_pv.maegz

> <i_m_Source_File_Index>
33

> <chembl_id>
CHEMBL117549

> <chembl_pref_name>
None

> <i_lp_mmshare_version>
53161

> <i_f3d_flags>
0

> <r_lp_tautomer_probability>
1

> <s_lp_Force_Field>
OPLS_2005

> <r_lp_Energy>
17.893496

> <b_lp_Chiralities_Consistent>
1

> <s_lp_Variant>
CHEMBL4618_lig140-1

> <s_i_glide_gridfile>
glide-grid_3chp

> <i_i_glide_lignum>
166

> <i_i_glide_rotatable_bonds>
11

> <r_i_docking_score>
-10.8968088021493

> <r_i_glide_ligand_efficiency>
-0.473774295745622

> <r_i_glide_ligand_efficiency_sa>
-1.3473510741652

> <r_i_glide_ligand_efficiency_ln>
-2.6349471751591

> <r_i_glide_gscore>
-10.8968088021493

> <r_i_glide_lipo>
-5.23802124159007

> <r_i_glide_hbond>
-0.439596203594289

> <r_i_glide_metal>
0

> <r_i_glide_rewards>
-2.17233531444821

> <r_i_glide_evdw>
-40.1325721740723

> <r_i_glide_ecoul>
-18.8756465911865

> <r_i_glide_erotb>
1.89111955486486

> <r_i_glide_esite>
-0.1

> <r_i_glide_emodel>
-98.7702018268118

> <r_i_glide_energy>
-59.0082187652588

> <r_i_glide_einternal>
7.07222318649292

> <i_i_glide_confnum>
29

> <i_i_glide_posenum>
149

> <r_i_glide_eff_state_penalty>
0

> <s_user_duplicate_titles>
CHEMBL4618_lig140,192414

> <s_m_subgroup_title>
dock_pv

> <s_m_subgroupid>
dock_pv

> <b_m_subgroup_collapsed>
1

$$$$
CHEMBL4618_lig21
                    3D
 Schrodinger Suite 2021-1.
 52 55  0  0  1  0            999 V2000
   16.9204   42.6327   65.4574 N   0  0  0  0  0  0
   16.9175   41.8837   64.2977 N   0  0  0  0  0  0
   15.6215   43.0168   65.7793 N   0  0  0  0  0  0
   14.8553   42.4518   64.8752 C   0  0  0  0  0  0
   15.6336   41.8113   63.9502 N   0  0  0  0  0  0
   10.7202   42.7150   66.2961 N   0  0  1  0  0  0
   13.3447   42.3592   64.9256 C   0  0  0  0  0  0
   12.8896   41.4544   66.0869 C   0  0  0  0  0  0
   12.6376   43.7148   65.0462 C   0  0  0  0  0  0
   11.3604   41.3907   66.2932 C   0  0  0  0  0  0
   11.1103   43.5510   65.1544 C   0  0  0  0  0  0
    8.2920   37.4799   70.1855 C   0  0  0  0  0  0
    8.1039   36.3724   71.2272 C   0  0  0  0  0  0
    8.4631   39.5309   68.2575 C   0  0  0  0  0  0
    8.4770   38.8037   70.5781 C   0  0  0  0  0  0
    8.1210   37.2050   68.8239 C   0  0  0  0  0  0
    8.2449   38.2143   67.8681 C   0  0  0  0  0  0
    8.5210   39.8149   69.6210 C   0  0  0  0  0  0
    9.2247   35.9534   72.1749 C   0  0  0  0  0  0
    8.5918   40.4842   67.2627 O   0  0  0  0  0  0
    9.2527   42.6696   66.4061 C   0  0  0  0  0  0
    8.7230   41.8692   67.6109 C   0  0  0  0  0  0
    9.6296   36.8064   73.2031 C   0  0  0  0  0  0
    9.6822   34.6314   72.1569 C   0  0  0  0  0  0
   10.4627   36.3359   74.2155 C   0  0  0  0  0  0
   10.5261   34.1627   73.1582 C   0  0  0  0  0  0
   10.9115   35.0169   74.1881 C   0  0  0  0  0  0
   15.3103   41.4136   63.0634 H   0  0  0  0  0  0
   12.9472   41.9167   64.0119 H   0  0  0  0  0  0
   13.2507   40.4379   65.9274 H   0  0  0  0  0  0
   13.3063   41.8259   67.0211 H   0  0  0  0  0  0
   12.9696   44.2266   65.9463 H   0  0  0  0  0  0
   12.8604   44.3403   64.1807 H   0  0  0  0  0  0
   10.9035   40.7565   65.5402 H   0  0  0  0  0  0
   11.1518   40.8974   67.2429 H   0  0  0  0  0  0
   10.7038   43.1177   64.2422 H   0  0  0  0  0  0
   10.6540   44.5348   65.2533 H   0  0  0  0  0  0
    7.3196   36.7167   71.8926 H   0  0  0  0  0  0
    7.7245   35.4751   70.7370 H   0  0  0  0  0  0
    8.5183   39.0706   71.6230 H   0  0  0  0  0  0
    7.9223   36.2020   68.4922 H   0  0  0  0  0  0
    8.1661   37.9780   66.8178 H   0  0  0  0  0  0
    8.5961   40.8352   69.9400 H   0  0  0  0  0  0
    8.8702   43.6897   66.4832 H   0  0  0  0  0  0
    8.8312   42.2480   65.4965 H   0  0  0  0  0  0
    9.4030   42.0379   68.4459 H   0  0  0  0  0  0
    7.7426   42.2472   67.9054 H   0  0  0  0  0  0
    9.2495   37.8136   73.2654 H   0  0  0  0  0  0
    9.3207   33.9366   71.4139 H   0  0  0  0  0  0
   10.7443   36.9886   75.0291 H   0  0  0  0  0  0
   10.8548   33.1322   73.1550 H   0  0  0  0  0  0
   11.5466   34.6476   74.9810 H   0  0  0  0  0  0
  1  2  2  0  0  0
  1  3  1  0  0  0
  2  5  1  0  0  0
  3  4  2  0  0  0
  4  7  1  0  0  0
  4  5  1  0  0  0
  5 28  1  0  0  0
  6 11  1  0  0  0
  6 21  1  0  0  0
  6 10  1  0  0  0
  7  8  1  0  0  0
  7  9  1  0  0  0
  7 29  1  0  0  0
  8 10  1  0  0  0
  8 30  1  0  0  0
  8 31  1  0  0  0
  9 11  1  0  0  0
  9 32  1  0  0  0
  9 33  1  0  0  0
 10 34  1  0  0  0
 10 35  1  0  0  0
 11 36  1  0  0  0
 11 37  1  0  0  0
 12 15  2  0  0  0
 12 13  1  0  0  0
 12 16  1  0  0  0
 13 19  1  0  0  0
 13 38  1  0  0  0
 13 39  1  0  0  0
 14 20  1  0  0  0
 14 17  1  0  0  0
 14 18  2  0  0  0
 15 18  1  0  0  0
 15 40  1  0  0  0
 16 17  2  0  0  0
 16 41  1  0  0  0
 17 42  1  0  0  0
 18 43  1  0  0  0
 19 23  2  0  0  0
 19 24  1  0  0  0
 20 22  1  0  0  0
 21 22  1  0  0  0
 21 44  1  0  0  0
 21 45  1  0  0  0
 22 46  1  0  0  0
 22 47  1  0  0  0
 23 25  1  0  0  0
 23 48  1  0  0  0
 24 26  2  0  0  0
 24 49  1  0  0  0
 25 27  2  0  0  0
 25 50  1  0  0  0
 26 27  1  0  0  0
 26 51  1  0  0  0
 27 52  1  0  0  0
M  END
> <s_m_entry_id>
6604

> <s_m_entry_name>
dock_pv.34

> <s_m_Source_Path>
/home/csk/Desktop/cluster/DUD-E-result/lkha4

> <s_m_Source_File>
dock_pv.maegz

> <i_m_Source_File_Index>
34

> <chembl_id>
CHEMBL432791

> <chembl_pref_name>
None

> <i_lp_mmshare_version>
53161

> <i_f3d_flags>
0

> <r_lp_tautomer_probability>
0.3

> <s_lp_Force_Field>
OPLS_2005

> <r_lp_Energy>
28.111454

> <b_lp_Chiralities_Consistent>
1

> <s_lp_Variant>
CHEMBL4618_lig21-1

> <s_i_glide_gridfile>
glide-grid_3chp

> <i_i_glide_lignum>
29

> <i_i_glide_rotatable_bonds>
7

> <r_i_docking_score>
-10.8921813100916

> <r_i_glide_ligand_efficiency>
-0.403414122595985

> <r_i_glide_ligand_efficiency_sa>
-1.21024236645837

> <r_i_glide_ligand_efficiency_ln>
-2.53552023734614

> <r_i_glide_gscore>
-10.8921813100916

> <r_i_glide_lipo>
-5.8277692948099

> <r_i_glide_hbond>
-0.16

> <r_i_glide_metal>
0

> <r_i_glide_rewards>
-1.83092946183551

> <r_i_glide_evdw>
-54.5222511291504

> <r_i_glide_ecoul>
-5.79764795303345

> <r_i_glide_erotb>
1.01813076202747

> <r_i_glide_esite>
-0.495853566061115

> <r_i_glide_emodel>
-91.715570752038

> <r_i_glide_energy>
-60.3198990821838

> <r_i_glide_einternal>
5.5179295539856

> <i_i_glide_confnum>
93

> <i_i_glide_posenum>
123

> <r_i_glide_eff_state_penalty>
0

> <s_user_duplicate_titles>
CHEMBL4618_lig21,CHEMBL4618_lig21,188256

> <s_m_subgroup_title>
dock_pv

> <s_m_subgroupid>
dock_pv

> <b_m_subgroup_collapsed>
1

$$$$
CHEMBL4618_lig189
                    3D
 Schrodinger Suite 2021-1.
 45 46  0  0  1  0            999 V2000
   10.0390   37.4041   73.0707 C   0  0  0  0  0  0
   10.2301   36.1042   73.5287 C   0  0  0  0  0  0
    9.7054   35.0318   72.8193 C   0  0  0  0  0  0
    8.9210   35.2722   71.6927 C   0  0  0  0  0  0
    8.6842   36.5760   71.2466 C   0  0  0  0  0  0
    9.2572   37.6456   71.9407 C   0  0  0  0  0  0
    7.8938   36.7874   69.9519 C   0  0  0  0  0  0
    7.4575   38.1447   69.7965 O   0  0  0  0  0  0
    8.0331   38.9358   68.8215 C   0  0  0  0  0  0
    8.1210   40.3017   69.0729 C   0  0  0  0  0  0
    8.7994   41.1550   68.2229 C   0  0  0  0  0  0
    9.4425   40.6290   67.1026 C   0  0  0  0  0  0
    9.2281   39.2985   66.7572 C   0  0  0  0  0  0
    8.5210   38.4528   67.6048 C   0  0  0  0  0  0
   10.3268   41.3580   66.2934 N   0  0  0  0  0  0
   11.0025   42.4749   66.6015 C   0  0  0  0  0  0
   10.9210   43.0160   67.6899 O   0  0  0  0  0  0
   11.9460   43.0664   65.5471 C   0  0  0  0  0  0
   13.4500   42.7564   65.8027 C   0  0  0  0  0  0
   14.2390   42.3816   64.5222 C   0  0  1  0  0  0
   15.7389   42.1371   64.8171 C   0  0  0  0  0  0
   13.7210   41.1339   63.9400 N   0  0  0  0  0  0
   16.5783   43.1581   64.7400 N   0  0  0  0  0  0
   16.1363   41.0160   65.1400 O   0  0  0  0  0  0
   10.5107   38.2161   73.5971 H   0  0  0  0  0  0
   10.8270   35.9256   74.4114 H   0  0  0  0  0  0
    9.8840   34.0199   73.1533 H   0  0  0  0  0  0
    8.5210   34.4320   71.1475 H   0  0  0  0  0  0
    9.1147   38.6588   71.5956 H   0  0  0  0  0  0
    7.0007   36.1669   69.9401 H   0  0  0  0  0  0
    8.5208   36.4140   69.1464 H   0  0  0  0  0  0
    7.7208   40.7343   69.9553 H   0  0  0  0  0  0
    8.8594   42.1985   68.4910 H   0  0  0  0  0  0
    9.6815   38.8758   65.8770 H   0  0  0  0  0  0
    8.4221   37.4168   67.3238 H   0  0  0  0  0  0
   10.5652   40.9259   65.4126 H   0  0  0  0  0  0
   11.7962   44.1460   65.5029 H   0  0  0  0  0  0
   11.6435   42.7277   64.5585 H   0  0  0  0  0  0
   13.5574   41.9596   66.5421 H   0  0  0  0  0  0
   13.8990   43.6338   66.2728 H   0  0  0  0  0  0
   14.1465   43.1959   63.8005 H   0  0  0  0  0  0
   14.1204   40.9976   62.9991 H   0  0  0  0  0  0
   13.9849   40.3268   64.4955 H   0  0  0  0  0  0
   17.5683   43.0161   64.8739 H   0  0  0  0  0  0
   16.2619   44.0043   64.2700 H   0  0  0  0  0  0
  1  6  1  0  0  0
  1  2  2  0  0  0
  1 25  1  0  0  0
  2  3  1  0  0  0
  2 26  1  0  0  0
  3  4  2  0  0  0
  3 27  1  0  0  0
  4  5  1  0  0  0
  4 28  1  0  0  0
  5  7  1  0  0  0
  5  6  2  0  0  0
  6 29  1  0  0  0
  7  8  1  0  0  0
  7 30  1  0  0  0
  7 31  1  0  0  0
  8  9  1  0  0  0
  9 14  1  0  0  0
  9 10  2  0  0  0
 10 11  1  0  0  0
 10 32  1  0  0  0
 11 12  2  0  0  0
 11 33  1  0  0  0
 12 13  1  0  0  0
 12 15  1  0  0  0
 13 14  2  0  0  0
 13 34  1  0  0  0
 14 35  1  0  0  0
 15 16  1  0  0  0
 15 36  1  0  0  0
 16 17  2  0  0  0
 16 18  1  0  0  0
 18 19  1  0  0  0
 18 37  1  0  0  0
 18 38  1  0  0  0
 19 20  1  0  0  0
 19 39  1  0  0  0
 19 40  1  0  0  0
 20 21  1  0  0  0
 20 22  1  0  0  0
 20 41  1  0  0  0
 21 23  1  0  0  0
 21 24  2  0  0  0
 22 42  1  0  0  0
 22 43  1  0  0  0
 23 44  1  0  0  0
 23 45  1  0  0  0
M  END
> <s_m_entry_id>
6605

> <s_m_entry_name>
dock_pv.35

> <s_m_Source_Path>
/home/csk/Desktop/cluster/DUD-E-result/lkha4

> <s_m_Source_File>
dock_pv.maegz

> <i_m_Source_File_Index>
35

> <chembl_id>
CHEMBL478717

> <chembl_pref_name>
None

> <i_lp_mmshare_version>
53161

> <i_f3d_flags>
0

> <r_lp_tautomer_probability>
1

> <s_lp_Force_Field>
OPLS_2005

> <r_lp_Energy>
20.621847

> <b_lp_Chiralities_Consistent>
1

> <s_lp_Variant>
CHEMBL4618_lig189-1

> <s_i_glide_gridfile>
glide-grid_3chp

> <i_i_glide_lignum>
216

> <i_i_glide_rotatable_bonds>
9

> <r_i_docking_score>
-10.8612042346911

> <r_i_glide_ligand_efficiency>
-0.452550176445464

> <r_i_glide_ligand_efficiency_sa>
-1.30538059365917

> <r_i_glide_ligand_efficiency_ln>
-2.59958456154851

> <r_i_glide_gscore>
-10.8612042346911

> <r_i_glide_lipo>
-4.68503403201571

> <r_i_glide_hbond>
-1.01666559970836

> <r_i_glide_metal>
0

> <r_i_glide_rewards>
-1.53214745974267

> <r_i_glide_evdw>
-30.9324932098389

> <r_i_glide_ecoul>
-21.8772945404053

> <r_i_glide_erotb>
1.40086169832835

> <r_i_glide_esite>
-0.2

> <r_i_glide_emodel>
-83.6050871190996

> <r_i_glide_energy>
-52.8097877502441

> <r_i_glide_einternal>
10.9675197601318

> <i_i_glide_confnum>
88

> <i_i_glide_posenum>
323

> <r_i_glide_eff_state_penalty>
0

> <s_user_duplicate_titles>
CHEMBL4618_lig189,507001

> <s_m_subgroup_title>
dock_pv

> <s_m_subgroupid>
dock_pv

> <b_m_subgroup_collapsed>
1

$$$$
CHEMBL4618_lig27
                    3D
 Schrodinger Suite 2021-1.
 54 56  0  0  1  0            999 V2000
   15.5669   42.1174   64.8333 C   0  0  0  0  0  0
   11.3918   42.8485   65.9624 N   0  0  1  0  0  0
   14.0199   42.1979   64.7706 C   0  0  0  0  0  0
   16.1200   41.0168   64.7383 O   0  0  0  0  0  0
   16.2619   43.2234   65.1400 N   0  0  0  0  0  0
   13.4171   41.3937   65.9399 C   0  0  0  0  0  0
   13.4447   43.6308   64.7395 C   0  0  0  0  0  0
   11.8849   41.4646   65.9905 C   0  0  0  0  0  0
   11.9018   43.5969   64.8053 C   0  0  0  0  0  0
    8.1083   37.8838   69.6672 C   0  0  0  0  0  0
    7.7217   36.8143   70.6899 C   0  0  0  0  0  0
    8.7034   39.9223   67.8190 C   0  0  0  0  0  0
    8.1954   37.6013   68.3060 C   0  0  0  0  0  0
    8.2575   39.1975   70.0795 C   0  0  0  0  0  0
    8.5207   40.2170   69.1712 C   0  0  0  0  0  0
    8.5209   38.6087   67.3929 C   0  0  0  0  0  0
    8.7592   36.3859   71.7366 C   0  0  0  0  0  0
    9.0516   40.8554   66.8624 O   0  0  0  0  0  0
    9.9269   42.9710   66.0613 C   0  0  0  0  0  0
    9.2776   42.2163   67.2413 C   0  0  0  0  0  0
   17.7165   43.3063   65.2379 C   0  0  0  0  0  0
    9.0332   35.0282   71.9327 C   0  0  0  0  0  0
    9.3815   37.3230   72.5657 C   0  0  0  0  0  0
    9.9315   34.6155   72.9114 C   0  0  0  0  0  0
   10.2633   36.9118   73.5570 C   0  0  0  0  0  0
   10.5209   35.5585   73.7415 C   0  0  0  0  0  0
   13.7732   41.6877   63.8368 H   0  0  0  0  0  0
   15.7687   44.1011   65.0665 H   0  0  0  0  0  0
   13.6755   40.3362   65.8852 H   0  0  0  0  0  0
   13.7208   41.8244   66.8908 H   0  0  0  0  0  0
   13.7539   44.2165   65.6056 H   0  0  0  0  0  0
   13.7164   44.1368   63.8121 H   0  0  0  0  0  0
   11.4512   40.8840   65.1848 H   0  0  0  0  0  0
   11.5547   40.9887   66.9134 H   0  0  0  0  0  0
   11.4748   43.1980   63.8856 H   0  0  0  0  0  0
   11.5437   44.6174   64.8899 H   0  0  0  0  0  0
    6.8746   37.2107   71.2474 H   0  0  0  0  0  0
    7.3462   35.9393   70.1580 H   0  0  0  0  0  0
    8.0481   36.5949   67.9526 H   0  0  0  0  0  0
    8.1206   39.4190   71.1209 H   0  0  0  0  0  0
    8.5941   41.2270   69.5397 H   0  0  0  0  0  0
    8.6354   38.3666   66.3466 H   0  0  0  0  0  0
    9.6672   44.0263   66.1533 H   0  0  0  0  0  0
    9.4671   42.6201   65.1404 H   0  0  0  0  0  0
    9.9202   42.2999   68.1196 H   0  0  0  0  0  0
    8.3195   42.6762   67.4899 H   0  0  0  0  0  0
   18.0635   44.2140   64.7432 H   0  0  0  0  0  0
   18.2216   42.4659   64.7585 H   0  0  0  0  0  0
   18.0257   43.3468   66.2822 H   0  0  0  0  0  0
    8.5412   34.2826   71.3271 H   0  0  0  0  0  0
    9.1756   38.3729   72.4878 H   0  0  0  0  0  0
   10.1347   33.5639   73.0542 H   0  0  0  0  0  0
   10.7333   37.6400   74.2005 H   0  0  0  0  0  0
   11.1948   35.2391   74.5232 H   0  0  0  0  0  0
  1  3  1  0  0  0
  1  4  2  0  0  0
  1  5  1  0  0  0
  2  9  1  0  0  0
  2 19  1  0  0  0
  2  8  1  0  0  0
  3  6  1  0  0  0
  3  7  1  0  0  0
  3 27  1  0  0  0
  5 21  1  0  0  0
  5 28  1  0  0  0
  6  8  1  0  0  0
  6 29  1  0  0  0
  6 30  1  0  0  0
  7  9  1  0  0  0
  7 31  1  0  0  0
  7 32  1  0  0  0
  8 33  1  0  0  0
  8 34  1  0  0  0
  9 35  1  0  0  0
  9 36  1  0  0  0
 10 13  2  0  0  0
 10 11  1  0  0  0
 10 14  1  0  0  0
 11 17  1  0  0  0
 11 37  1  0  0  0
 11 38  1  0  0  0
 12 18  1  0  0  0
 12 15  1  0  0  0
 12 16  2  0  0  0
 13 16  1  0  0  0
 13 39  1  0  0  0
 14 15  2  0  0  0
 14 40  1  0  0  0
 15 41  1  0  0  0
 16 42  1  0  0  0
 17 22  2  0  0  0
 17 23  1  0  0  0
 18 20  1  0  0  0
 19 20  1  0  0  0
 19 43  1  0  0  0
 19 44  1  0  0  0
 20 45  1  0  0  0
 20 46  1  0  0  0
 21 47  1  0  0  0
 21 48  1  0  0  0
 21 49  1  0  0  0
 22 24  1  0  0  0
 22 50  1  0  0  0
 23 25  2  0  0  0
 23 51  1  0  0  0
 24 26  2  0  0  0
 24 52  1  0  0  0
 25 26  1  0  0  0
 25 53  1  0  0  0
 26 54  1  0  0  0
M  END
> <s_m_entry_id>
6606

> <s_m_entry_name>
dock_pv.36

> <s_m_Source_Path>
/home/csk/Desktop/cluster/DUD-E-result/lkha4

> <s_m_Source_File>
dock_pv.maegz

> <i_m_Source_File_Index>
36

> <chembl_id>
CHEMBL114615

> <chembl_pref_name>
None

> <i_lp_mmshare_version>
53161

> <i_f3d_flags>
0

> <r_lp_tautomer_probability>
1

> <s_lp_Force_Field>
OPLS_2005

> <r_lp_Energy>
27.450241

> <b_lp_Chiralities_Consistent>
1

> <s_lp_Variant>
CHEMBL4618_lig27-1

> <s_i_glide_gridfile>
glide-grid_3chp

> <i_i_glide_lignum>
37

> <i_i_glide_rotatable_bonds>
8

> <r_i_docking_score>
-10.8432554990655

> <r_i_glide_ligand_efficiency>
-0.417048288425595

> <r_i_glide_ligand_efficiency_sa>
-1.23550391345505

> <r_i_glide_ligand_efficiency_ln>
-2.54650297433223

> <r_i_glide_gscore>
-10.8432554990655

> <r_i_glide_lipo>
-5.72179632862427

> <r_i_glide_hbond>
-0.238580666023229

> <r_i_glide_metal>
0

> <r_i_glide_rewards>
-1.90439089281764

> <r_i_glide_evdw>
-40.3001861572266

> <r_i_glide_ecoul>
-12.2588968276978

> <r_i_glide_erotb>
1.07535622041565

> <r_i_glide_esite>
-0.2

> <r_i_glide_emodel>
-86.9446881079863

> <r_i_glide_energy>
-52.5590829849243

> <r_i_glide_einternal>
7.12518215179443

> <i_i_glide_confnum>
13

> <i_i_glide_posenum>
200

> <r_i_glide_eff_state_penalty>
0

> <s_user_duplicate_titles>
CHEMBL4618_lig27,187660

> <s_m_subgroup_title>
dock_pv

> <s_m_subgroupid>
dock_pv

> <b_m_subgroup_collapsed>
1

$$$$
CHEMBL4618_lig38
                    3D
 Schrodinger Suite 2021-1.
 51 53  0  0  1  0            999 V2000
   11.3297   42.5321   65.5400 N   0  0  1  0  0  0
   15.9696   42.2369   64.7539 C   0  0  0  0  0  0
   14.7810   42.8508   64.6521 N   0  0  0  0  0  0
   13.4661   42.2300   64.4257 C   0  0  2  0  0  0
   16.1210   41.0160   64.7400 O   0  0  0  0  0  0
   12.3318   43.2381   64.7440 C   0  0  0  0  0  0
   13.1538   41.0669   65.3952 C   0  0  0  0  0  0
   12.1434   41.6584   66.3584 C   0  0  0  0  0  0
    8.0110   38.1182   69.0556 C   0  0  0  0  0  0
    7.6841   36.9055   69.9323 C   0  0  0  0  0  0
    8.6301   40.3900   67.5399 C   0  0  0  0  0  0
    8.5210   37.9894   67.7712 C   0  0  0  0  0  0
    7.7528   39.3872   69.5400 C   0  0  0  0  0  0
    8.0759   40.5310   68.8132 C   0  0  0  0  0  0
    8.8282   39.1158   67.0134 C   0  0  0  0  0  0
    8.5345   36.6858   71.1942 C   0  0  0  0  0  0
   10.3606   43.3714   66.2503 C   0  0  0  0  0  0
    8.9500   41.4526   66.7322 O   0  0  0  0  0  0
    9.4931   42.6346   67.3061 C   0  0  0  0  0  0
   17.1791   43.1373   64.9743 C   0  0  0  0  0  0
    8.5228   35.4353   71.8225 C   0  0  0  0  0  0
    9.3479   37.6910   71.7333 C   0  0  0  0  0  0
    9.3409   35.1839   72.9177 C   0  0  0  0  0  0
   10.1210   37.4397   72.8628 C   0  0  0  0  0  0
   10.1210   36.1897   73.4557 C   0  0  0  0  0  0
   14.8391   43.8277   64.3921 H   0  0  0  0  0  0
   13.3825   41.8736   63.3961 H   0  0  0  0  0  0
   12.7053   44.0564   65.3649 H   0  0  0  0  0  0
   11.9301   43.7554   63.8732 H   0  0  0  0  0  0
   12.6942   40.2215   64.8813 H   0  0  0  0  0  0
   13.9977   40.6542   65.9400 H   0  0  0  0  0  0
   11.5256   40.9084   66.8526 H   0  0  0  0  0  0
   12.6163   42.2446   67.1400 H   0  0  0  0  0  0
    6.6467   37.0160   70.2502 H   0  0  0  0  0  0
    7.7210   36.0014   69.3231 H   0  0  0  0  0  0
    8.7227   37.0160   67.3681 H   0  0  0  0  0  0
    7.3210   39.4160   70.5173 H   0  0  0  0  0  0
    7.8712   41.5074   69.2271 H   0  0  0  0  0  0
    9.2433   39.0008   66.0221 H   0  0  0  0  0  0
   10.9191   44.1566   66.7399 H   0  0  0  0  0  0
    9.7057   43.8485   65.5206 H   0  0  0  0  0  0
   10.1006   42.4128   68.1855 H   0  0  0  0  0  0
    8.6796   43.2814   67.6380 H   0  0  0  0  0  0
   17.0552   43.7316   65.8791 H   0  0  0  0  0  0
   17.3210   43.8160   64.1350 H   0  0  0  0  0  0
   18.0915   42.5481   65.0711 H   0  0  0  0  0  0
    7.8846   34.6337   71.4949 H   0  0  0  0  0  0
    9.4112   38.6701   71.2907 H   0  0  0  0  0  0
    9.3392   34.2139   73.3855 H   0  0  0  0  0  0
   10.7412   38.2160   73.2823 H   0  0  0  0  0  0
   10.7299   35.9989   74.3274 H   0  0  0  0  0  0
  1  6  1  0  0  0
  1  8  1  0  0  0
  1 17  1  0  0  0
  2  3  1  0  0  0
  2  5  2  0  0  0
  2 20  1  0  0  0
  3  4  1  0  0  0
  3 26  1  0  0  0
  4  6  1  0  0  0
  4  7  1  0  0  0
  4 27  1  0  0  0
  6 28  1  0  0  0
  6 29  1  0  0  0
  7  8  1  0  0  0
  7 30  1  0  0  0
  7 31  1  0  0  0
  8 32  1  0  0  0
  8 33  1  0  0  0
  9 12  2  0  0  0
  9 10  1  0  0  0
  9 13  1  0  0  0
 10 16  1  0  0  0
 10 34  1  0  0  0
 10 35  1  0  0  0
 11 18  1  0  0  0
 11 14  1  0  0  0
 11 15  2  0  0  0
 12 15  1  0  0  0
 12 36  1  0  0  0
 13 14  2  0  0  0
 13 37  1  0  0  0
 14 38  1  0  0  0
 15 39  1  0  0  0
 16 21  2  0  0  0
 16 22  1  0  0  0
 17 19  1  0  0  0
 17 40  1  0  0  0
 17 41  1  0  0  0
 18 19  1  0  0  0
 19 42  1  0  0  0
 19 43  1  0  0  0
 20 44  1  0  0  0
 20 45  1  0  0  0
 20 46  1  0  0  0
 21 23  1  0  0  0
 21 47  1  0  0  0
 22 24  2  0  0  0
 22 48  1  0  0  0
 23 25  2  0  0  0
 23 49  1  0  0  0
 24 25  1  0  0  0
 24 50  1  0  0  0
 25 51  1  0  0  0
M  END
> <s_m_entry_id>
6607

> <s_m_entry_name>
dock_pv.37

> <s_m_Source_Path>
/home/csk/Desktop/cluster/DUD-E-result/lkha4

> <s_m_Source_File>
dock_pv.maegz

> <i_m_Source_File_Index>
37

> <chembl_id>
CHEMBL115188

> <chembl_pref_name>
None

> <i_lp_mmshare_version>
53161

> <i_f3d_flags>
0

> <r_lp_tautomer_probability>
1

> <s_lp_Force_Field>
OPLS_2005

> <r_lp_Energy>
34.904172

> <b_lp_Chiralities_Consistent>
1

> <s_lp_Variant>
CHEMBL4618_lig38-1

> <s_i_glide_gridfile>
glide-grid_3chp

> <i_i_glide_lignum>
52

> <i_i_glide_rotatable_bonds>
8

> <r_i_docking_score>
-10.8385700874501

> <r_i_glide_ligand_efficiency>
-0.433542803498003

> <r_i_glide_ligand_efficiency_sa>
-1.26768684634252

> <r_i_glide_ligand_efficiency_ln>
-2.56906591646098

> <r_i_glide_gscore>
-10.8385700874501

> <r_i_glide_lipo>
-5.36169865511469

> <r_i_glide_hbond>
-0.444605897928847

> <r_i_glide_metal>
0

> <r_i_glide_rewards>
-2.24977624073862

> <r_i_glide_evdw>
-33.1898651123047

> <r_i_glide_ecoul>
-13.9606370925903

> <r_i_glide_erotb>
1.15575205567416

> <r_i_glide_esite>
-0.184652529838297

> <r_i_glide_emodel>
-74.3316170922854

> <r_i_glide_energy>
-47.150502204895

> <r_i_glide_einternal>
13.4271373748779

> <i_i_glide_confnum>
36

> <i_i_glide_posenum>
106

> <r_i_glide_eff_state_penalty>
0

> <s_user_duplicate_titles>
CHEMBL4618_lig38,187927

> <s_m_subgroup_title>
dock_pv

> <s_m_subgroupid>
dock_pv

> <b_m_subgroup_collapsed>
1

$$$$
CHEMBL4618_lig468
                    3D
 Schrodinger Suite 2021-1.
 53 57  0  0  1  0            999 V2000
   18.0306   42.2160   65.1400 O   0  0  0  0  0  0
   16.7650   42.7193   64.8290 C   0  0  0  0  0  0
   15.7885   41.6414   64.3400 C   0  0  0  0  0  0
   14.3737   42.2043   64.1504 C   0  0  0  0  0  0
   13.8727   42.7783   65.4039 N   0  0  2  0  0  0
   12.5155   43.3263   65.2379 C   0  0  0  0  0  0
   11.4868   42.4574   65.9308 C   0  0  0  0  0  0
   11.6396   41.0759   65.9400 C   0  0  0  0  0  0
   10.7016   40.2285   66.3846 N   0  0  0  0  0  0
    9.6867   40.7351   67.0997 C   0  0  0  0  0  0
    8.9210   39.8237   67.8282 C   0  0  0  0  0  0
    7.9688   40.2968   68.7124 C   0  0  0  0  0  0
    7.3210   39.4094   69.5267 O   0  0  0  0  0  0
    7.9809   38.6160   70.4432 C   0  0  0  0  0  0
    7.2280   37.7256   71.1975 C   0  0  0  0  0  0
    7.8703   36.9278   72.1440 C   0  0  0  0  0  0
    9.2433   37.0413   72.3207 C   0  0  0  0  0  0
    9.9284   37.9681   71.5400 C   0  0  0  0  0  0
    9.3210   38.7533   70.6198 N   0  0  0  0  0  0
    9.9324   36.1861   73.2983 C   0  0  0  0  0  0
   10.3169   34.8585   73.2590 C   0  0  0  0  0  0
   10.9301   34.6165   74.4899 C   0  0  0  0  0  0
   10.9210   35.6735   75.2670 N   0  0  0  0  0  0
   10.3198   36.6160   74.5378 N   0  0  0  0  0  0
    7.6491   41.6538   68.7400 C   0  0  0  0  0  0
    8.3533   42.5787   67.9704 C   0  0  0  0  0  0
    9.4370   42.1347   67.1827 C   0  0  0  0  0  0
   10.3288   42.9980   66.4974 C   0  0  0  0  0  0
   14.7554   43.8160   65.9054 C   0  0  0  0  0  0
   16.2309   43.4542   66.0529 C   0  0  0  0  0  0
   18.6375   42.5652   64.4717 H   0  0  0  0  0  0
   16.9210   43.4160   64.0076 H   0  0  0  0  0  0
   16.1305   41.2498   63.3803 H   0  0  0  0  0  0
   15.7210   40.8114   65.0400 H   0  0  0  0  0  0
   14.3701   42.9668   63.3675 H   0  0  0  0  0  0
   13.7106   41.4131   63.8000 H   0  0  0  0  0  0
   12.4235   44.3295   65.6552 H   0  0  0  0  0  0
   12.2408   43.4151   64.1848 H   0  0  0  0  0  0
   12.4855   40.5953   65.4730 H   0  0  0  0  0  0
    9.1464   38.7673   67.7747 H   0  0  0  0  0  0
    6.1616   37.6613   71.0487 H   0  0  0  0  0  0
    7.3209   36.2169   72.7400 H   0  0  0  0  0  0
   10.9943   38.1002   71.6418 H   0  0  0  0  0  0
   10.1748   34.1593   72.4480 H   0  0  0  0  0  0
   11.3537   33.6775   74.8198 H   0  0  0  0  0  0
   10.1279   37.5442   74.9030 H   0  0  0  0  0  0
    6.8617   41.9999   69.3898 H   0  0  0  0  0  0
    8.1173   43.6327   68.0247 H   0  0  0  0  0  0
   10.1386   44.0586   66.4832 H   0  0  0  0  0  0
   14.6801   44.6160   65.1783 H   0  0  0  0  0  0
   14.3751   44.1881   66.8563 H   0  0  0  0  0  0
   16.4066   42.9228   66.9849 H   0  0  0  0  0  0
   16.7912   44.3809   66.1796 H   0  0  0  0  0  0
  1  2  1  0  0  0
  1 31  1  0  0  0
  2  3  1  0  0  0
  2 30  1  0  0  0
  2 32  1  0  0  0
  3  4  1  0  0  0
  3 33  1  0  0  0
  3 34  1  0  0  0
  4  5  1  0  0  0
  4 35  1  0  0  0
  4 36  1  0  0  0
  5  6  1  0  0  0
  5 29  1  0  0  0
  6  7  1  0  0  0
  6 37  1  0  0  0
  6 38  1  0  0  0
  7  8  2  0  0  0
  7 28  1  0  0  0
  8  9  1  0  0  0
  8 39  1  0  0  0
  9 10  2  0  0  0
 10 11  1  0  0  0
 10 27  1  0  0  0
 11 12  2  0  0  0
 11 40  1  0  0  0
 12 13  1  0  0  0
 12 25  1  0  0  0
 13 14  1  0  0  0
 14 15  2  0  0  0
 14 19  1  0  0  0
 15 16  1  0  0  0
 15 41  1  0  0  0
 16 17  2  0  0  0
 16 42  1  0  0  0
 17 18  1  0  0  0
 17 20  1  0  0  0
 18 19  2  0  0  0
 18 43  1  0  0  0
 20 21  2  0  0  0
 20 24  1  0  0  0
 21 22  1  0  0  0
 21 44  1  0  0  0
 22 23  2  0  0  0
 22 45  1  0  0  0
 23 24  1  0  0  0
 24 46  1  0  0  0
 25 26  2  0  0  0
 25 47  1  0  0  0
 26 27  1  0  0  0
 26 48  1  0  0  0
 27 28  2  0  0  0
 28 49  1  0  0  0
 29 30  1  0  0  0
 29 50  1  0  0  0
 29 51  1  0  0  0
 30 52  1  0  0  0
 30 53  1  0  0  0
M  END
> <s_m_entry_id>
6608

> <s_m_entry_name>
dock_pv.38

> <s_m_Source_Path>
/home/csk/Desktop/cluster/DUD-E-result/lkha4

> <s_m_Source_File>
dock_pv.maegz

> <i_m_Source_File_Index>
38

> <chembl_id>
CHEMBL3926577

> <chembl_pref_name>
None

> <i_lp_mmshare_version>
53161

> <i_f3d_flags>
0

> <r_lp_tautomer_probability>
0.5

> <s_lp_Force_Field>
OPLS_2005

> <r_lp_Energy>
27.762971

> <b_lp_Chiralities_Consistent>
1

> <s_lp_Variant>
CHEMBL4618_lig468-1

> <s_i_glide_gridfile>
glide-grid_3chp

> <i_i_glide_lignum>
551

> <i_i_glide_rotatable_bonds>
6

> <r_i_docking_score>
-10.8339188202867

> <r_i_glide_ligand_efficiency>
-0.361130627342889

> <r_i_glide_ligand_efficiency_sa>
-1.12211682290315

> <r_i_glide_ligand_efficiency_ln>
-2.46158440096934

> <r_i_glide_gscore>
-10.8339188202867

> <r_i_glide_lipo>
-5.25546995365219

> <r_i_glide_hbond>
-0.392020581030414

> <r_i_glide_metal>
0

> <r_i_glide_rewards>
-2.32185668181818

> <r_i_glide_evdw>
-48.0401763916016

> <r_i_glide_ecoul>
-7.14037132263184

> <r_i_glide_erotb>
0.608492914188981

> <r_i_glide_esite>
0

> <r_i_glide_emodel>
-68.6866246531767

> <r_i_glide_energy>
-55.1805477142334

> <r_i_glide_einternal>
10.9051179885864

> <i_i_glide_confnum>
4

> <i_i_glide_posenum>
139

> <r_i_glide_eff_state_penalty>
0

> <s_user_duplicate_titles>
CHEMBL4618_lig468,CHEMBL4618_lig468

> <s_m_subgroup_title>
dock_pv

> <s_m_subgroupid>
dock_pv

> <b_m_subgroup_collapsed>
1

$$$$
CHEMBL4618_lig28
                    3D
 Schrodinger Suite 2021-1.
 48 50  0  0  1  0            999 V2000
   14.8076   42.6952   64.1666 C   0  0  2  0  0  0
   16.1742   42.5221   64.8662 C   0  0  0  0  0  0
   12.6072   42.9216   65.1464 N   0  0  1  0  0  0
   13.8611   43.6414   64.9436 C   0  0  0  0  0  0
   13.9650   41.4115   64.0689 C   0  0  0  0  0  0
   16.6210   41.4160   65.1400 O   0  0  0  0  0  0
   12.9975   41.5220   65.2348 C   0  0  0  0  0  0
   16.8900   43.6072   65.1400 N   0  0  0  0  0  0
    8.1063   39.3177   68.8805 C   0  0  0  0  0  0
    7.3554   38.4243   69.8550 C   0  0  0  0  0  0
    9.4207   40.9559   67.0369 C   0  0  0  0  0  0
    8.1670   40.6982   69.0797 C   0  0  0  0  0  0
    8.6636   38.7630   67.7328 C   0  0  0  0  0  0
    9.3207   39.5822   66.8232 C   0  0  0  0  0  0
    8.8240   41.5179   68.1705 C   0  0  0  0  0  0
    8.2123   37.5975   70.7965 C   0  0  0  0  0  0
   11.7858   43.4160   66.2490 C   0  0  0  0  0  0
   10.1210   41.6453   66.0720 O   0  0  0  0  0  0
   10.2944   43.0570   66.0969 C   0  0  0  0  0  0
    8.2200   36.2160   70.6717 C   0  0  0  0  0  0
    8.9153   38.1985   71.8346 C   0  0  0  0  0  0
    8.9167   35.4240   71.5828 C   0  0  0  0  0  0
    9.6363   37.4160   72.7370 C   0  0  0  0  0  0
    9.6264   36.0297   72.6147 C   0  0  0  0  0  0
   14.9633   43.0160   63.1397 H   0  0  0  0  0  0
   14.2790   43.9199   65.9142 H   0  0  0  0  0  0
   13.7210   44.6042   64.4498 H   0  0  0  0  0  0
   13.3941   41.3888   63.1400 H   0  0  0  0  0  0
   14.5319   40.4857   64.0653 H   0  0  0  0  0  0
   12.1407   40.8574   65.1400 H   0  0  0  0  0  0
   13.4358   41.2941   66.2081 H   0  0  0  0  0  0
   17.8154   43.5051   65.5259 H   0  0  0  0  0  0
   16.6450   44.4416   64.6230 H   0  0  0  0  0  0
    6.6967   39.0160   70.4789 H   0  0  0  0  0  0
    6.7040   37.7670   69.2772 H   0  0  0  0  0  0
    7.7210   41.1590   69.9400 H   0  0  0  0  0  0
    8.6036   37.7000   67.5489 H   0  0  0  0  0  0
    9.7603   39.1431   65.9400 H   0  0  0  0  0  0
    8.8542   42.5730   68.3851 H   0  0  0  0  0  0
   12.1748   43.0712   67.2080 H   0  0  0  0  0  0
   11.8623   44.4986   66.2511 H   0  0  0  0  0  0
    9.7032   43.5868   66.8370 H   0  0  0  0  0  0
    9.9345   43.4365   65.1400 H   0  0  0  0  0  0
    7.6676   35.7778   69.8597 H   0  0  0  0  0  0
    8.8724   39.2694   71.9399 H   0  0  0  0  0  0
    8.9010   34.3475   71.4927 H   0  0  0  0  0  0
   10.1859   37.8803   73.5400 H   0  0  0  0  0  0
   10.1694   35.4220   73.3239 H   0  0  0  0  0  0
  1  2  1  0  0  0
  1  4  1  0  0  0
  1  5  1  0  0  0
  1 25  1  0  0  0
  2  6  2  0  0  0
  2  8  1  0  0  0
  3  4  1  0  0  0
  3 17  1  0  0  0
  3  7  1  0  0  0
  4 26  1  0  0  0
  4 27  1  0  0  0
  5  7  1  0  0  0
  5 28  1  0  0  0
  5 29  1  0  0  0
  7 30  1  0  0  0
  7 31  1  0  0  0
  8 32  1  0  0  0
  8 33  1  0  0  0
  9 12  2  0  0  0
  9 10  1  0  0  0
  9 13  1  0  0  0
 10 16  1  0  0  0
 10 34  1  0  0  0
 10 35  1  0  0  0
 11 18  1  0  0  0
 11 14  1  0  0  0
 11 15  2  0  0  0
 12 15  1  0  0  0
 12 36  1  0  0  0
 13 14  2  0  0  0
 13 37  1  0  0  0
 14 38  1  0  0  0
 15 39  1  0  0  0
 16 20  2  0  0  0
 16 21  1  0  0  0
 17 19  1  0  0  0
 17 40  1  0  0  0
 17 41  1  0  0  0
 18 19  1  0  0  0
 19 42  1  0  0  0
 19 43  1  0  0  0
 20 22  1  0  0  0
 20 44  1  0  0  0
 21 23  2  0  0  0
 21 45  1  0  0  0
 22 24  2  0  0  0
 22 46  1  0  0  0
 23 24  1  0  0  0
 23 47  1  0  0  0
 24 48  1  0  0  0
M  END
> <s_m_entry_id>
6609

> <s_m_entry_name>
dock_pv.39

> <s_m_Source_Path>
/home/csk/Desktop/cluster/DUD-E-result/lkha4

> <s_m_Source_File>
dock_pv.maegz

> <i_m_Source_File_Index>
39

> <chembl_id>
CHEMBL115445

> <chembl_pref_name>
None

> <i_lp_mmshare_version>
53161

> <i_f3d_flags>
0

> <r_lp_tautomer_probability>
1

> <s_lp_Force_Field>
OPLS_2005

> <r_lp_Energy>
34.075912

> <b_lp_Chiralities_Consistent>
1

> <s_lp_Variant>
CHEMBL4618_lig28-1

> <s_i_glide_gridfile>
glide-grid_3chp

> <i_i_glide_lignum>
38

> <i_i_glide_rotatable_bonds>
7

> <r_i_docking_score>
-10.8242855177932

> <r_i_glide_ligand_efficiency>
-0.451011896574715

> <r_i_glide_ligand_efficiency_sa>
-1.30094342669867

> <r_i_glide_ligand_efficiency_ln>
-2.59074821850529

> <r_i_glide_gscore>
-10.8242855177932

> <r_i_glide_lipo>
-4.94252167816222

> <r_i_glide_hbond>
-0.574348505389574

> <r_i_glide_metal>
0

> <r_i_glide_rewards>
-2.09715608553194

> <r_i_glide_evdw>
-40.6939086914062

> <r_i_glide_ecoul>
-13.6213045120239

> <r_i_glide_erotb>
1.06763186266448

> <r_i_glide_esite>
-0.2

> <r_i_glide_emodel>
-87.7213392816757

> <r_i_glide_energy>
-54.3152132034302

> <r_i_glide_einternal>
2.76924300193787

> <i_i_glide_confnum>
79

> <i_i_glide_posenum>
321

> <r_i_glide_eff_state_penalty>
0

> <s_user_duplicate_titles>
CHEMBL4618_lig28,188066

> <s_m_subgroup_title>
dock_pv

> <s_m_subgroupid>
dock_pv

> <b_m_subgroup_collapsed>
1

$$$$
CHEMBL4618_lig469
                    3D
 Schrodinger Suite 2021-1.
 50 54  0  0  1  0            999 V2000
   18.5591   43.0160   67.3007 C   0  0  0  0  0  0
   18.0187   43.4787   65.9339 C   0  0  0  0  0  0
   19.1064   43.9198   65.1400 O   0  0  0  0  0  0
   16.9888   42.5564   65.2760 C   0  0  0  0  0  0
   15.8911   43.3038   65.9077 N   0  0  2  0  0  0
   14.6695   43.5766   65.1400 C   0  0  0  0  0  0
   13.4557   42.7556   65.4861 C   0  0  0  0  0  0
   13.4717   41.3951   65.2506 C   0  0  0  0  0  0
   12.4357   40.5918   65.5415 N   0  0  0  0  0  0
   11.3239   41.1225   66.1388 C   0  0  0  0  0  0
   10.2723   40.2729   66.5641 C   0  0  0  0  0  0
    9.1148   40.7708   67.1400 C   0  0  0  0  0  0
    8.1210   39.8910   67.5008 O   0  0  0  0  0  0
    8.2035   39.0631   68.6031 C   0  0  0  0  0  0
    7.5723   37.8160   68.5979 C   0  0  0  0  0  0
    7.7390   36.9691   69.7027 C   0  0  0  0  0  0
    8.5245   37.3824   70.7840 C   0  0  0  0  0  0
    9.0616   38.6636   70.7244 C   0  0  0  0  0  0
    8.9210   39.4915   69.6662 N   0  0  0  0  0  0
    8.9791   36.5218   71.9127 C   0  0  0  0  0  0
    9.5721   36.8335   73.1281 C   0  0  0  0  0  0
   10.0040   35.6296   73.6813 C   0  0  0  0  0  0
    9.7211   34.6159   72.9056 N   0  0  0  0  0  0
    9.0462   35.1535   71.8836 N   0  0  0  0  0  0
    8.9203   42.1466   67.1963 C   0  0  0  0  0  0
    9.9148   43.0160   66.7455 C   0  0  0  0  0  0
   11.1632   42.5243   66.2871 C   0  0  0  0  0  0
   12.2683   43.3440   65.9399 C   0  0  0  0  0  0
   16.8326   44.4185   66.0634 C   0  0  0  0  0  0
   17.7662   42.6450   67.9521 H   0  0  0  0  0  0
   19.0550   43.8344   67.8227 H   0  0  0  0  0  0
   19.2904   42.2160   67.1818 H   0  0  0  0  0  0
   18.9006   43.8160   64.1941 H   0  0  0  0  0  0
   16.9842   42.6454   64.1852 H   0  0  0  0  0  0
   17.0381   41.5028   65.5399 H   0  0  0  0  0  0
   14.3912   44.6160   65.2427 H   0  0  0  0  0  0
   14.8636   43.4159   64.0794 H   0  0  0  0  0  0
   14.3347   40.9117   64.8210 H   0  0  0  0  0  0
   10.3305   39.2176   66.3839 H   0  0  0  0  0  0
    7.0018   37.4993   67.7379 H   0  0  0  0  0  0
    7.3211   35.9748   69.6922 H   0  0  0  0  0  0
    9.7027   39.0160   71.5091 H   0  0  0  0  0  0
    9.7233   37.8163   73.5400 H   0  0  0  0  0  0
   10.5295   35.5030   74.6172 H   0  0  0  0  0  0
    8.6892   34.5856   71.1270 H   0  0  0  0  0  0
    7.9838   42.5411   67.5661 H   0  0  0  0  0  0
    9.7310   44.0784   66.7400 H   0  0  0  0  0  0
   12.1797   44.4122   66.0423 H   0  0  0  0  0  0
   16.7277   44.9753   66.9952 H   0  0  0  0  0  0
   16.7761   45.1181   65.2291 H   0  0  0  0  0  0
  1  2  1  0  0  0
  1 30  1  0  0  0
  1 31  1  0  0  0
  1 32  1  0  0  0
  2  3  1  0  0  0
  2  4  1  0  0  0
  2 29  1  0  0  0
  3 33  1  0  0  0
  4  5  1  0  0  0
  4 34  1  0  0  0
  4 35  1  0  0  0
  5  6  1  0  0  0
  5 29  1  0  0  0
  6  7  1  0  0  0
  6 36  1  0  0  0
  6 37  1  0  0  0
  7  8  2  0  0  0
  7 28  1  0  0  0
  8  9  1  0  0  0
  8 38  1  0  0  0
  9 10  2  0  0  0
 10 11  1  0  0  0
 10 27  1  0  0  0
 11 12  2  0  0  0
 11 39  1  0  0  0
 12 13  1  0  0  0
 12 25  1  0  0  0
 13 14  1  0  0  0
 14 15  2  0  0  0
 14 19  1  0  0  0
 15 16  1  0  0  0
 15 40  1  0  0  0
 16 17  2  0  0  0
 16 41  1  0  0  0
 17 18  1  0  0  0
 17 20  1  0  0  0
 18 19  2  0  0  0
 18 42  1  0  0  0
 20 21  2  0  0  0
 20 24  1  0  0  0
 21 22  1  0  0  0
 21 43  1  0  0  0
 22 23  2  0  0  0
 22 44  1  0  0  0
 23 24  1  0  0  0
 24 45  1  0  0  0
 25 26  2  0  0  0
 25 46  1  0  0  0
 26 27  1  0  0  0
 26 47  1  0  0  0
 27 28  2  0  0  0
 28 48  1  0  0  0
 29 49  1  0  0  0
 29 50  1  0  0  0
M  END
> <s_m_entry_id>
6610

> <s_m_entry_name>
dock_pv.40

> <s_m_Source_Path>
/home/csk/Desktop/cluster/DUD-E-result/lkha4

> <s_m_Source_File>
dock_pv.maegz

> <i_m_Source_File_Index>
40

> <chembl_id>
CHEMBL3902086

> <chembl_pref_name>
None

> <i_lp_mmshare_version>
53161

> <i_f3d_flags>
0

> <r_lp_tautomer_probability>
0.5

> <s_lp_Force_Field>
OPLS_2005

> <r_lp_Energy>
35.411317

> <b_lp_Chiralities_Consistent>
1

> <s_lp_Variant>
CHEMBL4618_lig469-1

> <s_i_glide_gridfile>
glide-grid_3chp

> <i_i_glide_lignum>
553

> <i_i_glide_rotatable_bonds>
6

> <r_i_docking_score>
-10.8019267480998

> <r_i_glide_ligand_efficiency>
-0.372480232693095

> <r_i_glide_ligand_efficiency_sa>
-1.14437728485389

> <r_i_glide_ligand_efficiency_ln>
-2.47336731208639

> <r_i_glide_gscore>
-10.8019267480998

> <r_i_glide_lipo>
-5.27123171418854

> <r_i_glide_hbond>
-0.360706777778565

> <r_i_glide_metal>
0

> <r_i_glide_rewards>
-2.41749245454545

> <r_i_glide_evdw>
-42.3284530639648

> <r_i_glide_ecoul>
-8.56493282318115

> <r_i_glide_erotb>
0.648666775088222

> <r_i_glide_esite>
0

> <r_i_glide_emodel>
-62.7384189091396

> <r_i_glide_energy>
-50.893385887146

> <r_i_glide_einternal>
6.57253980636597

> <i_i_glide_confnum>
50

> <i_i_glide_posenum>
239

> <r_i_glide_eff_state_penalty>
0

> <s_user_duplicate_titles>
CHEMBL4618_lig469,CHEMBL4618_lig469

> <s_m_subgroup_title>
dock_pv

> <s_m_subgroupid>
dock_pv

> <b_m_subgroup_collapsed>
1

$$$$
CHEMBL4618_lig29
                    3D
 Schrodinger Suite 2021-1.
 51 53  0  0  1  0            999 V2000
   11.4216   42.7256   65.4943 N   0  0  2  0  0  0
   16.3721   42.6172   65.1400 C   0  0  0  0  0  0
   16.5210   41.4160   64.9726 O   0  0  0  0  0  0
   12.5922   42.7591   66.3592 C   0  0  0  0  0  0
   13.7892   42.4934   65.4201 C   0  0  2  0  0  0
   15.1232   43.1607   65.8556 C   0  0  0  0  0  0
   11.8764   43.5233   64.3697 C   0  0  0  0  0  0
   17.3039   43.4729   64.7400 N   0  0  0  0  0  0
    8.0843   38.0895   69.5796 C   0  0  0  0  0  0
    7.6525   37.0300   70.6011 C   0  0  0  0  0  0
    8.7584   40.0762   67.6899 C   0  0  0  0  0  0
   13.2803   43.0070   64.0624 C   0  0  0  0  0  0
    8.2117   37.7714   68.2312 C   0  0  0  0  0  0
    8.2353   39.4160   69.9563 C   0  0  0  0  0  0
    8.5210   40.4077   69.0285 C   0  0  0  0  0  0
    8.5579   38.7506   67.2932 C   0  0  0  0  0  0
    8.6681   36.5590   71.6505 C   0  0  0  0  0  0
   10.1320   43.1739   66.0275 C   0  0  0  0  0  0
    9.1981   40.9893   66.7422 O   0  0  0  0  0  0
    9.5724   42.3064   67.1737 C   0  0  0  0  0  0
    8.9712   35.1997   71.7809 C   0  0  0  0  0  0
    9.2422   37.4585   72.5488 C   0  0  0  0  0  0
    9.8636   34.7517   72.7503 C   0  0  0  0  0  0
   10.1210   37.0146   73.5346 C   0  0  0  0  0  0
   10.4251   35.6612   73.6373 C   0  0  0  0  0  0
   12.4944   42.0091   67.1400 H   0  0  0  0  0  0
   12.6629   43.7062   66.8964 H   0  0  0  0  0  0
   13.9185   41.4089   65.3719 H   0  0  0  0  0  0
   15.2782   43.0161   66.9212 H   0  0  0  0  0  0
   15.0518   44.2351   65.7203 H   0  0  0  0  0  0
   11.8600   44.5882   64.6110 H   0  0  0  0  0  0
   11.1799   43.4160   63.5400 H   0  0  0  0  0  0
   18.0687   43.1314   64.1607 H   0  0  0  0  0  0
   17.0418   44.4373   64.6269 H   0  0  0  0  0  0
    6.7814   37.4160   71.1329 H   0  0  0  0  0  0
    7.2959   36.1604   70.0495 H   0  0  0  0  0  0
   13.8854   43.8117   63.6489 H   0  0  0  0  0  0
   13.2702   42.2160   63.3113 H   0  0  0  0  0  0
    8.0772   36.7433   67.9400 H   0  0  0  0  0  0
    8.1210   39.6967   70.9872 H   0  0  0  0  0  0
    8.6157   41.4211   69.3844 H   0  0  0  0  0  0
    8.7113   38.4757   66.2597 H   0  0  0  0  0  0
   10.1995   44.2146   66.3400 H   0  0  0  0  0  0
    9.4032   43.1556   65.2162 H   0  0  0  0  0  0
   10.3071   42.2534   67.9770 H   0  0  0  0  0  0
    8.6918   42.8108   67.5756 H   0  0  0  0  0  0
    8.5210   34.4649   71.1400 H   0  0  0  0  0  0
    8.9903   38.5049   72.5108 H   0  0  0  0  0  0
   10.0967   33.6997   72.8337 H   0  0  0  0  0  0
   10.5638   37.7163   74.2238 H   0  0  0  0  0  0
   11.1007   35.3154   74.4063 H   0  0  0  0  0  0
  1  4  1  0  0  0
  1  7  1  0  0  0
  1 18  1  0  0  0
  2  6  1  0  0  0
  2  3  2  0  0  0
  2  8  1  0  0  0
  4  5  1  0  0  0
  4 26  1  0  0  0
  4 27  1  0  0  0
  5  6  1  0  0  0
  5 12  1  0  0  0
  5 28  1  0  0  0
  6 29  1  0  0  0
  6 30  1  0  0  0
  7 12  1  0  0  0
  7 31  1  0  0  0
  7 32  1  0  0  0
  8 33  1  0  0  0
  8 34  1  0  0  0
  9 13  2  0  0  0
  9 10  1  0  0  0
  9 14  1  0  0  0
 10 17  1  0  0  0
 10 35  1  0  0  0
 10 36  1  0  0  0
 11 19  1  0  0  0
 11 15  1  0  0  0
 11 16  2  0  0  0
 12 37  1  0  0  0
 12 38  1  0  0  0
 13 16  1  0  0  0
 13 39  1  0  0  0
 14 15  2  0  0  0
 14 40  1  0  0  0
 15 41  1  0  0  0
 16 42  1  0  0  0
 17 21  2  0  0  0
 17 22  1  0  0  0
 18 20  1  0  0  0
 18 43  1  0  0  0
 18 44  1  0  0  0
 19 20  1  0  0  0
 20 45  1  0  0  0
 20 46  1  0  0  0
 21 23  1  0  0  0
 21 47  1  0  0  0
 22 24  2  0  0  0
 22 48  1  0  0  0
 23 25  2  0  0  0
 23 49  1  0  0  0
 24 25  1  0  0  0
 24 50  1  0  0  0
 25 51  1  0  0  0
M  END
> <s_m_entry_id>
6611

> <s_m_entry_name>
dock_pv.41

> <s_m_Source_Path>
/home/csk/Desktop/cluster/DUD-E-result/lkha4

> <s_m_Source_File>
dock_pv.maegz

> <i_m_Source_File_Index>
41

> <chembl_id>
CHEMBL115295

> <chembl_pref_name>
None

> <i_lp_mmshare_version>
53161

> <i_f3d_flags>
0

> <r_lp_tautomer_probability>
1

> <s_lp_Force_Field>
OPLS_2005

> <r_lp_Energy>
33.931697

> <b_lp_Chiralities_Consistent>
1

> <s_lp_Variant>
CHEMBL4618_lig29-1

> <s_i_glide_gridfile>
glide-grid_3chp

> <i_i_glide_lignum>
40

> <i_i_glide_rotatable_bonds>
8

> <r_i_docking_score>
-10.7989151664416

> <r_i_glide_ligand_efficiency>
-0.431956606657665

> <r_i_glide_ligand_efficiency_sa>
-1.26304877865005

> <r_i_glide_ligand_efficiency_ln>
-2.55966651181988

> <r_i_glide_gscore>
-10.7989151664416

> <r_i_glide_lipo>
-5.43125078817172

> <r_i_glide_hbond>
-0.528373460576343

> <r_i_glide_metal>
0

> <r_i_glide_rewards>
-2.00088379940226

> <r_i_glide_evdw>
-43.4288063049316

> <r_i_glide_ecoul>
-10.8181257247925

> <r_i_glide_erotb>
1.15575205567416

> <r_i_glide_esite>
-0.2

> <r_i_glide_emodel>
-89.7833182300201

> <r_i_glide_energy>
-54.2469320297241

> <r_i_glide_einternal>
2.45875144004822

> <i_i_glide_confnum>
28

> <i_i_glide_posenum>
272

> <r_i_glide_eff_state_penalty>
0

> <s_user_duplicate_titles>
CHEMBL4618_lig29

> <s_m_subgroup_title>
dock_pv

> <s_m_subgroupid>
dock_pv

> <b_m_subgroup_collapsed>
1

$$$$
CHEMBL4618_lig483
                    3D
 Schrodinger Suite 2021-1.
 60 65  0  0  1  0            999 V2000
   18.8464   45.5849   68.3728 O   0  0  0  0  0  0
   19.0562   44.8093   67.4342 C   0  0  0  0  0  0
   20.4549   44.8479   66.7973 C   0  0  0  0  0  0
   21.6108   44.8640   67.7785 C   0  0  0  0  0  0
   21.3180   43.6143   66.9679 C   0  0  0  0  0  0
   18.1649   43.8646   67.0335 N   0  0  0  0  0  0
   16.9224   43.6468   67.7992 C   0  0  0  0  0  0
   15.7172   43.9428   66.8756 C   0  0  0  0  0  0
   15.7498   43.1414   65.6488 N   0  0  0  0  0  0
   14.5513   43.4161   64.8255 C   0  0  0  0  0  0
   13.2861   42.7293   65.3349 C   0  0  0  0  0  0
   13.2890   41.3506   65.4773 C   0  0  0  0  0  0
   12.2389   40.6472   65.9399 N   0  0  0  0  0  0
   11.1205   41.2974   66.3399 C   0  0  0  0  0  0
   10.0800   40.5503   66.9410 C   0  0  0  0  0  0
    8.9045   41.1647   67.3642 C   0  0  0  0  0  0
    7.8772   40.4375   67.9401 O   0  0  0  0  0  0
    8.1010   39.4016   68.8253 C   0  0  0  0  0  0
    7.4847   38.1477   68.7054 C   0  0  0  0  0  0
    7.7228   37.1809   69.6997 C   0  0  0  0  0  0
    8.5535   37.4883   70.7849 C   0  0  0  0  0  0
    9.1395   38.7461   70.7842 C   0  0  0  0  0  0
    8.9209   39.6884   69.8512 N   0  0  0  0  0  0
    8.9588   36.5622   71.8837 C   0  0  0  0  0  0
    9.1329   35.1915   71.9399 C   0  0  0  0  0  0
    9.7213   34.9260   73.1793 C   0  0  0  0  0  0
    9.8228   35.9979   73.9218 N   0  0  0  0  0  0
    9.3541   36.9719   73.1383 N   0  0  0  0  0  0
    8.7207   42.5201   67.0949 C   0  0  0  0  0  0
    9.7178   43.2744   66.4679 C   0  0  0  0  0  0
   10.9694   42.6954   66.1379 C   0  0  0  0  0  0
   12.0928   43.4145   65.6173 C   0  0  0  0  0  0
   16.9767   43.4757   64.9157 C   0  0  0  0  0  0
   18.2674   43.1809   65.7232 C   0  0  0  0  0  0
   20.5222   45.4137   65.8707 H   0  0  0  0  0  0
   21.4178   44.8356   68.8520 H   0  0  0  0  0  0
   22.4827   45.4706   67.5410 H   0  0  0  0  0  0
   21.9886   43.3387   66.1530 H   0  0  0  0  0  0
   20.9136   42.7353   67.4739 H   0  0  0  0  0  0
   16.9094   42.6164   68.1517 H   0  0  0  0  0  0
   16.8528   44.2854   68.6814 H   0  0  0  0  0  0
   15.7816   44.9990   66.6325 H   0  0  0  0  0  0
   14.7575   43.8163   67.3700 H   0  0  0  0  0  0
   14.3763   44.4891   64.7400 H   0  0  0  0  0  0
   14.7167   43.0296   63.8164 H   0  0  0  0  0  0
   14.1576   40.7656   65.2220 H   0  0  0  0  0  0
   10.1866   39.4837   67.0642 H   0  0  0  0  0  0
    6.8406   37.9316   67.8661 H   0  0  0  0  0  0
    7.2980   36.1928   69.6254 H   0  0  0  0  0  0
    9.8487   39.0154   71.5395 H   0  0  0  0  0  0
    8.9207   34.4823   71.1521 H   0  0  0  0  0  0
   10.0327   33.9562   73.5411 H   0  0  0  0  0  0
    9.3210   37.9277   73.4647 H   0  0  0  0  0  0
    7.7893   42.9947   67.3735 H   0  0  0  0  0  0
    9.5443   44.3201   66.2797 H   0  0  0  0  0  0
   12.0225   44.4822   65.4765 H   0  0  0  0  0  0
   16.9590   44.5509   64.7398 H   0  0  0  0  0  0
   16.9977   42.9791   63.9440 H   0  0  0  0  0  0
   19.1113   43.5274   65.1244 H   0  0  0  0  0  0
   18.3845   42.1072   65.8651 H   0  0  0  0  0  0
  1  2  2  0  0  0
  2  3  1  0  0  0
  2  6  1  0  0  0
  3  4  1  0  0  0
  3  5  1  0  0  0
  3 35  1  0  0  0
  4  5  1  0  0  0
  4 36  1  0  0  0
  4 37  1  0  0  0
  5 38  1  0  0  0
  5 39  1  0  0  0
  6  7  1  0  0  0
  6 34  1  0  0  0
  7  8  1  0  0  0
  7 40  1  0  0  0
  7 41  1  0  0  0
  8  9  1  0  0  0
  8 42  1  0  0  0
  8 43  1  0  0  0
  9 10  1  0  0  0
  9 33  1  0  0  0
 10 11  1  0  0  0
 10 44  1  0  0  0
 10 45  1  0  0  0
 11 12  2  0  0  0
 11 32  1  0  0  0
 12 13  1  0  0  0
 12 46  1  0  0  0
 13 14  2  0  0  0
 14 15  1  0  0  0
 14 31  1  0  0  0
 15 16  2  0  0  0
 15 47  1  0  0  0
 16 17  1  0  0  0
 16 29  1  0  0  0
 17 18  1  0  0  0
 18 19  2  0  0  0
 18 23  1  0  0  0
 19 20  1  0  0  0
 19 48  1  0  0  0
 20 21  2  0  0  0
 20 49  1  0  0  0
 21 22  1  0  0  0
 21 24  1  0  0  0
 22 23  2  0  0  0
 22 50  1  0  0  0
 24 25  2  0  0  0
 24 28  1  0  0  0
 25 26  1  0  0  0
 25 51  1  0  0  0
 26 27  2  0  0  0
 26 52  1  0  0  0
 27 28  1  0  0  0
 28 53  1  0  0  0
 29 30  2  0  0  0
 29 54  1  0  0  0
 30 31  1  0  0  0
 30 55  1  0  0  0
 31 32  2  0  0  0
 32 56  1  0  0  0
 33 34  1  0  0  0
 33 57  1  0  0  0
 33 58  1  0  0  0
 34 59  1  0  0  0
 34 60  1  0  0  0
M  END
> <s_m_entry_id>
6612

> <s_m_entry_name>
dock_pv.42

> <s_m_Source_Path>
/home/csk/Desktop/cluster/DUD-E-result/lkha4

> <s_m_Source_File>
dock_pv.maegz

> <i_m_Source_File_Index>
42

> <chembl_id>
CHEMBL3895554

> <chembl_pref_name>
None

> <i_lp_mmshare_version>
53161

> <i_f3d_flags>
0

> <r_lp_tautomer_probability>
0.5

> <s_lp_Force_Field>
OPLS_2005

> <r_lp_Energy>
55.812889

> <b_lp_Chiralities_Consistent>
1

> <s_lp_Variant>
CHEMBL4618_lig483-1

> <s_i_glide_gridfile>
glide-grid_3chp

> <i_i_glide_lignum>
581

> <i_i_glide_rotatable_bonds>
7

> <r_i_docking_score>
-10.789281959301

> <r_i_glide_ligand_efficiency>
-0.317331822332384

> <r_i_glide_ligand_efficiency_sa>
-1.02803191534048

> <r_i_glide_ligand_efficiency_ln>
-2.38365501391783

> <r_i_glide_gscore>
-10.789281959301

> <r_i_glide_lipo>
-5.36283504973292

> <r_i_glide_hbond>
-0.371989719839087

> <r_i_glide_metal>
0

> <r_i_glide_rewards>
-1.9426758516686

> <r_i_glide_evdw>
-45.3713264465332

> <r_i_glide_ecoul>
-9.82867622375488

> <r_i_glide_erotb>
0.680436470211894

> <r_i_glide_esite>
-0.0493500523824322

> <r_i_glide_emodel>
-69.0494934084859

> <r_i_glide_energy>
-55.2000026702881

> <r_i_glide_einternal>
8.62839508056641

> <i_i_glide_confnum>
6

> <i_i_glide_posenum>
262

> <r_i_glide_eff_state_penalty>
0

> <s_user_duplicate_titles>
CHEMBL4618_lig483,CHEMBL4618_lig483

> <s_m_subgroup_title>
dock_pv

> <s_m_subgroupid>
dock_pv

> <b_m_subgroup_collapsed>
1

$$$$
CHEMBL4618_lig138
                    3D
 Schrodinger Suite 2021-1.
 49 50  0  0  1  0            999 V2000
   16.0272   41.8160   64.3141 C   0  0  0  0  0  0
   16.6230   41.6465   65.3753 O   0  0  0  0  0  0
   14.6023   42.3953   64.1650 C   0  0  0  0  0  0
   13.8981   42.5380   65.4545 N   0  0  2  0  0  0
    8.1194   37.8799   69.7314 C   0  0  0  0  0  0
    7.7211   36.8282   70.7662 C   0  0  0  0  0  0
    8.6960   39.8858   67.8441 C   0  0  0  0  0  0
   16.5210   41.3414   63.1402 O   0  0  0  0  0  0
    8.2721   39.2016   70.1248 C   0  0  0  0  0  0
    8.1998   37.5717   68.3733 C   0  0  0  0  0  0
    8.5210   38.5632   67.4434 C   0  0  0  0  0  0
    8.5210   40.2036   69.1923 C   0  0  0  0  0  0
    8.7689   36.3602   71.7829 C   0  0  0  0  0  0
    9.0319   40.7980   66.8636 O   0  0  0  0  0  0
   12.4797   42.8166   65.1847 C   0  0  0  0  0  0
   14.4032   43.7036   66.1860 C   0  0  0  0  0  0
    9.1497   42.1897   67.1669 C   0  0  0  0  0  0
    9.1354   35.0141   71.8370 C   0  0  0  0  0  0
    9.2861   37.2329   72.7405 C   0  0  0  0  0  0
   11.5695   42.4371   66.3663 C   0  0  0  0  0  0
   10.0939   42.8217   66.1361 C   0  0  0  0  0  0
   10.0360   34.5457   72.7886 C   0  0  0  0  0  0
   10.1492   36.7568   73.7281 C   0  0  0  0  0  0
   10.5210   35.4178   73.7515 C   0  0  0  0  0  0
   14.6151   43.3480   63.6384 H   0  0  0  0  0  0
   14.0215   41.7479   63.5085 H   0  0  0  0  0  0
    6.8911   37.2423   71.3376 H   0  0  0  0  0  0
    7.3211   35.9626   70.2387 H   0  0  0  0  0  0
   15.9160   41.4160   62.3741 H   0  0  0  0  0  0
    8.1342   39.4618   71.1611 H   0  0  0  0  0  0
    8.0515   36.5575   68.0411 H   0  0  0  0  0  0
    8.6324   38.3029   66.4006 H   0  0  0  0  0  0
    8.5776   41.2198   69.5401 H   0  0  0  0  0  0
   12.2990   43.8444   64.8607 H   0  0  0  0  0  0
   12.1490   42.2183   64.3417 H   0  0  0  0  0  0
   13.8917   43.8160   67.1400 H   0  0  0  0  0  0
   15.4651   43.6178   66.4143 H   0  0  0  0  0  0
   14.2603   44.6159   65.6096 H   0  0  0  0  0  0
    9.5608   42.3975   68.1545 H   0  0  0  0  0  0
    8.1606   42.6479   67.1158 H   0  0  0  0  0  0
    8.7158   34.3083   71.1400 H   0  0  0  0  0  0
    8.9895   38.2682   72.7542 H   0  0  0  0  0  0
   11.6147   41.3522   66.4796 H   0  0  0  0  0  0
   11.9249   42.8630   67.3039 H   0  0  0  0  0  0
    9.9922   43.9056   66.1733 H   0  0  0  0  0  0
    9.7723   42.5225   65.1400 H   0  0  0  0  0  0
   10.3153   33.5020   72.8098 H   0  0  0  0  0  0
   10.5273   37.4164   74.4919 H   0  0  0  0  0  0
   11.1884   35.0543   74.5197 H   0  0  0  0  0  0
  1  2  2  0  0  0
  1  3  1  0  0  0
  1  8  1  0  0  0
  3  4  1  0  0  0
  3 25  1  0  0  0
  3 26  1  0  0  0
  4 15  1  0  0  0
  4 16  1  0  0  0
  5  9  2  0  0  0
  5  6  1  0  0  0
  5 10  1  0  0  0
  6 13  1  0  0  0
  6 27  1  0  0  0
  6 28  1  0  0  0
  7 14  1  0  0  0
  7 11  1  0  0  0
  7 12  2  0  0  0
  8 29  1  0  0  0
  9 12  1  0  0  0
  9 30  1  0  0  0
 10 11  2  0  0  0
 10 31  1  0  0  0
 11 32  1  0  0  0
 12 33  1  0  0  0
 13 18  2  0  0  0
 13 19  1  0  0  0
 14 17  1  0  0  0
 15 20  1  0  0  0
 15 34  1  0  0  0
 15 35  1  0  0  0
 16 36  1  0  0  0
 16 37  1  0  0  0
 16 38  1  0  0  0
 17 21  1  0  0  0
 17 39  1  0  0  0
 17 40  1  0  0  0
 18 22  1  0  0  0
 18 41  1  0  0  0
 19 23  2  0  0  0
 19 42  1  0  0  0
 20 21  1  0  0  0
 20 43  1  0  0  0
 20 44  1  0  0  0
 21 45  1  0  0  0
 21 46  1  0  0  0
 22 24  2  0  0  0
 22 47  1  0  0  0
 23 24  1  0  0  0
 23 48  1  0  0  0
 24 49  1  0  0  0
M  END
> <s_m_entry_id>
6613

> <s_m_entry_name>
dock_pv.43

> <s_m_Source_Path>
/home/csk/Desktop/cluster/DUD-E-result/lkha4

> <s_m_Source_File>
dock_pv.maegz

> <i_m_Source_File_Index>
43

> <chembl_id>
CHEMBL117455

> <chembl_pref_name>
None

> <i_lp_mmshare_version>
53161

> <i_f3d_flags>
0

> <r_lp_tautomer_probability>
1

> <s_lp_Force_Field>
OPLS_2005

> <r_lp_Energy>
23.83238

> <b_lp_Chiralities_Consistent>
1

> <s_lp_Variant>
CHEMBL4618_lig138-1

> <s_i_glide_gridfile>
glide-grid_3chp

> <i_i_glide_lignum>
164

> <i_i_glide_rotatable_bonds>
11

> <r_i_docking_score>
-10.776981216274

> <r_i_glide_ligand_efficiency>
-0.449040884011416

> <r_i_glide_ligand_efficiency_sa>
-1.29525804265971

> <r_i_glide_ligand_efficiency_ln>
-2.5794261284988

> <r_i_glide_gscore>
-10.776981216274

> <r_i_glide_lipo>
-5.39401820763152

> <r_i_glide_hbond>
-0.304

> <r_i_glide_metal>
0

> <r_i_glide_rewards>
-2.07665634676976

> <r_i_glide_evdw>
-40.0199699401855

> <r_i_glide_ecoul>
-17.6800651550293

> <r_i_glide_erotb>
1.75070160839096

> <r_i_glide_esite>
-0.1

> <r_i_glide_emodel>
-96.4763170037521

> <r_i_glide_energy>
-57.7000350952148

> <r_i_glide_einternal>
5.25115823745728

> <i_i_glide_confnum>
280

> <i_i_glide_posenum>
265

> <r_i_glide_eff_state_penalty>
0

> <s_user_duplicate_titles>
CHEMBL4618_lig138,192040

> <s_m_subgroup_title>
dock_pv

> <s_m_subgroupid>
dock_pv

> <b_m_subgroup_collapsed>
1

$$$$
CHEMBL4618_lig164
                    3D
 Schrodinger Suite 2021-1.
 63 65  0  0  1  0            999 V2000
   18.3435   44.2167   66.5546 S   0  0  0  0  0  0
   16.7330   43.5466   66.3398 N   0  0  0  0  0  0
   16.3514   42.6129   65.3529 C   0  0  0  0  0  0
   18.1733   45.4158   67.3844 O   0  0  0  0  0  0
   18.9836   44.3239   65.2416 O   0  0  0  0  0  0
   19.2997   43.0599   67.5291 C   0  0  0  0  0  0
   15.0852   43.0000   64.5999 C   0  0  0  0  0  0
   16.9211   41.5373   65.1398 O   0  0  0  0  0  0
   13.8472   42.1322   64.9267 C   0  0  0  0  0  0
   12.7219   42.9447   65.4039 N   0  0  2  0  0  0
    8.0953   37.8376   69.7072 C   0  0  0  0  0  0
    7.7212   36.7816   70.7476 C   0  0  0  0  0  0
    8.7335   39.8429   67.8421 C   0  0  0  0  0  0
    8.1691   37.5388   68.3446 C   0  0  0  0  0  0
    8.2488   39.1566   70.1080 C   0  0  0  0  0  0
    8.5209   38.5306   67.4240 C   0  0  0  0  0  0
    8.5209   40.1561   69.1863 C   0  0  0  0  0  0
    8.7670   36.3633   71.7894 C   0  0  0  0  0  0
   10.3695   42.8055   66.3197 C   0  0  0  0  0  0
    9.1506   40.7683   66.9034 O   0  0  0  0  0  0
   11.6632   42.0630   65.9139 C   0  0  0  0  0  0
   19.1237   43.0167   68.9140 C   0  0  0  0  0  0
   20.2710   42.2645   66.9128 C   0  0  0  0  0  0
    9.5204   42.0734   67.3551 C   0  0  0  0  0  0
   12.2248   43.8161   64.3345 C   0  0  0  0  0  0
    9.3204   37.2926   72.6729 C   0  0  0  0  0  0
    9.1074   35.0150   71.9338 C   0  0  0  0  0  0
   21.0834   41.4404   67.6880 C   0  0  0  0  0  0
   19.9400   42.1938   69.6867 C   0  0  0  0  0  0
   10.0038   34.6016   72.9140 C   0  0  0  0  0  0
   10.2046   36.8799   73.6643 C   0  0  0  0  0  0
   10.5255   35.5346   73.7980 C   0  0  0  0  0  0
   20.9203   41.4157   69.0715 C   0  0  0  0  0  0
   16.0219   44.2300   66.6053 H   0  0  0  0  0  0
   14.8950   44.0619   64.7407 H   0  0  0  0  0  0
   15.3407   42.8535   63.5492 H   0  0  0  0  0  0
   13.5729   41.5315   64.0568 H   0  0  0  0  0  0
   14.0999   41.3899   65.6883 H   0  0  0  0  0  0
    6.8821   37.1863   71.3111 H   0  0  0  0  0  0
    7.3366   35.9013   70.2317 H   0  0  0  0  0  0
    8.0115   36.5289   68.0048 H   0  0  0  0  0  0
    8.1213   39.4258   71.1416 H   0  0  0  0  0  0
    8.6463   38.2740   66.3817 H   0  0  0  0  0  0
    8.5893   41.1708   69.5402 H   0  0  0  0  0  0
   10.5873   43.8159   66.6561 H   0  0  0  0  0  0
    9.7464   42.9189   65.4325 H   0  0  0  0  0  0
   11.4204   41.3329   65.1429 H   0  0  0  0  0  0
   12.0382   41.4812   66.7565 H   0  0  0  0  0  0
   18.3720   43.6303   69.3902 H   0  0  0  0  0  0
   20.4136   42.2943   65.8404 H   0  0  0  0  0  0
   10.1152   42.0345   68.2687 H   0  0  0  0  0  0
    8.6206   42.6512   67.5774 H   0  0  0  0  0  0
   11.5041   44.5238   64.7401 H   0  0  0  0  0  0
   13.0043   44.4209   63.8728 H   0  0  0  0  0  0
   11.7434   43.2482   63.5403 H   0  0  0  0  0  0
    9.0514   38.3325   72.6299 H   0  0  0  0  0  0
    8.6680   34.2738   71.2832 H   0  0  0  0  0  0
   21.8430   40.8293   67.2180 H   0  0  0  0  0  0
   19.8152   42.1546   70.7589 H   0  0  0  0  0  0
   10.2594   33.5566   73.0132 H   0  0  0  0  0  0
   10.6319   37.6008   74.3424 H   0  0  0  0  0  0
   11.1988   35.2151   74.5800 H   0  0  0  0  0  0
   21.5531   40.7760   69.6693 H   0  0  0  0  0  0
  1  2  1  0  0  0
  1  4  2  0  0  0
  1  5  2  0  0  0
  1  6  1  0  0  0
  2  3  1  0  0  0
  2 34  1  0  0  0
  3  7  1  0  0  0
  3  8  2  0  0  0
  6 22  2  0  0  0
  6 23  1  0  0  0
  7  9  1  0  0  0
  7 35  1  0  0  0
  7 36  1  0  0  0
  9 10  1  0  0  0
  9 37  1  0  0  0
  9 38  1  0  0  0
 10 21  1  0  0  0
 10 25  1  0  0  0
 11 15  2  0  0  0
 11 12  1  0  0  0
 11 14  1  0  0  0
 12 18  1  0  0  0
 12 39  1  0  0  0
 12 40  1  0  0  0
 13 20  1  0  0  0
 13 16  1  0  0  0
 13 17  2  0  0  0
 14 16  2  0  0  0
 14 41  1  0  0  0
 15 17  1  0  0  0
 15 42  1  0  0  0
 16 43  1  0  0  0
 17 44  1  0  0  0
 18 26  2  0  0  0
 18 27  1  0  0  0
 19 21  1  0  0  0
 19 24  1  0  0  0
 19 45  1  0  0  0
 19 46  1  0  0  0
 20 24  1  0  0  0
 21 47  1  0  0  0
 21 48  1  0  0  0
 22 29  1  0  0  0
 22 49  1  0  0  0
 23 28  2  0  0  0
 23 50  1  0  0  0
 24 51  1  0  0  0
 24 52  1  0  0  0
 25 53  1  0  0  0
 25 54  1  0  0  0
 25 55  1  0  0  0
 26 31  1  0  0  0
 26 56  1  0  0  0
 27 30  2  0  0  0
 27 57  1  0  0  0
 28 33  1  0  0  0
 28 58  1  0  0  0
 29 33  2  0  0  0
 29 59  1  0  0  0
 30 32  1  0  0  0
 30 60  1  0  0  0
 31 32  2  0  0  0
 31 61  1  0  0  0
 32 62  1  0  0  0
 33 63  1  0  0  0
M  END
> <s_m_entry_id>
6614

> <s_m_entry_name>
dock_pv.44

> <s_m_Source_Path>
/home/csk/Desktop/cluster/DUD-E-result/lkha4

> <s_m_Source_File>
dock_pv.maegz

> <i_m_Source_File_Index>
44

> <chembl_id>
CHEMBL323686

> <chembl_pref_name>
None

> <i_lp_mmshare_version>
53161

> <i_f3d_flags>
0

> <r_lp_tautomer_probability>
1

> <s_lp_Force_Field>
OPLS_2005

> <r_lp_Energy>
22.634859

> <b_lp_Chiralities_Consistent>
1

> <s_lp_Variant>
CHEMBL4618_lig164-1

> <s_i_glide_gridfile>
glide-grid_3chp

> <i_i_glide_lignum>
190

> <i_i_glide_rotatable_bonds>
13

> <r_i_docking_score>
-10.7291670957858

> <r_i_glide_ligand_efficiency>
-0.325126275629873

> <r_i_glide_ligand_efficiency_sa>
-1.04285368945105

> <r_i_glide_ligand_efficiency_ln>
-2.38611120944866

> <r_i_glide_gscore>
-10.7291670957858

> <r_i_glide_lipo>
-5.77497141272498

> <r_i_glide_hbond>
-0.32

> <r_i_glide_metal>
0

> <r_i_glide_rewards>
-1.03119345215673

> <r_i_glide_evdw>
-60.2048149108887

> <r_i_glide_ecoul>
-9.63943576812744

> <r_i_glide_erotb>
1.11208306614815

> <r_i_glide_esite>
-0.258929186288704

> <r_i_glide_emodel>
-104.561840098783

> <r_i_glide_energy>
-69.8442506790161

> <r_i_glide_einternal>
26.2160968780518

> <i_i_glide_confnum>
88

> <i_i_glide_posenum>
63

> <r_i_glide_eff_state_penalty>
0

> <s_user_duplicate_titles>
CHEMBL4618_lig164,192970

> <s_m_subgroup_title>
dock_pv

> <s_m_subgroupid>
dock_pv

> <b_m_subgroup_collapsed>
1

$$$$
CHEMBL4618_lig262
                    3D
 Schrodinger Suite 2021-1.
 51 54  0  0  1  0            999 V2000
   10.4240   35.7555   73.7689 C   0  0  0  0  0  0
   10.0131   34.6160   73.0857 C   0  0  0  0  0  0
    9.2208   34.7098   71.9400 C   0  0  0  0  0  0
   10.1210   37.0296   73.2907 C   0  0  0  0  0  0
    9.3681   37.1367   72.1124 C   0  0  0  0  0  0
    8.8747   35.9806   71.4609 C   0  0  0  0  0  0
    8.1210   36.2160   70.3540 N   0  0  0  0  0  0
    8.1068   37.4735   70.0447 C   0  0  0  0  0  0
    8.9210   38.5469   71.1574 S   0  0  0  0  0  0
    7.5166   37.9617   68.9057 O   0  0  0  0  0  0
    7.9753   39.1283   68.3464 C   0  0  0  0  0  0
    7.5075   40.3802   68.7476 C   0  0  0  0  0  0
    7.9549   41.5420   68.1273 C   0  0  0  0  0  0
    8.8954   41.4477   67.1040 C   0  0  0  0  0  0
    9.3919   40.1899   66.7400 C   0  0  0  0  0  0
    8.9210   39.0360   67.3404 C   0  0  0  0  0  0
    9.3404   42.7127   66.3615 C   0  0  0  0  0  0
   10.7030   42.6158   65.8247 N   0  0  1  0  0  0
   11.0639   43.7204   64.9438 C   0  0  0  0  0  0
   12.4782   43.5600   64.3321 C   0  0  0  0  0  0
   13.5570   43.2732   65.3848 C   0  0  0  0  0  0
   13.0570   42.2266   66.3831 C   0  0  0  0  0  0
   11.6619   42.5144   66.9180 C   0  0  0  0  0  0
   14.8544   42.9127   64.8403 N   0  0  0  0  0  0
   16.0330   43.0719   65.4675 C   0  0  0  0  0  0
   16.1506   43.6872   66.5264 O   0  0  0  0  0  0
   17.2771   42.4241   64.8458 C   0  0  0  0  0  0
   16.9210   41.4160   63.9062 O   0  0  0  0  0  0
   11.0090   35.6468   74.6713 H   0  0  0  0  0  0
   10.2803   33.6422   73.4726 H   0  0  0  0  0  0
    8.8692   33.8192   71.4415 H   0  0  0  0  0  0
   10.4942   37.9034   73.8035 H   0  0  0  0  0  0
    6.7842   40.4411   69.5399 H   0  0  0  0  0  0
    7.5540   42.5007   68.4282 H   0  0  0  0  0  0
   10.1217   40.0942   65.9487 H   0  0  0  0  0  0
    9.2885   38.0714   67.0266 H   0  0  0  0  0  0
    9.2514   43.5803   67.0178 H   0  0  0  0  0  0
    8.6416   42.8701   65.5406 H   0  0  0  0  0  0
   11.0037   44.6160   65.5400 H   0  0  0  0  0  0
   10.3257   43.8156   64.1515 H   0  0  0  0  0  0
   12.7366   44.4610   63.7750 H   0  0  0  0  0  0
   12.4605   42.7495   63.6056 H   0  0  0  0  0  0
   13.6497   44.2118   65.9400 H   0  0  0  0  0  0
   13.0718   41.2210   65.9578 H   0  0  0  0  0  0
   13.7209   42.2164   67.2316 H   0  0  0  0  0  0
   11.6331   43.4031   67.5514 H   0  0  0  0  0  0
   11.3783   41.6708   67.5400 H   0  0  0  0  0  0
   14.8511   42.4080   63.9641 H   0  0  0  0  0  0
   17.9178   42.0111   65.6254 H   0  0  0  0  0  0
   17.8288   43.2139   64.3408 H   0  0  0  0  0  0
   17.0028   41.8162   63.0211 H   0  0  0  0  0  0
  1  2  2  0  0  0
  1  4  1  0  0  0
  1 29  1  0  0  0
  2  3  1  0  0  0
  2 30  1  0  0  0
  3  6  2  0  0  0
  3 31  1  0  0  0
  4  5  2  0  0  0
  4 32  1  0  0  0
  5  9  1  0  0  0
  5  6  1  0  0  0
  6  7  1  0  0  0
  7  8  2  0  0  0
  8  9  1  0  0  0
  8 10  1  0  0  0
 10 11  1  0  0  0
 11 16  1  0  0  0
 11 12  2  0  0  0
 12 13  1  0  0  0
 12 33  1  0  0  0
 13 14  2  0  0  0
 13 34  1  0  0  0
 14 15  1  0  0  0
 14 17  1  0  0  0
 15 16  2  0  0  0
 15 35  1  0  0  0
 16 36  1  0  0  0
 17 18  1  0  0  0
 17 37  1  0  0  0
 17 38  1  0  0  0
 18 19  1  0  0  0
 18 23  1  0  0  0
 19 20  1  0  0  0
 19 39  1  0  0  0
 19 40  1  0  0  0
 20 21  1  0  0  0
 20 41  1  0  0  0
 20 42  1  0  0  0
 21 22  1  0  0  0
 21 24  1  0  0  0
 21 43  1  0  0  0
 22 23  1  0  0  0
 22 44  1  0  0  0
 22 45  1  0  0  0
 23 46  1  0  0  0
 23 47  1  0  0  0
 24 25  1  0  0  0
 24 48  1  0  0  0
 25 26  2  0  0  0
 25 27  1  0  0  0
 27 28  1  0  0  0
 27 49  1  0  0  0
 27 50  1  0  0  0
 28 51  1  0  0  0
M  END
> <s_m_entry_id>
6615

> <s_m_entry_name>
dock_pv.45

> <s_m_Source_Path>
/home/csk/Desktop/cluster/DUD-E-result/lkha4

> <s_m_Source_File>
dock_pv.maegz

> <i_m_Source_File_Index>
45

> <chembl_id>
CHEMBL479383

> <chembl_pref_name>
None

> <i_lp_mmshare_version>
53161

> <i_f3d_flags>
0

> <r_lp_tautomer_probability>
1

> <s_lp_Force_Field>
OPLS_2005

> <r_lp_Energy>
25.610029

> <b_lp_Chiralities_Consistent>
1

> <s_lp_Variant>
CHEMBL4618_lig262-1

> <s_i_glide_gridfile>
glide-grid_3chp

> <i_i_glide_lignum>
300

> <i_i_glide_rotatable_bonds>
8

> <r_i_docking_score>
-10.7123953768043

> <r_i_glide_ligand_efficiency>
-0.382585549171583

> <r_i_glide_ligand_efficiency_sa>
-1.16175505812302

> <r_i_glide_ligand_efficiency_ln>
-2.47273538256186

> <r_i_glide_gscore>
-10.7123953768043

> <r_i_glide_lipo>
-5.72815861986067

> <r_i_glide_hbond>
-0.0113745729238596

> <r_i_glide_metal>
0

> <r_i_glide_rewards>
-1.5965505986223

> <r_i_glide_evdw>
-46.8392066955566

> <r_i_glide_ecoul>
-11.4425945281982

> <r_i_glide_erotb>
0.867262119360163

> <r_i_glide_esite>
-0.185224190750075

> <r_i_glide_emodel>
-100.181363424938

> <r_i_glide_energy>
-58.2818012237549

> <r_i_glide_einternal>
7.42361450195312

> <i_i_glide_confnum>
4

> <i_i_glide_posenum>
169

> <r_i_glide_eff_state_penalty>
0

> <s_user_duplicate_titles>
CHEMBL4618_lig262,467057

> <s_m_subgroup_title>
dock_pv

> <s_m_subgroupid>
dock_pv

> <b_m_subgroup_collapsed>
1

$$$$
CHEMBL4618_lig261
                    3D
 Schrodinger Suite 2021-1.
 46 49  0  0  1  0            999 V2000
   11.1120   35.3409   75.0338 C   0  0  0  0  0  0
   11.1237   34.1431   74.3271 C   0  0  0  0  0  0
   10.4047   34.0007   73.1398 C   0  0  0  0  0  0
   10.4789   36.4761   74.5318 C   0  0  0  0  0  0
    9.8028   36.3578   73.3112 C   0  0  0  0  0  0
    9.7071   35.1129   72.6469 C   0  0  0  0  0  0
    8.9213   35.1155   71.5400 N   0  0  0  0  0  0
    8.5913   36.3223   71.1712 C   0  0  0  0  0  0
    9.0180   37.5767   72.3241 S   0  0  0  0  0  0
    8.0376   36.5956   69.9281 O   0  0  0  0  0  0
    8.1008   37.8148   69.2697 C   0  0  0  0  0  0
    8.5210   37.8358   67.9419 C   0  0  0  0  0  0
    8.6701   39.0277   67.2308 C   0  0  0  0  0  0
    8.4067   40.2445   67.8643 C   0  0  0  0  0  0
    7.8879   40.2222   69.1523 C   0  0  0  0  0  0
    7.7212   39.0175   69.8409 C   0  0  0  0  0  0
    8.6080   41.6086   67.1868 C   0  0  0  0  0  0
    9.8049   41.7522   66.3403 N   0  0  1  0  0  0
    9.9513   43.1596   65.9293 C   0  0  0  0  0  0
   11.2530   43.4504   65.1388 C   0  0  0  0  0  0
   12.5040   42.9055   65.8631 C   0  0  0  0  0  0
   12.2856   41.4193   66.1572 C   0  0  0  0  0  0
   11.0119   41.2667   67.0124 C   0  0  0  0  0  0
   13.8390   43.1042   65.1053 C   0  0  0  0  0  0
   13.7161   43.8159   63.9518 O   0  0  0  0  0  0
   14.9146   42.6929   65.5394 O   0  0  0  0  0  0
   11.6645   35.4024   75.9561 H   0  0  0  0  0  0
   11.6573   33.2938   74.7327 H   0  0  0  0  0  0
   10.3691   33.0499   72.6293 H   0  0  0  0  0  0
   10.5240   37.4160   75.0603 H   0  0  0  0  0  0
    8.8116   36.9147   67.4847 H   0  0  0  0  0  0
    9.0422   39.0063   66.2157 H   0  0  0  0  0  0
    7.6236   41.1518   69.6336 H   0  0  0  0  0  0
    7.3065   39.0160   70.8330 H   0  0  0  0  0  0
    8.6307   42.3746   67.9655 H   0  0  0  0  0  0
    7.7220   41.8178   66.5868 H   0  0  0  0  0  0
    9.9232   43.8090   66.8061 H   0  0  0  0  0  0
    9.0810   43.4372   65.3329 H   0  0  0  0  0  0
   11.3190   44.5355   65.0683 H   0  0  0  0  0  0
   11.1146   43.0163   64.1505 H   0  0  0  0  0  0
   12.6571   43.4452   66.7989 H   0  0  0  0  0  0
   12.1341   40.8259   65.2542 H   0  0  0  0  0  0
   13.1110   41.0158   66.7400 H   0  0  0  0  0  0
   11.0992   41.8320   67.9399 H   0  0  0  0  0  0
   10.9203   40.2219   67.3005 H   0  0  0  0  0  0
   14.5781   44.0438   63.5648 H   0  0  0  0  0  0
  1  2  2  0  0  0
  1  4  1  0  0  0
  1 27  1  0  0  0
  2  3  1  0  0  0
  2 28  1  0  0  0
  3  6  2  0  0  0
  3 29  1  0  0  0
  4  5  2  0  0  0
  4 30  1  0  0  0
  5  9  1  0  0  0
  5  6  1  0  0  0
  6  7  1  0  0  0
  7  8  2  0  0  0
  8  9  1  0  0  0
  8 10  1  0  0  0
 10 11  1  0  0  0
 11 16  1  0  0  0
 11 12  2  0  0  0
 12 13  1  0  0  0
 12 31  1  0  0  0
 13 14  2  0  0  0
 13 32  1  0  0  0
 14 15  1  0  0  0
 14 17  1  0  0  0
 15 16  2  0  0  0
 15 33  1  0  0  0
 16 34  1  0  0  0
 17 18  1  0  0  0
 17 35  1  0  0  0
 17 36  1  0  0  0
 18 19  1  0  0  0
 18 23  1  0  0  0
 19 20  1  0  0  0
 19 37  1  0  0  0
 19 38  1  0  0  0
 20 21  1  0  0  0
 20 39  1  0  0  0
 20 40  1  0  0  0
 21 22  1  0  0  0
 21 24  1  0  0  0
 21 41  1  0  0  0
 22 23  1  0  0  0
 22 42  1  0  0  0
 22 43  1  0  0  0
 23 44  1  0  0  0
 23 45  1  0  0  0
 24 25  1  0  0  0
 24 26  2  0  0  0
 25 46  1  0  0  0
M  END
> <s_m_entry_id>
6616

> <s_m_entry_name>
dock_pv.46

> <s_m_Source_Path>
/home/csk/Desktop/cluster/DUD-E-result/lkha4

> <s_m_Source_File>
dock_pv.maegz

> <i_m_Source_File_Index>
46

> <chembl_id>
CHEMBL481280

> <chembl_pref_name>
None

> <i_lp_mmshare_version>
53161

> <i_f3d_flags>
0

> <r_lp_tautomer_probability>
1

> <s_lp_Force_Field>
OPLS_2005

> <r_lp_Energy>
31.002595

> <b_lp_Chiralities_Consistent>
1

> <s_lp_Variant>
CHEMBL4618_lig261-1

> <s_i_glide_gridfile>
glide-grid_3chp

> <i_i_glide_lignum>
299

> <i_i_glide_rotatable_bonds>
6

> <r_i_docking_score>
-10.6971011761161

> <r_i_glide_ligand_efficiency>
-0.411426968312158

> <r_i_glide_ligand_efficiency_sa>
-1.21885077473782

> <r_i_glide_ligand_efficiency_ln>
-2.51217911115902

> <r_i_glide_gscore>
-10.6971011761161

> <r_i_glide_lipo>
-5.59991748387018

> <r_i_glide_hbond>
-0.0661247651246754

> <r_i_glide_metal>
0

> <r_i_glide_rewards>
-1.79692909090909

> <r_i_glide_evdw>
-44.2987365722656

> <r_i_glide_ecoul>
-11.5261564254761

> <r_i_glide_erotb>
0.709730456222539

> <r_i_glide_esite>
0

> <r_i_glide_emodel>
-93.0165310584222

> <r_i_glide_energy>
-55.8248929977417

> <r_i_glide_einternal>
7.13065719604492

> <i_i_glide_confnum>
20

> <i_i_glide_posenum>
100

> <r_i_glide_eff_state_penalty>
0

> <s_user_duplicate_titles>
CHEMBL4618_lig261,467058

> <s_m_subgroup_title>
dock_pv

> <s_m_subgroupid>
dock_pv

> <b_m_subgroup_collapsed>
1

$$$$
CHEMBL4618_lig439
                    3D
 Schrodinger Suite 2021-1.
 50 55  0  0  1  0            999 V2000
    8.2694   39.9184   69.4326 C   0  0  0  0  0  0
    7.9322   38.5668   69.2634 C   0  0  0  0  0  0
    8.1211   37.9438   68.0339 C   0  0  0  0  0  0
    8.7169   38.6160   66.9677 C   0  0  0  0  0  0
    7.3890   37.8377   70.2923 O   0  0  0  0  0  0
    8.5210   35.8158   70.8780 N   0  0  0  0  0  0
    8.2378   37.0680   71.0469 C   0  0  0  0  0  0
    8.9722   37.8160   72.4039 S   0  0  0  0  0  0
    9.6812   36.2919   72.8610 C   0  0  0  0  0  0
    9.3132   35.3366   71.8874 C   0  0  0  0  0  0
   10.4881   35.9312   73.9498 C   0  0  0  0  0  0
   10.9207   34.6051   73.9948 C   0  0  0  0  0  0
   10.5210   33.7215   72.9892 C   0  0  0  0  0  0
    9.7241   34.0643   71.9400 N   0  0  0  0  0  0
    9.3210   41.9622   68.1102 C   0  0  0  0  0  0
    8.8578   40.6266   68.3723 C   0  0  0  0  0  0
    9.1195   39.9260   67.1928 C   0  0  0  0  0  0
    9.8440   40.6769   66.3400 O   0  0  0  0  0  0
    9.9612   41.9160   66.8745 C   0  0  0  0  0  0
   10.6645   42.9133   65.9698 C   0  0  0  0  0  0
   11.9932   42.4384   65.5453 N   0  0  2  0  0  0
   13.0529   42.7730   66.5090 C   0  0  0  0  0  0
   14.0902   43.5634   65.6851 C   0  0  1  0  0  0
   14.7009   42.6099   64.7444 N   0  0  0  0  0  0
   13.6806   42.2353   63.7573 C   0  0  0  0  0  0
   12.4883   43.0519   64.2984 C   0  0  2  0  0  0
   15.9872   42.2160   64.7399 C   0  0  0  0  0  0
   16.7525   42.3832   65.6873 O   0  0  0  0  0  0
   16.5210   41.5434   63.4893 C   0  0  0  0  0  0
   13.1925   44.3162   64.7134 C   0  0  0  0  0  0
    8.1210   40.4035   70.3747 H   0  0  0  0  0  0
    7.8362   36.9072   67.9400 H   0  0  0  0  0  0
    8.9256   38.1328   66.0261 H   0  0  0  0  0  0
   10.7668   36.6461   74.7108 H   0  0  0  0  0  0
   11.5435   34.2598   74.8080 H   0  0  0  0  0  0
   10.8375   32.6882   73.0204 H   0  0  0  0  0  0
    9.2501   42.8309   68.7461 H   0  0  0  0  0  0
   10.7256   43.8975   66.4258 H   0  0  0  0  0  0
   10.0392   43.0429   65.0877 H   0  0  0  0  0  0
   13.4821   41.8897   66.9756 H   0  0  0  0  0  0
   12.6745   43.4062   67.3136 H   0  0  0  0  0  0
   14.8129   44.1392   66.2650 H   0  0  0  0  0  0
   13.4885   41.1653   63.6783 H   0  0  0  0  0  0
   14.0015   42.6162   62.7862 H   0  0  0  0  0  0
   11.7173   43.2107   63.5462 H   0  0  0  0  0  0
   16.0105   40.6160   63.2463 H   0  0  0  0  0  0
   16.3496   42.2281   62.6614 H   0  0  0  0  0  0
   17.5999   41.4160   63.5403 H   0  0  0  0  0  0
   12.4918   45.0160   65.1400 H   0  0  0  0  0  0
   13.7209   44.8245   63.9074 H   0  0  0  0  0  0
  1 16  2  0  0  0
  1  2  1  0  0  0
  1 31  1  0  0  0
  2  3  2  0  0  0
  2  5  1  0  0  0
  3  4  1  0  0  0
  3 32  1  0  0  0
  4 17  2  0  0  0
  4 33  1  0  0  0
  5  7  1  0  0  0
  6  7  2  0  0  0
  6 10  1  0  0  0
  7  8  1  0  0  0
  8  9  1  0  0  0
  9 10  1  0  0  0
  9 11  2  0  0  0
 10 14  2  0  0  0
 11 12  1  0  0  0
 11 34  1  0  0  0
 12 13  2  0  0  0
 12 35  1  0  0  0
 13 14  1  0  0  0
 13 36  1  0  0  0
 15 16  1  0  0  0
 15 19  2  0  0  0
 15 37  1  0  0  0
 16 17  1  0  0  0
 17 18  1  0  0  0
 18 19  1  0  0  0
 19 20  1  0  0  0
 20 21  1  0  0  0
 20 38  1  0  0  0
 20 39  1  0  0  0
 21 22  1  0  0  0
 21 26  1  0  0  0
 22 23  1  0  0  0
 22 40  1  0  0  0
 22 41  1  0  0  0
 23 24  1  0  0  0
 23 30  1  0  0  0
 23 42  1  0  0  0
 24 25  1  0  0  0
 24 27  1  0  0  0
 25 26  1  0  0  0
 25 43  1  0  0  0
 25 44  1  0  0  0
 26 30  1  0  0  0
 26 45  1  0  0  0
 27 28  2  0  0  0
 27 29  1  0  0  0
 29 46  1  0  0  0
 29 47  1  0  0  0
 29 48  1  0  0  0
 30 49  1  0  0  0
 30 50  1  0  0  0
M  END
> <s_m_entry_id>
6617

> <s_m_entry_name>
dock_pv.47

> <s_m_Source_Path>
/home/csk/Desktop/cluster/DUD-E-result/lkha4

> <s_m_Source_File>
dock_pv.maegz

> <i_m_Source_File_Index>
47

> <chembl_id>
CHEMBL2313266

> <chembl_pref_name>
None

> <i_lp_mmshare_version>
53161

> <i_f3d_flags>
0

> <r_lp_tautomer_probability>
1

> <s_lp_Force_Field>
OPLS_2005

> <r_lp_Energy>
78.455359

> <b_lp_Chiralities_Consistent>
1

> <s_lp_Variant>
CHEMBL4618_lig439-2

> <s_i_glide_gridfile>
glide-grid_3chp

> <i_i_glide_lignum>
515

> <i_i_glide_rotatable_bonds>
5

> <r_i_docking_score>
-10.6910059751218

> <r_i_glide_ligand_efficiency>
-0.356366865837393

> <r_i_glide_ligand_efficiency_sa>
-1.10731470831945

> <r_i_glide_ligand_efficiency_ln>
-2.42911304538771

> <r_i_glide_gscore>
-10.6910059751218

> <r_i_glide_lipo>
-5.57409410135183

> <r_i_glide_hbond>
-0.32

> <r_i_glide_metal>
0

> <r_i_glide_rewards>
-1.41894644094556

> <r_i_glide_evdw>
-51.4018363952637

> <r_i_glide_ecoul>
-7.16285228729248

> <r_i_glide_erotb>
0.447782355423934

> <r_i_glide_esite>
-0.181228125391277

> <r_i_glide_emodel>
-82.5784745497073

> <r_i_glide_energy>
-58.5646886825562

> <r_i_glide_einternal>
12.5490550994873

> <i_i_glide_confnum>
5

> <i_i_glide_posenum>
76

> <r_i_glide_eff_state_penalty>
0

> <s_user_duplicate_titles>
CHEMBL4618_lig439

> <s_m_subgroup_title>
dock_pv

> <s_m_subgroupid>
dock_pv

> <b_m_subgroup_collapsed>
1

$$$$
CHEMBL4618_lig470
                    3D
 Schrodinger Suite 2021-1.
 60 64  0  0  1  0            999 V2000
   13.5292   40.7831   64.7393 C   0  0  0  0  0  0
   13.3669   42.2055   64.9999 N   0  0  1  0  0  0
   11.9829   42.6740   65.2724 C   0  0  0  0  0  0
   11.0908   42.0083   66.3520 C   0  0  0  0  0  0
   10.4189   42.7858   67.2879 C   0  0  0  0  0  0
    9.4564   42.3556   68.1490 N   0  0  0  0  0  0
    9.0855   41.0507   68.0792 C   0  0  0  0  0  0
    8.2348   40.4807   69.0607 C   0  0  0  0  0  0
    7.9399   39.1153   69.0072 C   0  0  0  0  0  0
    7.3206   38.4862   70.0467 O   0  0  0  0  0  0
    8.0734   37.6938   70.8677 C   0  0  0  0  0  0
    8.1211   36.3088   70.7256 C   0  0  0  0  0  0
    8.8459   35.5676   71.6617 C   0  0  0  0  0  0
    9.5231   36.2220   72.6974 C   0  0  0  0  0  0
    9.4396   37.6164   72.7371 C   0  0  0  0  0  0
    8.7137   38.3435   71.8589 N   0  0  0  0  0  0
   10.3113   35.4665   73.7096 C   0  0  0  0  0  0
   10.9207   34.2151   73.5462 C   0  0  0  0  0  0
   11.5913   33.9688   74.7275 C   0  0  0  0  0  0
   11.2729   35.0219   75.5369 N   0  0  0  0  0  0
   10.5208   35.9406   74.9234 N   0  0  0  0  0  0
    8.2708   38.3682   67.8871 C   0  0  0  0  0  0
    9.0646   38.9189   66.8965 C   0  0  0  0  0  0
    9.6187   40.2011   67.0767 C   0  0  0  0  0  0
   10.6956   40.6776   66.3014 C   0  0  0  0  0  0
   14.4147   42.6471   65.9211 C   0  0  2  0  0  0
   14.4159   44.0921   66.2392 C   0  0  0  0  0  0
   15.7767   44.4032   66.8774 C   0  0  0  0  0  0
   16.6519   43.4624   66.2007 N   0  0  0  0  0  0
   15.8841   42.4558   65.4500 C   0  0  0  0  0  0
   17.9887   43.6763   66.1559 C   0  0  0  0  0  0
   18.5036   44.6709   66.6835 O   0  0  0  0  0  0
   18.8769   42.6161   65.4809 C   0  0  0  0  0  0
   20.1393   43.1539   65.1398 O   0  0  0  0  0  0
   12.9211   40.3901   63.9406 H   0  0  0  0  0  0
   14.5439   40.6027   64.3969 H   0  0  0  0  0  0
   13.3526   40.2099   65.6465 H   0  0  0  0  0  0
   12.0030   43.7477   65.4569 H   0  0  0  0  0  0
   11.4299   42.6169   64.3400 H   0  0  0  0  0  0
   10.6580   43.8158   67.3498 H   0  0  0  0  0  0
    7.8966   41.0834   69.8893 H   0  0  0  0  0  0
    7.5863   35.8196   69.9266 H   0  0  0  0  0  0
    8.8694   34.4904   71.5779 H   0  0  0  0  0  0
    9.9508   38.2068   73.4894 H   0  0  0  0  0  0
   10.9032   33.5852   72.6692 H   0  0  0  0  0  0
   12.1921   33.1424   75.0794 H   0  0  0  0  0  0
   11.5421   35.1168   76.5119 H   0  0  0  0  0  0
    7.9694   37.3347   67.8210 H   0  0  0  0  0  0
    9.3824   38.3118   66.0612 H   0  0  0  0  0  0
   11.1157   40.0183   65.5573 H   0  0  0  0  0  0
   14.1210   42.1865   66.8582 H   0  0  0  0  0  0
   13.5875   44.2159   66.9164 H   0  0  0  0  0  0
   14.2501   44.6160   65.3025 H   0  0  0  0  0  0
   15.7548   44.2158   67.9412 H   0  0  0  0  0  0
   16.1213   45.4205   66.7439 H   0  0  0  0  0  0
   15.9271   42.7250   64.3912 H   0  0  0  0  0  0
   16.2578   41.4402   65.5399 H   0  0  0  0  0  0
   18.4058   42.2165   64.5828 H   0  0  0  0  0  0
   19.0388   41.8114   66.1920 H   0  0  0  0  0  0
   20.0841   43.4293   64.2144 H   0  0  0  0  0  0
  1  2  1  0  0  0
  1 35  1  0  0  0
  1 36  1  0  0  0
  1 37  1  0  0  0
  2  3  1  0  0  0
  2 26  1  0  0  0
  3  4  1  0  0  0
  3 38  1  0  0  0
  3 39  1  0  0  0
  4  5  2  0  0  0
  4 25  1  0  0  0
  5  6  1  0  0  0
  5 40  1  0  0  0
  6  7  2  0  0  0
  7  8  1  0  0  0
  7 24  1  0  0  0
  8  9  2  0  0  0
  8 41  1  0  0  0
  9 10  1  0  0  0
  9 22  1  0  0  0
 10 11  1  0  0  0
 11 12  2  0  0  0
 11 16  1  0  0  0
 12 13  1  0  0  0
 12 42  1  0  0  0
 13 14  2  0  0  0
 13 43  1  0  0  0
 14 15  1  0  0  0
 14 17  1  0  0  0
 15 16  2  0  0  0
 15 44  1  0  0  0
 17 21  2  0  0  0
 17 18  1  0  0  0
 18 19  2  0  0  0
 18 45  1  0  0  0
 19 20  1  0  0  0
 19 46  1  0  0  0
 20 21  1  0  0  0
 20 47  1  0  0  0
 22 23  2  0  0  0
 22 48  1  0  0  0
 23 24  1  0  0  0
 23 49  1  0  0  0
 24 25  2  0  0  0
 25 50  1  0  0  0
 26 27  1  0  0  0
 26 30  1  0  0  0
 26 51  1  0  0  0
 27 28  1  0  0  0
 27 52  1  0  0  0
 27 53  1  0  0  0
 28 29  1  0  0  0
 28 54  1  0  0  0
 28 55  1  0  0  0
 29 30  1  0  0  0
 29 31  1  0  0  0
 30 56  1  0  0  0
 30 57  1  0  0  0
 31 32  2  0  0  0
 31 33  1  0  0  0
 33 34  1  0  0  0
 33 58  1  0  0  0
 33 59  1  0  0  0
 34 60  1  0  0  0
M  END
> <s_m_entry_id>
6618

> <s_m_entry_name>
dock_pv.48

> <s_m_Source_Path>
/home/csk/Desktop/cluster/DUD-E-result/lkha4

> <s_m_Source_File>
dock_pv.maegz

> <i_m_Source_File_Index>
48

> <chembl_id>
CHEMBL4113328

> <chembl_pref_name>
None

> <i_lp_mmshare_version>
53161

> <i_f3d_flags>
0

> <r_lp_tautomer_probability>
0.5

> <s_lp_Force_Field>
OPLS_2005

> <r_lp_Energy>
49.509996

> <b_lp_Chiralities_Consistent>
1

> <s_lp_Variant>
CHEMBL4618_lig470-2

> <s_i_glide_gridfile>
glide-grid_3chp

> <i_i_glide_lignum>
556

> <i_i_glide_rotatable_bonds>
9

> <r_i_docking_score>
-10.690217214265

> <r_i_glide_ligand_efficiency>
-0.314418153360734

> <r_i_glide_ligand_efficiency_sa>
-1.018592758966

> <r_i_glide_ligand_efficiency_ln>
-2.36176883306738

> <r_i_glide_gscore>
-10.690217214265

> <r_i_glide_lipo>
-5.79043567731549

> <r_i_glide_hbond>
-0.32

> <r_i_glide_metal>
0

> <r_i_glide_rewards>
-1.92947410004237

> <r_i_glide_evdw>
-42.4827079772949

> <r_i_glide_ecoul>
-7.94500207901001

> <r_i_glide_erotb>
0.765371470902741

> <r_i_glide_esite>
-0.099793197093599

> <r_i_glide_emodel>
-48.3712597907934

> <r_i_glide_energy>
-50.4277100563049

> <r_i_glide_einternal>
18.7431392669678

> <i_i_glide_confnum>
8

> <i_i_glide_posenum>
116

> <r_i_glide_eff_state_penalty>
0

> <s_user_duplicate_titles>
CHEMBL4618_lig470,CHEMBL4618_lig470

> <s_m_subgroup_title>
dock_pv

> <s_m_subgroupid>
dock_pv

> <b_m_subgroup_collapsed>
1

$$$$
CHEMBL4618_lig275
                    3D
 Schrodinger Suite 2021-1.
 47 50  0  0  1  0            999 V2000
   10.4451   35.7388   73.7887 C   0  0  0  0  0  0
   10.0554   34.6035   73.0850 C   0  0  0  0  0  0
    9.2606   34.7006   71.9400 C   0  0  0  0  0  0
   10.1210   37.0160   73.3328 C   0  0  0  0  0  0
    9.3733   37.1240   72.1526 C   0  0  0  0  0  0
    8.8916   35.9726   71.4814 C   0  0  0  0  0  0
    8.1210   36.2171   70.3843 N   0  0  0  0  0  0
    8.0812   37.4894   70.1115 C   0  0  0  0  0  0
    8.9207   38.5412   71.2244 S   0  0  0  0  0  0
    7.4376   38.0339   69.0244 O   0  0  0  0  0  0
    8.0092   39.1151   68.3912 C   0  0  0  0  0  0
    7.7267   40.4419   68.7400 C   0  0  0  0  0  0
    8.3777   41.4916   68.0840 C   0  0  0  0  0  0
    9.3135   41.2089   67.0826 C   0  0  0  0  0  0
    9.5712   39.8848   66.7400 C   0  0  0  0  0  0
    8.9134   38.8465   67.3760 C   0  0  0  0  0  0
   10.0735   42.3103   66.3453 C   0  0  0  0  0  0
   11.5376   42.4348   66.8237 C   0  0  0  0  0  0
   12.5414   42.4142   65.7434 N   0  0  2  0  0  0
   12.9804   41.0678   65.3460 C   0  0  0  0  0  0
   13.8781   41.1382   64.0797 C   0  0  0  0  0  0
   15.1139   42.0360   64.2260 C   0  0  0  0  0  0
   14.6526   43.3676   64.8561 C   0  0  0  0  0  0
   13.7186   43.2226   66.0742 C   0  0  0  0  0  0
   16.1927   41.4171   64.9204 O   0  0  0  0  0  0
   11.0312   35.6244   74.6895 H   0  0  0  0  0  0
   10.3389   33.6281   73.4564 H   0  0  0  0  0  0
    8.9209   33.8130   71.4281 H   0  0  0  0  0  0
   10.4840   37.8861   73.8584 H   0  0  0  0  0  0
    7.0179   40.6540   69.5244 H   0  0  0  0  0  0
    8.1564   42.5138   68.3581 H   0  0  0  0  0  0
   10.2759   39.6480   65.9578 H   0  0  0  0  0  0
    9.1157   37.8229   67.0979 H   0  0  0  0  0  0
    9.5578   43.2635   66.4736 H   0  0  0  0  0  0
   10.0283   42.1138   65.2739 H   0  0  0  0  0  0
   11.7210   41.6382   67.5390 H   0  0  0  0  0  0
   11.6172   43.3615   67.3947 H   0  0  0  0  0  0
   12.1210   40.4359   65.1400 H   0  0  0  0  0  0
   13.5032   40.6009   66.1810 H   0  0  0  0  0  0
   13.3210   41.5081   63.2238 H   0  0  0  0  0  0
   14.1755   40.1406   63.7754 H   0  0  0  0  0  0
   15.5010   42.2299   63.2233 H   0  0  0  0  0  0
   15.5216   43.9605   65.1401 H   0  0  0  0  0  0
   14.1210   43.9624   64.1128 H   0  0  0  0  0  0
   13.3728   44.2160   66.3400 H   0  0  0  0  0  0
   14.2260   42.8211   66.9499 H   0  0  0  0  0  0
   16.8293   42.1324   65.0558 H   0  0  0  0  0  0
  1  2  2  0  0  0
  1  4  1  0  0  0
  1 26  1  0  0  0
  2  3  1  0  0  0
  2 27  1  0  0  0
  3  6  2  0  0  0
  3 28  1  0  0  0
  4  5  2  0  0  0
  4 29  1  0  0  0
  5  9  1  0  0  0
  5  6  1  0  0  0
  6  7  1  0  0  0
  7  8  2  0  0  0
  8  9  1  0  0  0
  8 10  1  0  0  0
 10 11  1  0  0  0
 11 12  2  0  0  0
 11 16  1  0  0  0
 12 13  1  0  0  0
 12 30  1  0  0  0
 13 14  2  0  0  0
 13 31  1  0  0  0
 14 15  1  0  0  0
 14 17  1  0  0  0
 15 16  2  0  0  0
 15 32  1  0  0  0
 16 33  1  0  0  0
 17 18  1  0  0  0
 17 34  1  0  0  0
 17 35  1  0  0  0
 18 19  1  0  0  0
 18 36  1  0  0  0
 18 37  1  0  0  0
 19 20  1  0  0  0
 19 24  1  0  0  0
 20 21  1  0  0  0
 20 38  1  0  0  0
 20 39  1  0  0  0
 21 22  1  0  0  0
 21 40  1  0  0  0
 21 41  1  0  0  0
 22 23  1  0  0  0
 22 25  1  0  0  0
 22 42  1  0  0  0
 23 24  1  0  0  0
 23 43  1  0  0  0
 23 44  1  0  0  0
 24 45  1  0  0  0
 24 46  1  0  0  0
 25 47  1  0  0  0
M  END
> <s_m_entry_id>
6619

> <s_m_entry_name>
dock_pv.49

> <s_m_Source_Path>
/home/csk/Desktop/cluster/DUD-E-result/lkha4

> <s_m_Source_File>
dock_pv.maegz

> <i_m_Source_File_Index>
49

> <chembl_id>
CHEMBL446514

> <chembl_pref_name>
None

> <i_lp_mmshare_version>
53161

> <i_f3d_flags>
0

> <r_lp_tautomer_probability>
1

> <s_lp_Force_Field>
OPLS_2005

> <r_lp_Energy>
27.52243

> <b_lp_Chiralities_Consistent>
1

> <s_lp_Variant>
CHEMBL4618_lig275-1

> <s_i_glide_gridfile>
glide-grid_3chp

> <i_i_glide_lignum>
313

> <i_i_glide_rotatable_bonds>
6

> <r_i_docking_score>
-10.680663599078

> <r_i_glide_ligand_efficiency>
-0.42722654396312

> <r_i_glide_ligand_efficiency_sa>
-1.24921799144318

> <r_i_glide_ligand_efficiency_ln>
-2.53163734664119

> <r_i_glide_gscore>
-10.680663599078

> <r_i_glide_lipo>
-5.47601546422523

> <r_i_glide_hbond>
-0.311464492484961

> <r_i_glide_metal>
0

> <r_i_glide_rewards>
-1.89227127272727

> <r_i_glide_evdw>
-43.8257331848145

> <r_i_glide_ecoul>
-10.4670257568359

> <r_i_glide_erotb>
0.760428153125564

> <r_i_glide_esite>
0

> <r_i_glide_emodel>
-81.6619970322988

> <r_i_glide_energy>
-54.2927589416504

> <r_i_glide_einternal>
11.1910343170166

> <i_i_glide_confnum>
191

> <i_i_glide_posenum>
186

> <r_i_glide_eff_state_penalty>
0

> <s_user_duplicate_titles>
CHEMBL4618_lig275,466872

> <s_m_subgroup_title>
dock_pv

> <s_m_subgroupid>
dock_pv

> <b_m_subgroup_collapsed>
1

$$$$
CHEMBL4618_lig446
                    3D
 Schrodinger Suite 2021-1.
 53 57  0  0  1  0            999 V2000
    7.7530   37.4231   69.2222 O   0  0  0  0  0  0
    8.9209   38.2160   71.5760 S   0  0  0  0  0  0
    8.3283   37.0503   70.4170 C   0  0  0  0  0  0
    8.5205   35.8161   70.7399 N   0  0  0  0  0  0
    9.2401   35.6764   71.8764 C   0  0  0  0  0  0
    9.5497   36.8823   72.5430 C   0  0  0  0  0  0
    9.7212   34.4539   72.3562 C   0  0  0  0  0  0
   10.4536   34.4498   73.5425 C   0  0  0  0  0  0
   10.6916   35.6314   74.2417 C   0  0  0  0  0  0
   10.2749   36.8677   73.7427 C   0  0  0  0  0  0
    9.3214   39.6757   66.7908 C   0  0  0  0  0  0
    8.8675   38.5355   67.4497 C   0  0  0  0  0  0
    8.1033   38.5993   68.6053 C   0  0  0  0  0  0
    7.7000   39.8313   69.0940 C   0  0  0  0  0  0
    9.1341   42.2962   66.8575 C   0  0  0  0  0  0
    8.9396   40.9342   67.2647 C   0  0  0  0  0  0
    8.1215   40.9747   68.4143 C   0  0  0  0  0  0
    7.7892   42.2469   68.7264 O   0  0  0  0  0  0
    8.3635   43.0159   67.7624 C   0  0  0  0  0  0
    9.9066   42.8338   65.6627 C   0  0  0  0  0  0
   11.3636   42.9591   65.8269 N   0  0  1  0  0  0
   12.0167   41.6489   65.9518 C   0  0  0  0  0  0
   13.5478   41.7328   65.9392 C   0  0  0  0  0  0
   14.1309   42.4925   64.7387 C   0  0  0  0  0  0
   13.4146   43.8432   64.5813 C   0  0  0  0  0  0
   11.8822   43.7250   64.6799 C   0  0  0  0  0  0
   15.5937   42.5091   64.6114 N   0  0  0  0  0  0
   16.4606   43.0164   65.5035 C   0  0  0  0  0  0
   16.1317   43.5025   66.5821 O   0  0  0  0  0  0
   17.9358   42.9411   65.1406 C   0  0  0  0  0  0
    9.5135   33.5339   71.8311 H   0  0  0  0  0  0
   10.8227   33.5138   73.9398 H   0  0  0  0  0  0
   11.2444   35.5891   75.1706 H   0  0  0  0  0  0
   10.5214   37.7821   74.2615 H   0  0  0  0  0  0
    9.9665   39.5729   65.9396 H   0  0  0  0  0  0
    9.1278   37.5627   67.0712 H   0  0  0  0  0  0
    7.0489   39.8690   69.9400 H   0  0  0  0  0  0
    8.1206   44.0663   67.8367 H   0  0  0  0  0  0
    9.5193   43.8291   65.4359 H   0  0  0  0  0  0
    9.7211   42.2161   64.7877 H   0  0  0  0  0  0
   11.7140   40.9919   65.1405 H   0  0  0  0  0  0
   11.6829   41.1686   66.8719 H   0  0  0  0  0  0
   13.9401   40.7158   65.9398 H   0  0  0  0  0  0
   13.8413   42.2163   66.8692 H   0  0  0  0  0  0
   13.8229   41.8956   63.8753 H   0  0  0  0  0  0
   13.7526   44.5835   65.3101 H   0  0  0  0  0  0
   13.6616   44.2606   63.6055 H   0  0  0  0  0  0
   11.5097   43.2981   63.7486 H   0  0  0  0  0  0
   11.4614   44.7219   64.7402 H   0  0  0  0  0  0
   15.9255   42.4832   63.6549 H   0  0  0  0  0  0
   18.2834   43.9131   64.7914 H   0  0  0  0  0  0
   18.1141   42.2170   64.3451 H   0  0  0  0  0  0
   18.5313   42.6506   66.0061 H   0  0  0  0  0  0
  1  3  1  0  0  0
  1 13  1  0  0  0
  2  3  1  0  0  0
  2  6  1  0  0  0
  3  4  2  0  0  0
  4  5  1  0  0  0
  5  6  1  0  0  0
  5  7  2  0  0  0
  6 10  2  0  0  0
  7  8  1  0  0  0
  7 31  1  0  0  0
  8  9  2  0  0  0
  8 32  1  0  0  0
  9 10  1  0  0  0
  9 33  1  0  0  0
 10 34  1  0  0  0
 11 16  2  0  0  0
 11 12  1  0  0  0
 11 35  1  0  0  0
 12 13  2  0  0  0
 12 36  1  0  0  0
 13 14  1  0  0  0
 14 17  2  0  0  0
 14 37  1  0  0  0
 15 16  1  0  0  0
 15 19  2  0  0  0
 15 20  1  0  0  0
 16 17  1  0  0  0
 17 18  1  0  0  0
 18 19  1  0  0  0
 19 38  1  0  0  0
 20 21  1  0  0  0
 20 39  1  0  0  0
 20 40  1  0  0  0
 21 22  1  0  0  0
 21 26  1  0  0  0
 22 23  1  0  0  0
 22 41  1  0  0  0
 22 42  1  0  0  0
 23 24  1  0  0  0
 23 43  1  0  0  0
 23 44  1  0  0  0
 24 25  1  0  0  0
 24 27  1  0  0  0
 24 45  1  0  0  0
 25 26  1  0  0  0
 25 46  1  0  0  0
 25 47  1  0  0  0
 26 48  1  0  0  0
 26 49  1  0  0  0
 27 28  1  0  0  0
 27 50  1  0  0  0
 28 29  2  0  0  0
 28 30  1  0  0  0
 30 51  1  0  0  0
 30 52  1  0  0  0
 30 53  1  0  0  0
M  END
> <s_m_entry_id>
6620

> <s_m_entry_name>
dock_pv.50

> <s_m_Source_Path>
/home/csk/Desktop/cluster/DUD-E-result/lkha4

> <s_m_Source_File>
dock_pv.maegz

> <i_m_Source_File_Index>
50

> <chembl_id>
CHEMBL2313568

> <chembl_pref_name>
None

> <i_lp_mmshare_version>
53161

> <i_f3d_flags>
0

> <r_lp_tautomer_probability>
1

> <s_lp_Force_Field>
OPLS_2005

> <r_lp_Energy>
24.824645

> <b_lp_Chiralities_Consistent>
1

> <s_lp_Variant>
CHEMBL4618_lig446-1

> <s_i_glide_gridfile>
glide-grid_3chp

> <i_i_glide_lignum>
522

> <i_i_glide_rotatable_bonds>
6

> <r_i_docking_score>
-10.6766822496814

> <r_i_glide_ligand_efficiency>
-0.355889408322715

> <r_i_glide_ligand_efficiency_sa>
-1.10583113681131

> <r_i_glide_ligand_efficiency_ln>
-2.42585853889818

> <r_i_glide_gscore>
-10.6766822496814

> <r_i_glide_lipo>
-6.01423467484613

> <r_i_glide_hbond>
-0.0662705270196017

> <r_i_glide_metal>
0

> <r_i_glide_rewards>
-1.4351205961503

> <r_i_glide_evdw>
-50.5570068359375

> <r_i_glide_ecoul>
-6.60312509536743

> <r_i_glide_erotb>
0.557262654436584

> <r_i_glide_esite>
-0.2

> <r_i_glide_emodel>
-88.0810673576693

> <r_i_glide_energy>
-57.1601319313049

> <r_i_glide_einternal>
7.06695604324341

> <i_i_glide_confnum>
19

> <i_i_glide_posenum>
269

> <r_i_glide_eff_state_penalty>
0

> <s_user_duplicate_titles>
CHEMBL4618_lig446

> <s_m_subgroup_title>
dock_pv

> <s_m_subgroupid>
dock_pv

> <b_m_subgroup_collapsed>
1

$$$$
CHEMBL4618_lig205
                    3D
 Schrodinger Suite 2021-1.
 54 55  0  0  1  0            999 V2000
    8.3153   40.3907   68.3307 C   0  0  0  0  0  0
    9.1853   39.6681   67.5101 C   0  0  0  0  0  0
   10.1210   40.3374   66.7400 C   0  0  0  0  0  0
   10.1813   41.7202   66.7782 C   0  0  0  0  0  0
    9.2622   42.4486   67.5432 C   0  0  0  0  0  0
    8.3243   41.7813   68.3195 C   0  0  0  0  0  0
   11.1994   42.3213   66.0381 N   0  0  0  0  0  0
   11.0536   43.4160   65.2861 C   0  0  0  0  0  0
    9.9703   43.9787   65.1400 O   0  0  0  0  0  0
   12.2788   43.9207   64.5103 C   0  0  0  0  0  0
   13.6757   43.7202   65.1562 C   0  0  0  0  0  0
   14.4304   42.4673   64.6343 C   0  0  2  0  0  0
   13.7771   41.2391   65.1399 N   0  0  0  0  0  0
    7.4161   39.7567   69.1400 O   0  0  0  0  0  0
    7.8805   38.7290   69.9193 C   0  0  0  0  0  0
    8.5210   38.9711   71.1348 C   0  0  0  0  0  0
    8.9241   37.9154   71.9459 C   0  0  0  0  0  0
    8.7197   36.6144   71.5136 C   0  0  0  0  0  0
    8.1210   36.3914   70.2797 C   0  0  0  0  0  0
    7.6927   37.4325   69.4810 C   0  0  0  0  0  0
   15.9481   42.4314   64.9987 C   0  0  0  0  0  0
   16.5210   41.3530   65.1400 O   0  0  0  0  0  0
   16.6102   43.5842   65.1400 N   0  0  0  0  0  0
   17.9986   43.7135   65.5874 C   0  0  0  0  0  0
   18.1453   44.7649   66.6962 C   0  0  0  0  0  0
   17.2646   44.5110   67.9443 C   0  0  0  0  0  0
   17.3206   45.6431   68.9728 C   0  0  0  0  0  0
   16.4524   45.4160   69.9980 O   0  0  0  0  0  0
   18.0490   46.6301   68.8655 O   0  0  0  0  0  0
    9.1585   38.5892   67.4828 H   0  0  0  0  0  0
   10.8050   39.7857   66.1129 H   0  0  0  0  0  0
    9.2723   43.5242   67.5400 H   0  0  0  0  0  0
    7.6176   42.3370   68.9201 H   0  0  0  0  0  0
   12.0483   41.7885   65.8800 H   0  0  0  0  0  0
   12.1375   44.9867   64.3400 H   0  0  0  0  0  0
   12.2442   43.4375   63.5400 H   0  0  0  0  0  0
   13.6005   43.6901   66.2455 H   0  0  0  0  0  0
   14.2455   44.6160   64.9238 H   0  0  0  0  0  0
   14.3996   42.4931   63.5438 H   0  0  0  0  0  0
   14.1210   40.4090   64.6686 H   0  0  0  0  0  0
   13.9713   41.0902   66.1228 H   0  0  0  0  0  0
    8.6169   39.9813   71.4770 H   0  0  0  0  0  0
    9.3802   38.1059   72.9064 H   0  0  0  0  0  0
    9.0408   35.7801   72.1201 H   0  0  0  0  0  0
    8.0260   35.4160   69.8909 H   0  0  0  0  0  0
    7.2337   37.2436   68.5227 H   0  0  0  0  0  0
   16.1816   44.3959   64.7078 H   0  0  0  0  0  0
   18.6288   43.9791   64.7400 H   0  0  0  0  0  0
   18.3861   42.7639   65.9641 H   0  0  0  0  0  0
   17.9157   45.7369   66.2650 H   0  0  0  0  0  0
   19.1958   44.8082   66.9896 H   0  0  0  0  0  0
   17.5649   43.5807   68.4286 H   0  0  0  0  0  0
   16.2224   44.4005   67.6415 H   0  0  0  0  0  0
   15.9656   44.5892   69.8901 H   0  0  0  0  0  0
  1  6  1  0  0  0
  1  2  2  0  0  0
  1 14  1  0  0  0
  2  3  1  0  0  0
  2 30  1  0  0  0
  3  4  2  0  0  0
  3 31  1  0  0  0
  4  7  1  0  0  0
  4  5  1  0  0  0
  5  6  2  0  0  0
  5 32  1  0  0  0
  6 33  1  0  0  0
  7  8  1  0  0  0
  7 34  1  0  0  0
  8  9  2  0  0  0
  8 10  1  0  0  0
 10 11  1  0  0  0
 10 35  1  0  0  0
 10 36  1  0  0  0
 11 12  1  0  0  0
 11 37  1  0  0  0
 11 38  1  0  0  0
 12 21  1  0  0  0
 12 13  1  0  0  0
 12 39  1  0  0  0
 13 40  1  0  0  0
 13 41  1  0  0  0
 14 15  1  0  0  0
 15 16  2  0  0  0
 15 20  1  0  0  0
 16 17  1  0  0  0
 16 42  1  0  0  0
 17 18  2  0  0  0
 17 43  1  0  0  0
 18 19  1  0  0  0
 18 44  1  0  0  0
 19 20  2  0  0  0
 19 45  1  0  0  0
 20 46  1  0  0  0
 21 22  2  0  0  0
 21 23  1  0  0  0
 23 24  1  0  0  0
 23 47  1  0  0  0
 24 25  1  0  0  0
 24 48  1  0  0  0
 24 49  1  0  0  0
 25 26  1  0  0  0
 25 50  1  0  0  0
 25 51  1  0  0  0
 26 27  1  0  0  0
 26 52  1  0  0  0
 26 53  1  0  0  0
 27 28  1  0  0  0
 27 29  2  0  0  0
 28 54  1  0  0  0
M  END
> <s_m_entry_id>
6621

> <s_m_entry_name>
dock_pv.51

> <s_m_Source_Path>
/home/csk/Desktop/cluster/DUD-E-result/lkha4

> <s_m_Source_File>
dock_pv.maegz

> <i_m_Source_File_Index>
51

> <chembl_id>
CHEMBL514552

> <chembl_pref_name>
None

> <i_lp_mmshare_version>
53161

> <i_f3d_flags>
0

> <r_lp_tautomer_probability>
1

> <s_lp_Force_Field>
OPLS_2005

> <r_lp_Energy>
23.357772

> <b_lp_Chiralities_Consistent>
1

> <s_lp_Variant>
CHEMBL4618_lig205-1

> <s_i_glide_gridfile>
glide-grid_3chp

> <i_i_glide_lignum>
233

> <i_i_glide_rotatable_bonds>
14

> <r_i_docking_score>
-10.6607269215761

> <r_i_glide_ligand_efficiency>
-0.367611273157796

> <r_i_glide_ligand_efficiency_sa>
-1.1294182985668

> <r_i_glide_ligand_efficiency_ln>
-2.44103613233114

> <r_i_glide_gscore>
-10.6607269215761

> <r_i_glide_lipo>
-4.29191965638912

> <r_i_glide_hbond>
-1.22098774674206

> <r_i_glide_metal>
0

> <r_i_glide_rewards>
-0.915336854537876

> <r_i_glide_evdw>
-46.7067222595215

> <r_i_glide_ecoul>
-21.5449142456055

> <r_i_glide_erotb>
1.59651857083876

> <r_i_glide_esite>
-0.261927984928901

> <r_i_glide_emodel>
-105.505455513813

> <r_i_glide_energy>
-68.251636505127

> <r_i_glide_einternal>
14.0048494338989

> <i_i_glide_confnum>
310

> <i_i_glide_posenum>
87

> <r_i_glide_eff_state_penalty>
0

> <s_user_duplicate_titles>
CHEMBL4618_lig205,507035

> <s_m_subgroup_title>
dock_pv

> <s_m_subgroupid>
dock_pv

> <b_m_subgroup_collapsed>
1

$$$$
CHEMBL4618_lig433
                    3D
 Schrodinger Suite 2021-1.
 50 55  0  0  1  0            999 V2000
    7.7433   37.2738   69.4259 O   0  0  0  0  0  0
    8.9208   38.0357   71.8078 S   0  0  0  0  0  0
    8.3325   36.8897   70.6169 C   0  0  0  0  0  0
    8.5210   35.6471   70.9270 N   0  0  0  0  0  0
    9.3027   35.4897   72.0231 C   0  0  0  0  0  0
    9.5834   36.6829   72.7304 C   0  0  0  0  0  0
    9.7793   34.2933   72.3828 N   0  0  0  0  0  0
   10.5185   34.2514   73.5256 C   0  0  0  0  0  0
   10.7653   35.3605   74.3356 C   0  0  0  0  0  0
   10.3053   36.6161   73.9338 C   0  0  0  0  0  0
    9.3210   39.3900   66.8422 C   0  0  0  0  0  0
    8.7855   38.2898   67.5311 C   0  0  0  0  0  0
    8.1291   38.4120   68.7511 C   0  0  0  0  0  0
    7.8574   39.6764   69.2376 C   0  0  0  0  0  0
    9.4707   42.0234   66.9968 C   0  0  0  0  0  0
    9.1110   40.6741   67.3513 C   0  0  0  0  0  0
    8.3294   40.7738   68.5261 C   0  0  0  0  0  0
    8.0898   42.0589   68.8479 O   0  0  0  0  0  0
    8.7005   42.7698   67.8740 C   0  0  0  0  0  0
   10.3700   42.5941   65.9033 C   0  0  0  0  0  0
   11.8230   42.5517   66.1874 N   0  0  1  0  0  0
   12.5113   41.3793   65.6012 C   0  0  0  0  0  0
   13.4905   41.9556   64.5342 C   0  0  2  0  0  0
   14.5813   42.6155   65.2757 N   0  0  0  0  0  0
   13.9804   43.7399   65.9975 C   0  0  0  0  0  0
   12.5253   43.6528   65.4926 C   0  0  1  0  0  0
   15.9084   42.3824   65.1399 C   0  0  0  0  0  0
   16.3695   41.4160   64.5311 O   0  0  0  0  0  0
   16.8887   43.3089   65.8590 C   0  0  0  0  0  0
   12.7430   43.1943   64.0611 C   0  0  0  0  0  0
   10.8909   33.2765   73.8100 H   0  0  0  0  0  0
   11.3278   35.2520   75.2520 H   0  0  0  0  0  0
   10.5227   37.4934   74.5174 H   0  0  0  0  0  0
    9.8888   39.2408   65.9399 H   0  0  0  0  0  0
    8.9210   37.2977   67.1380 H   0  0  0  0  0  0
    7.3210   39.7906   70.1491 H   0  0  0  0  0  0
    8.5208   43.8161   67.9570 H   0  0  0  0  0  0
   10.1074   43.6526   65.8536 H   0  0  0  0  0  0
   10.1210   42.2160   64.9152 H   0  0  0  0  0  0
   11.7978   40.6995   65.1407 H   0  0  0  0  0  0
   13.0442   40.7831   66.3410 H   0  0  0  0  0  0
   13.8416   41.2503   63.7774 H   0  0  0  0  0  0
   14.4665   44.6160   65.5909 H   0  0  0  0  0  0
   14.0761   43.7299   67.0836 H   0  0  0  0  0  0
   12.0182   44.6148   65.5707 H   0  0  0  0  0  0
   16.6160   43.4401   66.9062 H   0  0  0  0  0  0
   17.9012   42.9053   65.8173 H   0  0  0  0  0  0
   16.9003   44.2824   65.3692 H   0  0  0  0  0  0
   13.3457   43.8746   63.4530 H   0  0  0  0  0  0
   11.8082   43.0160   63.5403 H   0  0  0  0  0  0
  1  3  1  0  0  0
  1 13  1  0  0  0
  2  3  1  0  0  0
  2  6  1  0  0  0
  3  4  2  0  0  0
  4  5  1  0  0  0
  5  6  1  0  0  0
  5  7  2  0  0  0
  6 10  2  0  0  0
  7  8  1  0  0  0
  8  9  2  0  0  0
  8 31  1  0  0  0
  9 10  1  0  0  0
  9 32  1  0  0  0
 10 33  1  0  0  0
 11 16  2  0  0  0
 11 12  1  0  0  0
 11 34  1  0  0  0
 12 13  2  0  0  0
 12 35  1  0  0  0
 13 14  1  0  0  0
 14 17  2  0  0  0
 14 36  1  0  0  0
 15 16  1  0  0  0
 15 19  2  0  0  0
 15 20  1  0  0  0
 16 17  1  0  0  0
 17 18  1  0  0  0
 18 19  1  0  0  0
 19 37  1  0  0  0
 20 21  1  0  0  0
 20 38  1  0  0  0
 20 39  1  0  0  0
 21 22  1  0  0  0
 21 26  1  0  0  0
 22 23  1  0  0  0
 22 40  1  0  0  0
 22 41  1  0  0  0
 23 24  1  0  0  0
 23 30  1  0  0  0
 23 42  1  0  0  0
 24 25  1  0  0  0
 24 27  1  0  0  0
 25 26  1  0  0  0
 25 43  1  0  0  0
 25 44  1  0  0  0
 26 30  1  0  0  0
 26 45  1  0  0  0
 27 28  2  0  0  0
 27 29  1  0  0  0
 29 46  1  0  0  0
 29 47  1  0  0  0
 29 48  1  0  0  0
 30 49  1  0  0  0
 30 50  1  0  0  0
M  END
> <s_m_entry_id>
6622

> <s_m_entry_name>
dock_pv.52

> <s_m_Source_Path>
/home/csk/Desktop/cluster/DUD-E-result/lkha4

> <s_m_Source_File>
dock_pv.maegz

> <i_m_Source_File_Index>
52

> <chembl_id>
CHEMBL2313272

> <chembl_pref_name>
None

> <i_lp_mmshare_version>
53161

> <i_f3d_flags>
0

> <r_lp_tautomer_probability>
1

> <s_lp_Force_Field>
OPLS_2005

> <r_lp_Energy>
79.886376

> <b_lp_Chiralities_Consistent>
1

> <s_lp_Variant>
CHEMBL4618_lig433-1

> <s_i_glide_gridfile>
glide-grid_3chp

> <i_i_glide_lignum>
502

> <i_i_glide_rotatable_bonds>
5

> <r_i_docking_score>
-10.6357051337293

> <r_i_glide_ligand_efficiency>
-0.354523504457642

> <r_i_glide_ligand_efficiency_sa>
-1.10158695592656

> <r_i_glide_ligand_efficiency_ln>
-2.41654809167241

> <r_i_glide_gscore>
-10.6357051337293

> <r_i_glide_lipo>
-5.71184580078914

> <r_i_glide_hbond>
-0.0271224316725907

> <r_i_glide_metal>
0

> <r_i_glide_rewards>
-1.43430388279868

> <r_i_glide_evdw>
-49.4290580749512

> <r_i_glide_ecoul>
-8.58035182952881

> <r_i_glide_erotb>
0.447782355423934

> <r_i_glide_esite>
-0.151709695715912

> <r_i_glide_emodel>
-71.6904415187653

> <r_i_glide_energy>
-58.00940990448

> <r_i_glide_einternal>
11.0969352722168

> <i_i_glide_confnum>
28

> <i_i_glide_posenum>
316

> <r_i_glide_eff_state_penalty>
0

> <s_user_duplicate_titles>
CHEMBL4618_lig433

> <s_m_subgroup_title>
dock_pv

> <s_m_subgroupid>
dock_pv

> <b_m_subgroup_collapsed>
1

$$$$
CHEMBL4618_lig418
                    3D
 Schrodinger Suite 2021-1.
 46 49  0  0  1  0            999 V2000
   10.6378   35.6399   74.2532 C   0  0  0  0  0  0
   10.2615   36.8846   73.7486 C   0  0  0  0  0  0
    9.6727   34.4957   72.3368 N   0  0  0  0  0  0
   10.3562   34.4935   73.5124 C   0  0  0  0  0  0
    9.2442   35.6820   71.8893 C   0  0  0  0  0  0
    9.5476   36.8977   72.5424 C   0  0  0  0  0  0
    8.9210   38.2160   71.5718 S   0  0  0  0  0  0
    8.3289   37.0625   70.4117 C   0  0  0  0  0  0
    8.5210   35.8161   70.7400 N   0  0  0  0  0  0
    7.7166   37.4794   69.2420 O   0  0  0  0  0  0
    8.0803   38.6539   68.6020 C   0  0  0  0  0  0
    7.7797   39.9296   69.0754 C   0  0  0  0  0  0
    8.2476   41.0821   68.4353 C   0  0  0  0  0  0
    9.0053   40.9685   67.2662 C   0  0  0  0  0  0
    9.2046   39.6868   66.7400 C   0  0  0  0  0  0
    8.7460   38.5523   67.3945 C   0  0  0  0  0  0
    9.4990   42.2262   66.5118 C   0  0  0  0  0  0
   10.9610   42.4537   66.3825 N   0  0  1  0  0  0
   11.7760   41.2409   66.2769 C   0  0  0  0  0  0
   13.2702   41.4918   66.0424 C   0  0  0  0  0  0
   13.5373   42.3719   64.8211 C   0  0  0  0  0  0
   12.7619   43.6887   65.0498 C   0  0  0  0  0  0
   11.2494   43.4159   65.2982 C   0  0  0  0  0  0
   15.0651   42.6160   64.7372 C   0  0  0  0  0  0
   15.7210   42.2160   63.6452 N   0  0  0  0  0  0
   15.6785   43.1357   65.6677 O   0  0  0  0  0  0
   11.1766   35.5672   75.1874 H   0  0  0  0  0  0
   10.5210   37.7965   74.2634 H   0  0  0  0  0  0
   10.6718   33.5237   73.8703 H   0  0  0  0  0  0
    7.1695   40.0059   69.9400 H   0  0  0  0  0  0
    8.0040   42.0543   68.8409 H   0  0  0  0  0  0
    9.7249   39.5324   65.8165 H   0  0  0  0  0  0
    8.9210   37.5762   66.9705 H   0  0  0  0  0  0
    9.0798   43.1090   66.9980 H   0  0  0  0  0  0
    9.0361   42.2160   65.5270 H   0  0  0  0  0  0
   11.4130   40.6346   65.4576 H   0  0  0  0  0  0
   11.6400   40.6479   67.1794 H   0  0  0  0  0  0
   13.7210   40.5053   65.9371 H   0  0  0  0  0  0
   13.6084   41.9809   66.9568 H   0  0  0  0  0  0
   13.2382   41.8781   63.8960 H   0  0  0  0  0  0
   13.1075   44.2160   65.9397 H   0  0  0  0  0  0
   12.8267   44.3365   64.1744 H   0  0  0  0  0  0
   10.8084   43.0356   64.3759 H   0  0  0  0  0  0
   10.7291   44.3465   65.5163 H   0  0  0  0  0  0
   15.2293   41.8166   62.8441 H   0  0  0  0  0  0
   16.6760   42.5252   63.5047 H   0  0  0  0  0  0
  1  2  2  0  0  0
  1  4  1  0  0  0
  1 27  1  0  0  0
  2  6  1  0  0  0
  2 28  1  0  0  0
  3  5  1  0  0  0
  3  4  2  0  0  0
  4 29  1  0  0  0
  5  6  2  0  0  0
  5  9  1  0  0  0
  6  7  1  0  0  0
  7  8  1  0  0  0
  8  9  2  0  0  0
  8 10  1  0  0  0
 10 11  1  0  0  0
 11 12  2  0  0  0
 11 16  1  0  0  0
 12 13  1  0  0  0
 12 30  1  0  0  0
 13 14  2  0  0  0
 13 31  1  0  0  0
 14 15  1  0  0  0
 14 17  1  0  0  0
 15 16  2  0  0  0
 15 32  1  0  0  0
 16 33  1  0  0  0
 17 18  1  0  0  0
 17 34  1  0  0  0
 17 35  1  0  0  0
 18 19  1  0  0  0
 18 23  1  0  0  0
 19 20  1  0  0  0
 19 36  1  0  0  0
 19 37  1  0  0  0
 20 21  1  0  0  0
 20 38  1  0  0  0
 20 39  1  0  0  0
 21 22  1  0  0  0
 21 24  1  0  0  0
 21 40  1  0  0  0
 22 23  1  0  0  0
 22 41  1  0  0  0
 22 42  1  0  0  0
 23 43  1  0  0  0
 23 44  1  0  0  0
 24 25  1  0  0  0
 24 26  2  0  0  0
 25 45  1  0  0  0
 25 46  1  0  0  0
M  END
> <s_m_entry_id>
6623

> <s_m_entry_name>
dock_pv.53

> <s_m_Source_Path>
/home/csk/Desktop/cluster/DUD-E-result/lkha4

> <s_m_Source_File>
dock_pv.maegz

> <i_m_Source_File_Index>
53

> <chembl_id>
CHEMBL2207752

> <chembl_pref_name>
None

> <i_lp_mmshare_version>
53161

> <i_f3d_flags>
0

> <r_lp_tautomer_probability>
1

> <s_lp_Force_Field>
OPLS_2005

> <r_lp_Energy>
22.536634

> <b_lp_Chiralities_Consistent>
1

> <s_lp_Variant>
CHEMBL4618_lig418-1

> <s_i_glide_gridfile>
glide-grid_3chp

> <i_i_glide_lignum>
485

> <i_i_glide_rotatable_bonds>
5

> <r_i_docking_score>
-10.6006806810635

> <r_i_glide_ligand_efficiency>
-0.40771848773321

> <r_i_glide_ligand_efficiency_sa>
-1.20786441561485

> <r_i_glide_ligand_efficiency_ln>
-2.48953507427735

> <r_i_glide_gscore>
-10.6006806810635

> <r_i_glide_lipo>
-5.25495437027861

> <r_i_glide_hbond>
-0.253769844626203

> <r_i_glide_metal>
0

> <r_i_glide_rewards>
-1.79690659090909

> <r_i_glide_evdw>
-45.7332077026367

> <r_i_glide_ecoul>
-9.17443180084229

> <r_i_glide_erotb>
0.567775280008627

> <r_i_glide_esite>
-0.2

> <r_i_glide_emodel>
-81.077223536829

> <r_i_glide_energy>
-54.907639503479

> <r_i_glide_einternal>
11.3777294158936

> <i_i_glide_confnum>
18

> <i_i_glide_posenum>
263

> <r_i_glide_eff_state_penalty>
0

> <s_user_duplicate_titles>
CHEMBL4618_lig418

> <s_m_subgroup_title>
dock_pv

> <s_m_subgroupid>
dock_pv

> <b_m_subgroup_collapsed>
1

$$$$
CHEMBL4618_lig143
                    3D
 Schrodinger Suite 2021-1.
 50 51  0  0  1  0            999 V2000
   16.4366   42.3677   64.9298 C   0  0  0  0  0  0
   15.3825   42.1089   63.8608 C   0  0  0  0  0  0
   16.9209   41.4159   65.5349 O   0  0  0  0  0  0
   14.0026   41.6577   64.4079 C   0  0  0  0  0  0
   16.8438   43.6123   65.1400 N   0  0  0  0  0  0
   13.2349   42.6444   65.1938 N   0  0  2  0  0  0
    8.0942   38.0844   69.5721 C   0  0  0  0  0  0
    7.6562   37.0283   70.5938 C   0  0  0  0  0  0
    8.8347   40.0453   67.6845 C   0  0  0  0  0  0
    8.2493   37.7536   68.2295 C   0  0  0  0  0  0
    8.2303   39.4160   69.9402 C   0  0  0  0  0  0
    8.5227   40.3994   69.0033 C   0  0  0  0  0  0
    8.6333   38.7195   67.2938 C   0  0  0  0  0  0
    8.6695   36.5575   71.6450 C   0  0  0  0  0  0
   10.8738   42.8413   66.2337 C   0  0  0  0  0  0
    9.3686   40.9286   66.7555 O   0  0  0  0  0  0
   12.0810   41.9577   65.8172 C   0  0  0  0  0  0
    9.8866   42.1840   67.2192 C   0  0  0  0  0  0
   12.8542   43.7832   64.3507 C   0  0  0  0  0  0
    8.9721   35.1985   71.7779 C   0  0  0  0  0  0
    9.2435   37.4585   72.5415 C   0  0  0  0  0  0
    9.8632   34.7515   72.7487 C   0  0  0  0  0  0
   10.1211   37.0157   73.5290 C   0  0  0  0  0  0
   10.4246   35.6622   73.6345 C   0  0  0  0  0  0
   15.2635   43.0159   63.2740 H   0  0  0  0  0  0
   15.7794   41.3921   63.1435 H   0  0  0  0  0  0
   13.3956   41.3913   63.5411 H   0  0  0  0  0  0
   14.1199   40.7174   64.9509 H   0  0  0  0  0  0
   17.5794   43.8100   65.7984 H   0  0  0  0  0  0
   16.4982   44.3251   64.5072 H   0  0  0  0  0  0
    6.7845   37.4170   71.1225 H   0  0  0  0  0  0
    7.3005   36.1585   70.0417 H   0  0  0  0  0  0
    8.1241   36.7237   67.9398 H   0  0  0  0  0  0
    8.1211   39.7057   70.9690 H   0  0  0  0  0  0
    8.6064   41.4194   69.3443 H   0  0  0  0  0  0
    8.8308   38.4278   66.2724 H   0  0  0  0  0  0
   11.2011   43.8115   66.6119 H   0  0  0  0  0  0
   10.2948   43.0546   65.3346 H   0  0  0  0  0  0
   11.7039   41.1935   65.1404 H   0  0  0  0  0  0
   12.4349   41.4007   66.6858 H   0  0  0  0  0  0
   10.4163   42.0658   68.1622 H   0  0  0  0  0  0
    9.0520   42.8614   67.4086 H   0  0  0  0  0  0
   12.3432   44.5543   64.9248 H   0  0  0  0  0  0
   13.7204   44.2784   63.9178 H   0  0  0  0  0  0
   12.1963   43.4720   63.5401 H   0  0  0  0  0  0
    8.5209   34.4627   71.1392 H   0  0  0  0  0  0
    8.9923   38.5048   72.5000 H   0  0  0  0  0  0
   10.0947   33.6996   72.8342 H   0  0  0  0  0  0
   10.5642   37.7183   74.2172 H   0  0  0  0  0  0
   11.0990   35.3170   74.4050 H   0  0  0  0  0  0
  1  2  1  0  0  0
  1  3  2  0  0  0
  1  5  1  0  0  0
  2  4  1  0  0  0
  2 25  1  0  0  0
  2 26  1  0  0  0
  4  6  1  0  0  0
  4 27  1  0  0  0
  4 28  1  0  0  0
  5 29  1  0  0  0
  5 30  1  0  0  0
  6 17  1  0  0  0
  6 19  1  0  0  0
  7 10  1  0  0  0
  7  8  1  0  0  0
  7 11  2  0  0  0
  8 14  1  0  0  0
  8 31  1  0  0  0
  8 32  1  0  0  0
  9 16  1  0  0  0
  9 12  2  0  0  0
  9 13  1  0  0  0
 10 13  2  0  0  0
 10 33  1  0  0  0
 11 12  1  0  0  0
 11 34  1  0  0  0
 12 35  1  0  0  0
 13 36  1  0  0  0
 14 20  2  0  0  0
 14 21  1  0  0  0
 15 17  1  0  0  0
 15 18  1  0  0  0
 15 37  1  0  0  0
 15 38  1  0  0  0
 16 18  1  0  0  0
 17 39  1  0  0  0
 17 40  1  0  0  0
 18 41  1  0  0  0
 18 42  1  0  0  0
 19 43  1  0  0  0
 19 44  1  0  0  0
 19 45  1  0  0  0
 20 22  1  0  0  0
 20 46  1  0  0  0
 21 23  2  0  0  0
 21 47  1  0  0  0
 22 24  2  0  0  0
 22 48  1  0  0  0
 23 24  1  0  0  0
 23 49  1  0  0  0
 24 50  1  0  0  0
M  END
> <s_m_entry_id>
6624

> <s_m_entry_name>
dock_pv.54

> <s_m_Source_Path>
/home/csk/Desktop/cluster/DUD-E-result/lkha4

> <s_m_Source_File>
dock_pv.maegz

> <i_m_Source_File_Index>
54

> <chembl_id>
CHEMBL117654

> <chembl_pref_name>
None

> <i_lp_mmshare_version>
53161

> <i_f3d_flags>
0

> <r_lp_tautomer_probability>
1

> <s_lp_Force_Field>
OPLS_2005

> <r_lp_Energy>
19.730338

> <b_lp_Chiralities_Consistent>
1

> <s_lp_Variant>
CHEMBL4618_lig143-1

> <s_i_glide_gridfile>
glide-grid_3chp

> <i_i_glide_lignum>
169

> <i_i_glide_rotatable_bonds>
10

> <r_i_docking_score>
-10.5883996814785

> <r_i_glide_ligand_efficiency>
-0.441183320061602

> <r_i_glide_ligand_efficiency_sa>
-1.27259290622316

> <r_i_glide_ligand_efficiency_ln>
-2.53428991377947

> <r_i_glide_gscore>
-10.5883996814785

> <r_i_glide_lipo>
-5.11062299666792

> <r_i_glide_hbond>
-0.608

> <r_i_glide_metal>
0

> <r_i_glide_rewards>
-2.07547377772762

> <r_i_glide_evdw>
-41.5389289855957

> <r_i_glide_ecoul>
-14.0092716217041

> <r_i_glide_erotb>
1.58403428545248

> <r_i_glide_esite>
-0.2

> <r_i_glide_emodel>
-87.2192839316323

> <r_i_glide_energy>
-55.5482006072998

> <r_i_glide_einternal>
11.7528810501099

> <i_i_glide_confnum>
108

> <i_i_glide_posenum>
383

> <r_i_glide_eff_state_penalty>
0

> <s_user_duplicate_titles>
CHEMBL4618_lig143,192693

> <s_m_subgroup_title>
dock_pv

> <s_m_subgroupid>
dock_pv

> <b_m_subgroup_collapsed>
1

$$$$
CHEMBL4618_lig268
                    3D
 Schrodinger Suite 2021-1.
 44 47  0  0  1  0            999 V2000
    9.7210   35.0131   73.0789 C   0  0  0  0  0  0
   10.2661   36.1704   73.6177 C   0  0  0  0  0  0
   10.0771   37.4061   73.0020 C   0  0  0  0  0  0
    8.9210   35.0502   71.9400 C   0  0  0  0  0  0
    8.6895   36.2944   71.3425 C   0  0  0  0  0  0
    9.2740   37.4843   71.8495 C   0  0  0  0  0  0
    8.9802   38.6160   71.1400 N   0  0  0  0  0  0
    8.1760   38.3400   70.1491 C   0  0  0  0  0  0
    7.7210   36.6855   69.9400 S   0  0  0  0  0  0
    7.5181   39.2233   69.3352 O   0  0  0  0  0  0
    8.2259   40.1084   68.5676 C   0  0  0  0  0  0
    8.0500   41.4719   68.7747 C   0  0  0  0  0  0
    8.7595   42.3899   68.0099 C   0  0  0  0  0  0
    9.6406   41.9580   67.0169 C   0  0  0  0  0  0
    9.7210   40.5854   66.7400 C   0  0  0  0  0  0
    9.0332   39.6629   67.5231 C   0  0  0  0  0  0
   10.4890   43.0160   66.2853 C   0  0  0  0  0  0
   11.6540   42.5204   65.5400 N   0  0  1  0  0  0
   12.3883   43.5534   64.7915 C   0  0  0  0  0  0
   13.5601   42.9718   63.9431 C   0  0  0  0  0  0
   14.4818   42.0046   64.7127 C   0  0  0  0  0  0
   13.5611   41.0160   65.4210 C   0  0  0  0  0  0
   12.5986   41.7570   66.3400 C   0  0  0  0  0  0
   15.4627   41.3144   63.9400 O   0  0  0  0  0  0
    9.9051   34.0667   73.5677 H   0  0  0  0  0  0
   10.8653   36.1044   74.5151 H   0  0  0  0  0  0
   10.5317   38.2665   73.4500 H   0  0  0  0  0  0
    8.4804   34.1477   71.5400 H   0  0  0  0  0  0
    7.3706   41.8160   69.5400 H   0  0  0  0  0  0
    8.6243   43.4386   68.2085 H   0  0  0  0  0  0
   10.3476   40.2186   65.9401 H   0  0  0  0  0  0
    9.1306   38.6056   67.3229 H   0  0  0  0  0  0
   10.8352   43.7440   67.0180 H   0  0  0  0  0  0
    9.8298   43.5529   65.6016 H   0  0  0  0  0  0
   12.7528   44.3130   65.4839 H   0  0  0  0  0  0
   11.6914   44.0566   64.1257 H   0  0  0  0  0  0
   14.1210   43.8060   63.5401 H   0  0  0  0  0  0
   13.1607   42.4598   63.0752 H   0  0  0  0  0  0
   15.0437   42.5657   65.4614 H   0  0  0  0  0  0
   13.0044   40.4133   64.7018 H   0  0  0  0  0  0
   14.1210   40.2961   65.9993 H   0  0  0  0  0  0
   13.1106   42.4312   67.0302 H   0  0  0  0  0  0
   12.1174   41.0160   66.9679 H   0  0  0  0  0  0
   15.1448   41.2653   63.0143 H   0  0  0  0  0  0
  1  2  2  0  0  0
  1  4  1  0  0  0
  1 25  1  0  0  0
  2  3  1  0  0  0
  2 26  1  0  0  0
  3  6  2  0  0  0
  3 27  1  0  0  0
  4  5  2  0  0  0
  4 28  1  0  0  0
  5  9  1  0  0  0
  5  6  1  0  0  0
  6  7  1  0  0  0
  7  8  2  0  0  0
  8  9  1  0  0  0
  8 10  1  0  0  0
 10 11  1  0  0  0
 11 12  2  0  0  0
 11 16  1  0  0  0
 12 13  1  0  0  0
 12 29  1  0  0  0
 13 14  2  0  0  0
 13 30  1  0  0  0
 14 15  1  0  0  0
 14 17  1  0  0  0
 15 16  2  0  0  0
 15 31  1  0  0  0
 16 32  1  0  0  0
 17 18  1  0  0  0
 17 33  1  0  0  0
 17 34  1  0  0  0
 18 19  1  0  0  0
 18 23  1  0  0  0
 19 20  1  0  0  0
 19 35  1  0  0  0
 19 36  1  0  0  0
 20 21  1  0  0  0
 20 37  1  0  0  0
 20 38  1  0  0  0
 21 22  1  0  0  0
 21 24  1  0  0  0
 21 39  1  0  0  0
 22 23  1  0  0  0
 22 40  1  0  0  0
 22 41  1  0  0  0
 23 42  1  0  0  0
 23 43  1  0  0  0
 24 44  1  0  0  0
M  END
> <s_m_entry_id>
6625

> <s_m_entry_name>
dock_pv.55

> <s_m_Source_Path>
/home/csk/Desktop/cluster/DUD-E-result/lkha4

> <s_m_Source_File>
dock_pv.maegz

> <i_m_Source_File_Index>
55

> <chembl_id>
CHEMBL479752

> <chembl_pref_name>
None

> <i_lp_mmshare_version>
53161

> <i_f3d_flags>
0

> <r_lp_tautomer_probability>
1

> <s_lp_Force_Field>
OPLS_2005

> <r_lp_Energy>
25.667162

> <b_lp_Chiralities_Consistent>
1

> <s_lp_Variant>
CHEMBL4618_lig268-1

> <s_i_glide_gridfile>
glide-grid_3chp

> <i_i_glide_lignum>
306

> <i_i_glide_rotatable_bonds>
5

> <r_i_docking_score>
-10.5712641223385

> <r_i_glide_ligand_efficiency>
-0.440469338430773

> <r_i_glide_ligand_efficiency_sa>
-1.2705334268248

> <r_i_glide_ligand_efficiency_ln>
-2.53018858817771

> <r_i_glide_gscore>
-10.5712641223385

> <r_i_glide_lipo>
-5.45729611330782

> <r_i_glide_hbond>
-0.16

> <r_i_glide_metal>
0

> <r_i_glide_rewards>
-1.98790704545454

> <r_i_glide_evdw>
-43.4040985107422

> <r_i_glide_ecoul>
-9.6628999710083

> <r_i_glide_erotb>
0.653578957612175

> <r_i_glide_esite>
0

> <r_i_glide_emodel>
-82.4031923320205

> <r_i_glide_energy>
-53.0669984817505

> <r_i_glide_einternal>
6.99433517456055

> <i_i_glide_confnum>
7

> <i_i_glide_posenum>
263

> <r_i_glide_eff_state_penalty>
0

> <s_user_duplicate_titles>
CHEMBL4618_lig268,466988

> <s_m_subgroup_title>
dock_pv

> <s_m_subgroupid>
dock_pv

> <b_m_subgroup_collapsed>
1

$$$$
CHEMBL4618_lig429
                    3D
 Schrodinger Suite 2021-1.
 44 47  0  0  1  0            999 V2000
    8.6745   39.8525   68.6614 C   0  0  0  0  0  0
    7.6419   40.7782   68.7399 C   0  0  0  0  0  0
    7.6351   41.9430   67.9742 C   0  0  0  0  0  0
    9.7291   40.1150   67.7974 C   0  0  0  0  0  0
    9.8381   41.3172   67.0893 C   0  0  0  0  0  0
    8.7446   42.2118   67.1779 C   0  0  0  0  0  0
    9.0334   43.2760   66.3604 N   0  0  0  0  0  0
   10.2849   43.1151   65.8286 C   0  0  0  0  0  0
   10.8503   41.9220   66.2468 C   0  0  0  0  0  0
   12.2210   41.3608   65.8650 C   0  0  0  0  0  0
   13.1211   42.3790   65.1314 C   0  0  0  0  0  0
   14.3650   41.7682   64.6924 N   0  0  0  0  0  0
    8.7269   38.6794   69.3934 O   0  0  0  0  0  0
    8.1201   38.6416   70.6899 C   0  0  0  0  0  0
    8.5928   37.4054   71.4513 C   0  0  0  0  0  0
    8.3923   36.1408   70.9163 C   0  0  0  0  0  0
    8.9215   35.0130   71.5407 C   0  0  0  0  0  0
    9.2384   37.5198   72.6832 C   0  0  0  0  0  0
    9.8285   36.3968   73.3197 C   0  0  0  0  0  0
    9.7425   35.1316   72.6774 C   0  0  0  0  0  0
   10.4897   34.0366   73.1854 C   0  0  0  0  0  0
   11.2177   34.1752   74.3600 C   0  0  0  0  0  0
   11.1747   35.3649   75.0751 C   0  0  0  0  0  0
   10.5212   36.4793   74.5537 C   0  0  0  0  0  0
    6.7994   40.5776   69.3773 H   0  0  0  0  0  0
    6.8053   42.6159   68.0003 H   0  0  0  0  0  0
   10.5210   39.4160   67.7484 H   0  0  0  0  0  0
    8.4470   44.0811   66.1797 H   0  0  0  0  0  0
   10.6852   43.8814   65.1824 H   0  0  0  0  0  0
   12.1043   40.4679   65.2500 H   0  0  0  0  0  0
   12.7599   41.0169   66.7401 H   0  0  0  0  0  0
   13.3451   43.2267   65.7803 H   0  0  0  0  0  0
   12.6094   42.7738   64.2525 H   0  0  0  0  0  0
   14.1210   41.0338   64.0391 H   0  0  0  0  0  0
   14.8668   42.4495   64.1335 H   0  0  0  0  0  0
    8.4099   39.5319   71.2497 H   0  0  0  0  0  0
    7.0324   38.6159   70.6107 H   0  0  0  0  0  0
    7.8447   36.0250   69.9914 H   0  0  0  0  0  0
    8.7797   34.0242   71.1401 H   0  0  0  0  0  0
    9.3210   38.4879   73.1400 H   0  0  0  0  0  0
   10.4668   33.0853   72.6732 H   0  0  0  0  0  0
   11.7668   33.3297   74.7487 H   0  0  0  0  0  0
   11.7199   35.4453   76.0005 H   0  0  0  0  0  0
   10.5703   37.4158   75.0831 H   0  0  0  0  0  0
  1  2  2  0  0  0
  1  4  1  0  0  0
  1 13  1  0  0  0
  2  3  1  0  0  0
  2 25  1  0  0  0
  3  6  2  0  0  0
  3 26  1  0  0  0
  4  5  2  0  0  0
  4 27  1  0  0  0
  5  6  1  0  0  0
  5  9  1  0  0  0
  6  7  1  0  0  0
  7  8  1  0  0  0
  7 28  1  0  0  0
  8  9  2  0  0  0
  8 29  1  0  0  0
  9 10  1  0  0  0
 10 11  1  0  0  0
 10 30  1  0  0  0
 10 31  1  0  0  0
 11 12  1  0  0  0
 11 32  1  0  0  0
 11 33  1  0  0  0
 12 34  1  0  0  0
 12 35  1  0  0  0
 13 14  1  0  0  0
 14 15  1  0  0  0
 14 36  1  0  0  0
 14 37  1  0  0  0
 15 16  2  0  0  0
 15 18  1  0  0  0
 16 17  1  0  0  0
 16 38  1  0  0  0
 17 20  2  0  0  0
 17 39  1  0  0  0
 18 19  2  0  0  0
 18 40  1  0  0  0
 19 20  1  0  0  0
 19 24  1  0  0  0
 20 21  1  0  0  0
 21 22  2  0  0  0
 21 41  1  0  0  0
 22 23  1  0  0  0
 22 42  1  0  0  0
 23 24  2  0  0  0
 23 43  1  0  0  0
 24 44  1  0  0  0
M  END
> <s_m_entry_id>
6626

> <s_m_entry_name>
dock_pv.56

> <s_m_Source_Path>
/home/csk/Desktop/cluster/DUD-E-result/lkha4

> <s_m_Source_File>
dock_pv.maegz

> <i_m_Source_File_Index>
56

> <chembl_id>
CHEMBL2316069

> <chembl_pref_name>
None

> <i_lp_mmshare_version>
53161

> <i_f3d_flags>
0

> <r_lp_tautomer_probability>
1

> <s_lp_Force_Field>
OPLS_2005

> <r_lp_Energy>
19.870843

> <b_lp_Chiralities_Consistent>
1

> <s_lp_Variant>
CHEMBL4618_lig429-1

> <s_i_glide_gridfile>
glide-grid_3chp

> <i_i_glide_lignum>
496

> <i_i_glide_rotatable_bonds>
5

> <r_i_docking_score>
-10.5600243981273

> <r_i_glide_ligand_efficiency>
-0.440001016588638

> <r_i_glide_ligand_efficiency_sa>
-1.26918255287506

> <r_i_glide_ligand_efficiency_ln>
-2.52749840641663

> <r_i_glide_gscore>
-10.5600243981273

> <r_i_glide_lipo>
-5.82337906670296

> <r_i_glide_hbond>
-0.0359221608112671

> <r_i_glide_metal>
0

> <r_i_glide_rewards>
-2.38443613798317

> <r_i_glide_evdw>
-38.6366348266602

> <r_i_glide_ecoul>
-7.52206325531006

> <r_i_glide_erotb>
0.743854196999597

> <r_i_glide_esite>
0

> <r_i_glide_emodel>
-64.9344028641566

> <r_i_glide_energy>
-46.1586980819702

> <r_i_glide_einternal>
6.70147895812988

> <i_i_glide_confnum>
48

> <i_i_glide_posenum>
164

> <r_i_glide_eff_state_penalty>
0

> <s_user_duplicate_titles>
CHEMBL4618_lig429

> <s_m_subgroup_title>
dock_pv

> <s_m_subgroupid>
dock_pv

> <b_m_subgroup_collapsed>
1

$$$$
CHEMBL4618_lig400
                    3D
 Schrodinger Suite 2021-1.
 50 54  0  0  1  0            999 V2000
   12.9453   41.5180   65.6659 C   0  0  0  0  0  0
   12.3254   42.8269   65.9670 N   0  0  1  0  0  0
   13.1060   43.7135   65.0908 C   0  0  2  0  0  0
   14.0669   41.8126   64.6292 C   0  0  1  0  0  0
   13.4102   42.9188   63.8344 C   0  0  0  0  0  0
   14.5061   43.8729   65.6974 C   0  0  0  0  0  0
   15.1185   42.6161   65.2864 N   0  0  0  0  0  0
   10.3335   35.8022   73.7545 C   0  0  0  0  0  0
   10.1158   37.0892   73.2665 C   0  0  0  0  0  0
    9.0391   34.8257   71.9399 N   0  0  0  0  0  0
    9.8082   34.7178   73.0565 C   0  0  0  0  0  0
    8.8207   36.0585   71.4724 C   0  0  0  0  0  0
    9.3531   37.2134   72.0963 C   0  0  0  0  0  0
    8.9211   38.6160   71.1400 S   0  0  0  0  0  0
    8.1439   37.5472   69.9865 C   0  0  0  0  0  0
    8.1209   36.2869   70.3238 N   0  0  0  0  0  0
    7.6485   38.0408   68.7929 O   0  0  0  0  0  0
    8.1210   39.2326   68.2778 C   0  0  0  0  0  0
    7.7210   40.4733   68.7719 C   0  0  0  0  0  0
    8.3198   41.6441   68.3168 C   0  0  0  0  0  0
    9.3218   41.5899   67.3436 C   0  0  0  0  0  0
    9.6653   40.3516   66.7920 C   0  0  0  0  0  0
    9.0455   39.1870   67.2424 C   0  0  0  0  0  0
    9.9838   42.9064   66.9287 C   0  0  0  0  0  0
   10.8833   42.9381   65.6694 C   0  0  0  0  0  0
   16.4488   42.4341   65.1400 C   0  0  0  0  0  0
   17.4221   43.4734   65.6993 C   0  0  0  0  0  0
   16.9146   41.4160   64.6436 O   0  0  0  0  0  0
   12.2321   40.8427   65.1975 H   0  0  0  0  0  0
   13.3170   41.0087   66.5542 H   0  0  0  0  0  0
   12.6387   44.6781   64.8991 H   0  0  0  0  0  0
   14.4330   40.9490   64.0706 H   0  0  0  0  0  0
   12.5211   42.6160   63.2985 H   0  0  0  0  0  0
   14.0872   43.4160   63.1401 H   0  0  0  0  0  0
   14.5207   44.1040   66.7626 H   0  0  0  0  0  0
   15.0591   44.6160   65.1400 H   0  0  0  0  0  0
   10.9179   35.6457   74.6495 H   0  0  0  0  0  0
   10.5324   37.9501   73.7658 H   0  0  0  0  0  0
    9.9833   33.7131   73.4125 H   0  0  0  0  0  0
    6.9652   40.5207   69.5374 H   0  0  0  0  0  0
    8.0089   42.5919   68.7349 H   0  0  0  0  0  0
   10.4088   40.2651   66.0196 H   0  0  0  0  0  0
    9.3210   38.2304   66.8252 H   0  0  0  0  0  0
   10.5200   43.3179   67.7850 H   0  0  0  0  0  0
    9.1574   43.5945   66.7394 H   0  0  0  0  0  0
   10.6879   43.9031   65.1993 H   0  0  0  0  0  0
   10.5533   42.2160   64.9283 H   0  0  0  0  0  0
   17.0278   43.9762   66.5816 H   0  0  0  0  0  0
   18.3633   42.9981   65.9771 H   0  0  0  0  0  0
   17.6382   44.2157   64.9304 H   0  0  0  0  0  0
  1  2  1  0  0  0
  1  4  1  0  0  0
  1 29  1  0  0  0
  1 30  1  0  0  0
  2  3  1  0  0  0
  2 25  1  0  0  0
  3  5  1  0  0  0
  3  6  1  0  0  0
  3 31  1  0  0  0
  4  5  1  0  0  0
  4  7  1  0  0  0
  4 32  1  0  0  0
  5 33  1  0  0  0
  5 34  1  0  0  0
  6  7  1  0  0  0
  6 35  1  0  0  0
  6 36  1  0  0  0
  7 26  1  0  0  0
  8  9  2  0  0  0
  8 11  1  0  0  0
  8 37  1  0  0  0
  9 13  1  0  0  0
  9 38  1  0  0  0
 10 12  1  0  0  0
 10 11  2  0  0  0
 11 39  1  0  0  0
 12 13  2  0  0  0
 12 16  1  0  0  0
 13 14  1  0  0  0
 14 15  1  0  0  0
 15 16  2  0  0  0
 15 17  1  0  0  0
 17 18  1  0  0  0
 18 19  2  0  0  0
 18 23  1  0  0  0
 19 20  1  0  0  0
 19 40  1  0  0  0
 20 21  2  0  0  0
 20 41  1  0  0  0
 21 22  1  0  0  0
 21 24  1  0  0  0
 22 23  2  0  0  0
 22 42  1  0  0  0
 23 43  1  0  0  0
 24 25  1  0  0  0
 24 44  1  0  0  0
 24 45  1  0  0  0
 25 46  1  0  0  0
 25 47  1  0  0  0
 26 27  1  0  0  0
 26 28  2  0  0  0
 27 48  1  0  0  0
 27 49  1  0  0  0
 27 50  1  0  0  0
M  END
> <s_m_entry_id>
6627

> <s_m_entry_name>
dock_pv.57

> <s_m_Source_Path>
/home/csk/Desktop/cluster/DUD-E-result/lkha4

> <s_m_Source_File>
dock_pv.maegz

> <i_m_Source_File_Index>
57

> <chembl_id>
CHEMBL2207746

> <chembl_pref_name>
None

> <i_lp_mmshare_version>
53161

> <i_f3d_flags>
0

> <r_lp_tautomer_probability>
1

> <s_lp_Force_Field>
OPLS_2005

> <r_lp_Energy>
81.702905

> <b_lp_Chiralities_Consistent>
1

> <s_lp_Variant>
CHEMBL4618_lig400-2

> <s_i_glide_gridfile>
glide-grid_3chp

> <i_i_glide_lignum>
465

> <i_i_glide_rotatable_bonds>
6

> <r_i_docking_score>
-10.545285359715

> <r_i_glide_ligand_efficiency>
-0.376617334275535

> <r_i_glide_ligand_efficiency_sa>
-1.14363204260803

> <r_i_glide_ligand_efficiency_ln>
-2.43416148405434

> <r_i_glide_gscore>
-10.545285359715

> <r_i_glide_lipo>
-5.5443330097965

> <r_i_glide_hbond>
0

> <r_i_glide_metal>
0

> <r_i_glide_rewards>
-1.60556819037019

> <r_i_glide_evdw>
-51.963996887207

> <r_i_glide_ecoul>
-8.16771221160889

> <r_i_glide_erotb>
0.627972516553388

> <r_i_glide_esite>
-0.2

> <r_i_glide_emodel>
-90.5644755189539

> <r_i_glide_energy>
-60.1317090988159

> <r_i_glide_einternal>
10.5876731872559

> <i_i_glide_confnum>
26

> <i_i_glide_posenum>
68

> <r_i_glide_eff_state_penalty>
0

> <s_user_duplicate_titles>
CHEMBL4618_lig400

> <s_m_subgroup_title>
dock_pv

> <s_m_subgroupid>
dock_pv

> <b_m_subgroup_collapsed>
1

$$$$
CHEMBL4618_lig445
                    3D
 Schrodinger Suite 2021-1.
 52 56  0  0  1  0            999 V2000
    7.7904   37.3838   69.2378 O   0  0  0  0  0  0
    9.0257   38.2160   71.5400 S   0  0  0  0  0  0
    8.3662   37.0309   70.4415 C   0  0  0  0  0  0
    8.5210   35.8031   70.8158 N   0  0  0  0  0  0
    9.2865   35.6842   71.9348 C   0  0  0  0  0  0
    9.6225   36.9088   72.5548 C   0  0  0  0  0  0
    9.7209   34.4991   72.3770 N   0  0  0  0  0  0
   10.4250   34.5054   73.5400 C   0  0  0  0  0  0
   10.7187   35.6574   74.2691 C   0  0  0  0  0  0
   10.3480   36.9018   73.7556 C   0  0  0  0  0  0
    9.3210   39.6637   66.8010 C   0  0  0  0  0  0
    8.8810   38.5170   67.4592 C   0  0  0  0  0  0
    8.1133   38.5665   68.6139 C   0  0  0  0  0  0
    7.6856   39.7928   69.0999 C   0  0  0  0  0  0
    9.0989   42.2782   66.8795 C   0  0  0  0  0  0
    8.9216   40.9146   67.2813 C   0  0  0  0  0  0
    8.0996   40.9451   68.4276 C   0  0  0  0  0  0
    7.7535   42.2161   68.7415 O   0  0  0  0  0  0
    8.3333   42.9967   67.7897 C   0  0  0  0  0  0
    9.8716   42.8190   65.6945 C   0  0  0  0  0  0
   11.3186   42.9506   65.8874 N   0  0  1  0  0  0
   12.0203   41.6646   65.9750 C   0  0  0  0  0  0
   13.5508   41.8265   66.0732 C   0  0  0  0  0  0
   14.2103   42.8054   65.0793 C   0  0  0  0  0  0
   13.3239   44.0229   64.8882 C   0  0  0  0  0  0
   11.8375   43.7197   64.7554 C   0  0  0  0  0  0
   15.5729   43.2330   65.4059 N   0  0  0  0  0  0
   16.7032   42.5611   65.1776 C   0  0  0  0  0  0
   16.7179   41.4160   64.7398 O   0  0  0  0  0  0
   18.0090   43.2555   65.5401 C   0  0  0  0  0  0
   10.7423   33.5373   73.9015 H   0  0  0  0  0  0
   11.2675   35.5891   75.1979 H   0  0  0  0  0  0
   10.6200   37.8150   74.2598 H   0  0  0  0  0  0
    9.9580   39.5742   65.9399 H   0  0  0  0  0  0
    9.1566   37.5497   67.0781 H   0  0  0  0  0  0
    7.0250   39.8163   69.9400 H   0  0  0  0  0  0
    8.0998   44.0479   67.8731 H   0  0  0  0  0  0
    9.4753   43.8121   65.4717 H   0  0  0  0  0  0
    9.7209   42.2159   64.8063 H   0  0  0  0  0  0
   11.7710   41.0187   65.1402 H   0  0  0  0  0  0
   11.6644   41.1455   66.8646 H   0  0  0  0  0  0
   13.9965   40.8398   65.9400 H   0  0  0  0  0  0
   13.7210   42.1736   67.0926 H   0  0  0  0  0  0
   14.2124   42.2996   64.1082 H   0  0  0  0  0  0
   13.4344   44.6160   65.7833 H   0  0  0  0  0  0
   13.6580   44.6157   64.0366 H   0  0  0  0  0  0
   11.6228   43.2156   63.8129 H   0  0  0  0  0  0
   11.3211   44.6698   64.7400 H   0  0  0  0  0  0
   15.6461   44.1473   65.8234 H   0  0  0  0  0  0
   18.4237   42.8297   66.4534 H   0  0  0  0  0  0
   17.8675   44.3261   65.6849 H   0  0  0  0  0  0
   18.7374   43.1188   64.7404 H   0  0  0  0  0  0
  1  3  1  0  0  0
  1 13  1  0  0  0
  2  3  1  0  0  0
  2  6  1  0  0  0
  3  4  2  0  0  0
  4  5  1  0  0  0
  5  6  1  0  0  0
  5  7  2  0  0  0
  6 10  2  0  0  0
  7  8  1  0  0  0
  8  9  2  0  0  0
  8 31  1  0  0  0
  9 10  1  0  0  0
  9 32  1  0  0  0
 10 33  1  0  0  0
 11 16  2  0  0  0
 11 12  1  0  0  0
 11 34  1  0  0  0
 12 13  2  0  0  0
 12 35  1  0  0  0
 13 14  1  0  0  0
 14 17  2  0  0  0
 14 36  1  0  0  0
 15 16  1  0  0  0
 15 19  2  0  0  0
 15 20  1  0  0  0
 16 17  1  0  0  0
 17 18  1  0  0  0
 18 19  1  0  0  0
 19 37  1  0  0  0
 20 21  1  0  0  0
 20 38  1  0  0  0
 20 39  1  0  0  0
 21 22  1  0  0  0
 21 26  1  0  0  0
 22 23  1  0  0  0
 22 40  1  0  0  0
 22 41  1  0  0  0
 23 24  1  0  0  0
 23 42  1  0  0  0
 23 43  1  0  0  0
 24 25  1  0  0  0
 24 27  1  0  0  0
 24 44  1  0  0  0
 25 26  1  0  0  0
 25 45  1  0  0  0
 25 46  1  0  0  0
 26 47  1  0  0  0
 26 48  1  0  0  0
 27 28  1  0  0  0
 27 49  1  0  0  0
 28 29  2  0  0  0
 28 30  1  0  0  0
 30 50  1  0  0  0
 30 51  1  0  0  0
 30 52  1  0  0  0
M  END
> <s_m_entry_id>
6628

> <s_m_entry_name>
dock_pv.58

> <s_m_Source_Path>
/home/csk/Desktop/cluster/DUD-E-result/lkha4

> <s_m_Source_File>
dock_pv.maegz

> <i_m_Source_File_Index>
58

> <chembl_id>
CHEMBL2313569

> <chembl_pref_name>
None

> <i_lp_mmshare_version>
53161

> <i_f3d_flags>
0

> <r_lp_tautomer_probability>
1

> <s_lp_Force_Field>
OPLS_2005

> <r_lp_Energy>
23.220396

> <b_lp_Chiralities_Consistent>
1

> <s_lp_Variant>
CHEMBL4618_lig445-1

> <s_i_glide_gridfile>
glide-grid_3chp

> <i_i_glide_lignum>
521

> <i_i_glide_rotatable_bonds>
6

> <r_i_docking_score>
-10.5340630024596

> <r_i_glide_ligand_efficiency>
-0.351135433415321

> <r_i_glide_ligand_efficiency_sa>
-1.09105943146331

> <r_i_glide_ligand_efficiency_ln>
-2.39345389196822

> <r_i_glide_gscore>
-10.5340630024596

> <r_i_glide_lipo>
-5.51293735131804

> <r_i_glide_hbond>
-0.11874738064914

> <r_i_glide_metal>
0

> <r_i_glide_rewards>
-1.42786151884018

> <r_i_glide_evdw>
-47.9564781188965

> <r_i_glide_ecoul>
-9.56652545928955

> <r_i_glide_erotb>
0.554908110914797

> <r_i_glide_esite>
-0.196622137728822

> <r_i_glide_emodel>
-91.2389915391769

> <r_i_glide_energy>
-57.523003578186

> <r_i_glide_einternal>
5.04857158660889

> <i_i_glide_confnum>
23

> <i_i_glide_posenum>
378

> <r_i_glide_eff_state_penalty>
0

> <s_user_duplicate_titles>
CHEMBL4618_lig445

> <s_m_subgroup_title>
dock_pv

> <s_m_subgroupid>
dock_pv

> <b_m_subgroup_collapsed>
1

$$$$
CHEMBL4618_lig439
                    3D
 Schrodinger Suite 2021-1.
 50 55  0  0  1  0            999 V2000
    8.2398   39.8343   69.4694 C   0  0  0  0  0  0
    7.8803   38.5010   69.2573 C   0  0  0  0  0  0
    8.0480   37.9115   68.0094 C   0  0  0  0  0  0
    8.6101   38.6156   66.9426 C   0  0  0  0  0  0
    7.3477   37.7559   70.2756 O   0  0  0  0  0  0
    8.5210   35.7786   70.8800 N   0  0  0  0  0  0
    8.2199   37.0252   71.0365 C   0  0  0  0  0  0
    8.9719   37.8160   72.3628 S   0  0  0  0  0  0
    9.6834   36.2935   72.8471 C   0  0  0  0  0  0
    9.3201   35.3220   71.8860 C   0  0  0  0  0  0
   10.4854   35.9415   73.9423 C   0  0  0  0  0  0
   10.9165   34.6142   74.0013 C   0  0  0  0  0  0
   10.5210   33.7207   73.0014 C   0  0  0  0  0  0
    9.7345   34.0527   71.9413 N   0  0  0  0  0  0
    9.3063   41.8916   68.2169 C   0  0  0  0  0  0
    8.8117   40.5661   68.4203 C   0  0  0  0  0  0
    9.0239   39.9162   67.1961 C   0  0  0  0  0  0
    9.7210   40.7004   66.3400 O   0  0  0  0  0  0
    9.8977   41.8926   66.9620 C   0  0  0  0  0  0
   10.6704   42.9065   66.1625 C   0  0  0  0  0  0
   12.1321   42.7179   66.1977 N   0  0  1  0  0  0
   12.6164   41.4767   65.5592 C   0  0  0  0  0  0
   13.4846   41.9520   64.3727 C   0  0  2  0  0  0
   14.6857   42.5567   64.9648 N   0  0  0  0  0  0
   14.2842   43.7846   65.6593 C   0  0  0  0  0  0
   12.7728   43.7419   65.3586 C   0  0  1  0  0  0
   15.9278   42.1010   64.7400 C   0  0  0  0  0  0
   16.1210   41.0161   64.1902 O   0  0  0  0  0  0
   17.1234   42.9072   65.2448 C   0  0  0  0  0  0
   12.7635   43.2084   63.9399 C   0  0  0  0  0  0
    8.1210   40.2752   70.4390 H   0  0  0  0  0  0
    7.7571   36.8780   67.9151 H   0  0  0  0  0  0
    8.7956   38.1687   65.9790 H   0  0  0  0  0  0
   10.7631   36.6626   74.6981 H   0  0  0  0  0  0
   11.5350   34.2763   74.8208 H   0  0  0  0  0  0
   10.8378   32.6880   73.0440 H   0  0  0  0  0  0
    9.3043   42.7192   68.9090 H   0  0  0  0  0  0
   10.4359   43.8881   66.5610 H   0  0  0  0  0  0
   10.2950   42.9116   65.1397 H   0  0  0  0  0  0
   11.7963   40.8726   65.1812 H   0  0  0  0  0  0
   13.1738   40.8332   66.2412 H   0  0  0  0  0  0
   13.7023   41.2030   63.6069 H   0  0  0  0  0  0
   14.7578   44.6160   65.1400 H   0  0  0  0  0  0
   14.5163   43.8268   66.7238 H   0  0  0  0  0  0
   12.2881   44.7005   65.4453 H   0  0  0  0  0  0
   16.9462   43.3179   66.2387 H   0  0  0  0  0  0
   18.0208   42.2885   65.2840 H   0  0  0  0  0  0
   17.3210   43.7302   64.5560 H   0  0  0  0  0  0
   13.3211   43.8170   63.2224 H   0  0  0  0  0  0
   11.7685   43.0342   63.5403 H   0  0  0  0  0  0
  1 16  2  0  0  0
  1  2  1  0  0  0
  1 31  1  0  0  0
  2  3  2  0  0  0
  2  5  1  0  0  0
  3  4  1  0  0  0
  3 32  1  0  0  0
  4 17  2  0  0  0
  4 33  1  0  0  0
  5  7  1  0  0  0
  6  7  2  0  0  0
  6 10  1  0  0  0
  7  8  1  0  0  0
  8  9  1  0  0  0
  9 10  1  0  0  0
  9 11  2  0  0  0
 10 14  2  0  0  0
 11 12  1  0  0  0
 11 34  1  0  0  0
 12 13  2  0  0  0
 12 35  1  0  0  0
 13 14  1  0  0  0
 13 36  1  0  0  0
 15 16  1  0  0  0
 15 19  2  0  0  0
 15 37  1  0  0  0
 16 17  1  0  0  0
 17 18  1  0  0  0
 18 19  1  0  0  0
 19 20  1  0  0  0
 20 21  1  0  0  0
 20 38  1  0  0  0
 20 39  1  0  0  0
 21 22  1  0  0  0
 21 26  1  0  0  0
 22 23  1  0  0  0
 22 40  1  0  0  0
 22 41  1  0  0  0
 23 24  1  0  0  0
 23 30  1  0  0  0
 23 42  1  0  0  0
 24 25  1  0  0  0
 24 27  1  0  0  0
 25 26  1  0  0  0
 25 43  1  0  0  0
 25 44  1  0  0  0
 26 30  1  0  0  0
 26 45  1  0  0  0
 27 28  2  0  0  0
 27 29  1  0  0  0
 29 46  1  0  0  0
 29 47  1  0  0  0
 29 48  1  0  0  0
 30 49  1  0  0  0
 30 50  1  0  0  0
M  END
> <s_m_entry_id>
6629

> <s_m_entry_name>
dock_pv.59

> <s_m_Source_Path>
/home/csk/Desktop/cluster/DUD-E-result/lkha4

> <s_m_Source_File>
dock_pv.maegz

> <i_m_Source_File_Index>
59

> <chembl_id>
CHEMBL2313266

> <chembl_pref_name>
None

> <i_lp_mmshare_version>
53161

> <i_f3d_flags>
0

> <r_lp_tautomer_probability>
1

> <s_lp_Force_Field>
OPLS_2005

> <r_lp_Energy>
80.716487

> <b_lp_Chiralities_Consistent>
1

> <s_lp_Variant>
CHEMBL4618_lig439-1

> <s_i_glide_gridfile>
glide-grid_3chp

> <i_i_glide_lignum>
514

> <i_i_glide_rotatable_bonds>
5

> <r_i_docking_score>
-10.487878146184

> <r_i_glide_ligand_efficiency>
-0.349595938206133

> <r_i_glide_ligand_efficiency_sa>
-1.08627586191199

> <r_i_glide_ligand_efficiency_ln>
-2.38296018939808

> <r_i_glide_gscore>
-10.487878146184

> <r_i_glide_lipo>
-5.66106809224416

> <r_i_glide_hbond>
0

> <r_i_glide_metal>
0

> <r_i_glide_rewards>
-1.4368253009993

> <r_i_glide_evdw>
-46.9624214172363

> <r_i_glide_ecoul>
-8.75812244415283

> <r_i_glide_erotb>
0.447782355423934

> <r_i_glide_esite>
-0.17592767087971

> <r_i_glide_emodel>
-83.7571379465029

> <r_i_glide_energy>
-55.7205438613892

> <r_i_glide_einternal>
9.44071197509766

> <i_i_glide_confnum>
1

> <i_i_glide_posenum>
137

> <r_i_glide_eff_state_penalty>
0

> <s_user_duplicate_titles>
CHEMBL4618_lig439

> <s_m_subgroup_title>
dock_pv

> <s_m_subgroupid>
dock_pv

> <b_m_subgroup_collapsed>
1

$$$$
CHEMBL4618_lig464
                    3D
 Schrodinger Suite 2021-1.
 47 51  0  0  1  0            999 V2000
   15.5301   41.4160   64.2208 O   0  0  0  0  0  0
   14.6932   42.1638   65.1036 C   0  0  0  0  0  0
   13.8055   43.3030   64.6013 C   0  0  0  0  0  0
   12.7859   42.9021   65.5763 N   0  0  1  0  0  0
   11.3711   43.1852   65.3210 C   0  0  0  0  0  0
   10.3920   42.4427   66.2354 C   0  0  0  0  0  0
    9.3694   43.1137   66.9005 C   0  0  0  0  0  0
    8.5207   42.5322   67.7908 N   0  0  0  0  0  0
    8.5701   41.1775   67.9190 C   0  0  0  0  0  0
    7.7948   40.4999   68.8844 C   0  0  0  0  0  0
    7.8817   39.1062   69.0040 C   0  0  0  0  0  0
    7.3032   38.4592   70.0600 O   0  0  0  0  0  0
    8.0658   37.6310   70.8395 C   0  0  0  0  0  0
    8.1210   36.2549   70.6223 C   0  0  0  0  0  0
    8.8046   35.4561   71.5400 C   0  0  0  0  0  0
    9.4517   36.0622   72.6152 C   0  0  0  0  0  0
    9.3749   37.4438   72.7375 C   0  0  0  0  0  0
    8.6878   38.2274   71.8789 N   0  0  0  0  0  0
   10.2353   35.3318   73.6160 C   0  0  0  0  0  0
   10.5210   35.6324   74.9321 C   0  0  0  0  0  0
   11.3718   34.6160   75.3504 C   0  0  0  0  0  0
   11.6633   33.7653   74.3971 N   0  0  0  0  0  0
   10.9210   34.1727   73.3723 N   0  0  0  0  0  0
    8.5147   38.3683   68.0121 C   0  0  0  0  0  0
    9.2363   39.0160   67.0294 C   0  0  0  0  0  0
    9.4146   40.4007   67.0907 C   0  0  0  0  0  0
   10.3960   41.0563   66.3400 C   0  0  0  0  0  0
   13.3578   41.5559   65.5193 C   0  0  0  0  0  0
   15.1244   41.4160   63.3368 H   0  0  0  0  0  0
   15.3168   42.4773   65.9400 H   0  0  0  0  0  0
   14.1790   44.3178   64.7400 H   0  0  0  0  0  0
   13.4890   43.1785   63.5620 H   0  0  0  0  0  0
   11.2363   44.2560   65.4638 H   0  0  0  0  0  0
   11.1197   42.9975   64.2797 H   0  0  0  0  0  0
    9.2360   44.1745   66.7400 H   0  0  0  0  0  0
    7.1808   41.0882   69.5400 H   0  0  0  0  0  0
    7.5961   35.8160   69.7896 H   0  0  0  0  0  0
    8.8224   34.3835   71.4143 H   0  0  0  0  0  0
    9.8822   37.9551   73.5400 H   0  0  0  0  0  0
   10.1584   36.4669   75.5158 H   0  0  0  0  0  0
   11.7793   34.5033   76.3400 H   0  0  0  0  0  0
   10.9285   33.6868   72.4885 H   0  0  0  0  0  0
    8.4853   37.2895   68.0233 H   0  0  0  0  0  0
    9.7210   38.4603   66.2473 H   0  0  0  0  0  0
   11.0741   40.4517   65.7613 H   0  0  0  0  0  0
   12.9214   40.9287   64.7398 H   0  0  0  0  0  0
   13.3210   41.0134   66.4638 H   0  0  0  0  0  0
  1  2  1  0  0  0
  1 29  1  0  0  0
  2  3  1  0  0  0
  2 28  1  0  0  0
  2 30  1  0  0  0
  3  4  1  0  0  0
  3 31  1  0  0  0
  3 32  1  0  0  0
  4  5  1  0  0  0
  4 28  1  0  0  0
  5  6  1  0  0  0
  5 33  1  0  0  0
  5 34  1  0  0  0
  6  7  2  0  0  0
  6 27  1  0  0  0
  7  8  1  0  0  0
  7 35  1  0  0  0
  8  9  2  0  0  0
  9 10  1  0  0  0
  9 26  1  0  0  0
 10 11  2  0  0  0
 10 36  1  0  0  0
 11 12  1  0  0  0
 11 24  1  0  0  0
 12 13  1  0  0  0
 13 14  2  0  0  0
 13 18  1  0  0  0
 14 15  1  0  0  0
 14 37  1  0  0  0
 15 16  2  0  0  0
 15 38  1  0  0  0
 16 17  1  0  0  0
 16 19  1  0  0  0
 17 18  2  0  0  0
 17 39  1  0  0  0
 19 20  2  0  0  0
 19 23  1  0  0  0
 20 21  1  0  0  0
 20 40  1  0  0  0
 21 22  2  0  0  0
 21 41  1  0  0  0
 22 23  1  0  0  0
 23 42  1  0  0  0
 24 25  2  0  0  0
 24 43  1  0  0  0
 25 26  1  0  0  0
 25 44  1  0  0  0
 26 27  2  0  0  0
 27 45  1  0  0  0
 28 46  1  0  0  0
 28 47  1  0  0  0
M  END
> <s_m_entry_id>
6630

> <s_m_entry_name>
dock_pv.60

> <s_m_Source_Path>
/home/csk/Desktop/cluster/DUD-E-result/lkha4

> <s_m_Source_File>
dock_pv.maegz

> <i_m_Source_File_Index>
60

> <chembl_id>
CHEMBL3912168

> <chembl_pref_name>
None

> <i_lp_mmshare_version>
53161

> <i_f3d_flags>
0

> <r_lp_tautomer_probability>
0.5

> <s_lp_Force_Field>
OPLS_2005

> <r_lp_Energy>
36.047354

> <b_lp_Chiralities_Consistent>
1

> <s_lp_Variant>
CHEMBL4618_lig464-1

> <s_i_glide_gridfile>
glide-grid_3chp

> <i_i_glide_lignum>
543

> <i_i_glide_rotatable_bonds>
6

> <r_i_docking_score>
-10.4869088722351

> <r_i_glide_ligand_efficiency>
-0.374532459722683

> <r_i_glide_ligand_efficiency_sa>
-1.13730113554013

> <r_i_glide_ligand_efficiency_ln>
-2.42068647673584

> <r_i_glide_gscore>
-10.4869088722351

> <r_i_glide_lipo>
-5.51003377019584

> <r_i_glide_hbond>
-0.132542973136923

> <r_i_glide_metal>
0

> <r_i_glide_rewards>
-1.76312822727273

> <r_i_glide_evdw>
-51.5342826843262

> <r_i_glide_ecoul>
-7.98309421539307

> <r_i_glide_erotb>
0.692974364895615

> <r_i_glide_esite>
0

> <r_i_glide_emodel>
-72.8999450323948

> <r_i_glide_energy>
-59.5173768997192

> <r_i_glide_einternal>
11.1796751022339

> <i_i_glide_confnum>
5

> <i_i_glide_posenum>
37

> <r_i_glide_eff_state_penalty>
0

> <s_user_duplicate_titles>
CHEMBL4618_lig464,CHEMBL4618_lig464

> <s_m_subgroup_title>
dock_pv

> <s_m_subgroupid>
dock_pv

> <b_m_subgroup_collapsed>
1

$$$$
CHEMBL4618_lig174
                    3D
 Schrodinger Suite 2021-1.
 49 50  0  0  1  0            999 V2000
   10.1203   34.0522   72.4770 C   0  0  0  0  0  0
   10.7734   34.3654   73.6656 C   0  0  0  0  0  0
   10.5215   35.5741   74.3098 C   0  0  0  0  0  0
    9.6310   36.4823   73.7440 C   0  0  0  0  0  0
    8.9682   36.1825   72.5519 C   0  0  0  0  0  0
    9.2032   34.9521   71.9399 C   0  0  0  0  0  0
    7.9755   37.1823   71.9577 C   0  0  0  0  0  0
    7.8257   36.9962   70.5379 O   0  0  0  0  0  0
    8.0621   38.0216   69.6384 C   0  0  0  0  0  0
    8.2241   39.3632   69.9824 C   0  0  0  0  0  0
    8.5215   40.3258   69.0328 C   0  0  0  0  0  0
    8.7789   39.9474   67.7133 C   0  0  0  0  0  0
    8.5207   38.6262   67.3340 C   0  0  0  0  0  0
    8.1396   37.6816   68.2908 C   0  0  0  0  0  0
    9.2998   40.8271   66.7401 N   0  0  0  0  0  0
    9.8400   42.0589   66.9044 C   0  0  0  0  0  0
   10.2575   42.8451   65.6364 C   0  0  1  0  0  0
    9.9973   42.6163   67.9851 O   0  0  0  0  0  0
    9.3241   43.9908   65.5400 N   0  0  0  0  0  0
   11.7516   43.3136   65.6699 C   0  0  0  0  0  0
   12.7728   42.2009   65.3302 C   0  0  0  0  0  0
   14.2720   42.5917   65.2998 C   0  0  0  0  0  0
   15.0545   41.6073   64.3944 C   0  0  0  0  0  0
   16.5004   41.5251   64.5971 N   0  0  0  0  0  0
   10.2970   33.1007   71.9966 H   0  0  0  0  0  0
   11.4631   33.6561   74.1007 H   0  0  0  0  0  0
   11.0158   35.8070   75.2421 H   0  0  0  0  0  0
    9.4472   37.4159   74.2445 H   0  0  0  0  0  0
    8.6513   34.6840   71.0541 H   0  0  0  0  0  0
    8.2926   38.1732   72.2695 H   0  0  0  0  0  0
    7.0028   37.0157   72.4213 H   0  0  0  0  0  0
    8.1217   39.7074   70.9929 H   0  0  0  0  0  0
    8.6160   41.3439   69.3716 H   0  0  0  0  0  0
    8.6683   38.3074   66.3122 H   0  0  0  0  0  0
    7.9905   36.6536   67.9989 H   0  0  0  0  0  0
    9.3013   40.4597   65.8018 H   0  0  0  0  0  0
   10.1208   42.2163   64.7599 H   0  0  0  0  0  0
    8.3662   43.7521   65.2845 H   0  0  0  0  0  0
    9.2662   44.4534   66.4442 H   0  0  0  0  0  0
   11.9981   43.7531   66.6376 H   0  0  0  0  0  0
   11.8856   44.1217   64.9493 H   0  0  0  0  0  0
   12.5210   41.8364   64.3404 H   0  0  0  0  0  0
   12.6372   41.3531   66.0040 H   0  0  0  0  0  0
   14.6578   42.6169   66.3180 H   0  0  0  0  0  0
   14.3915   43.6027   64.9051 H   0  0  0  0  0  0
   14.8719   41.8972   63.3621 H   0  0  0  0  0  0
   14.6322   40.6161   64.5090 H   0  0  0  0  0  0
   16.8867   41.8173   63.6957 H   0  0  0  0  0  0
   16.7600   42.3122   65.1796 H   0  0  0  0  0  0
  1  6  1  0  0  0
  1  2  2  0  0  0
  1 25  1  0  0  0
  2  3  1  0  0  0
  2 26  1  0  0  0
  3  4  2  0  0  0
  3 27  1  0  0  0
  4  5  1  0  0  0
  4 28  1  0  0  0
  5  7  1  0  0  0
  5  6  2  0  0  0
  6 29  1  0  0  0
  7  8  1  0  0  0
  7 30  1  0  0  0
  7 31  1  0  0  0
  8  9  1  0  0  0
  9 14  1  0  0  0
  9 10  2  0  0  0
 10 11  1  0  0  0
 10 32  1  0  0  0
 11 12  2  0  0  0
 11 33  1  0  0  0
 12 13  1  0  0  0
 12 15  1  0  0  0
 13 14  2  0  0  0
 13 34  1  0  0  0
 14 35  1  0  0  0
 15 16  1  0  0  0
 15 36  1  0  0  0
 16 17  1  0  0  0
 16 18  2  0  0  0
 17 19  1  0  0  0
 17 20  1  0  0  0
 17 37  1  0  0  0
 19 38  1  0  0  0
 19 39  1  0  0  0
 20 21  1  0  0  0
 20 40  1  0  0  0
 20 41  1  0  0  0
 21 22  1  0  0  0
 21 42  1  0  0  0
 21 43  1  0  0  0
 22 23  1  0  0  0
 22 44  1  0  0  0
 22 45  1  0  0  0
 23 24  1  0  0  0
 23 46  1  0  0  0
 23 47  1  0  0  0
 24 48  1  0  0  0
 24 49  1  0  0  0
M  END
> <s_m_entry_id>
6631

> <s_m_entry_name>
dock_pv.61

> <s_m_Source_Path>
/home/csk/Desktop/cluster/DUD-E-result/lkha4

> <s_m_Source_File>
dock_pv.maegz

> <i_m_Source_File_Index>
61

> <chembl_id>
CHEMBL517049

> <chembl_pref_name>
None

> <i_lp_mmshare_version>
53161

> <i_f3d_flags>
0

> <r_lp_tautomer_probability>
1

> <s_lp_Force_Field>
OPLS_2005

> <r_lp_Energy>
24.120034

> <b_lp_Chiralities_Consistent>
1

> <s_lp_Variant>
CHEMBL4618_lig174-1

> <s_i_glide_gridfile>
glide-grid_3chp

> <i_i_glide_lignum>
200

> <i_i_glide_rotatable_bonds>
10

> <r_i_docking_score>
-10.4790923616783

> <r_i_glide_ligand_efficiency>
-0.436628848403263

> <r_i_glide_ligand_efficiency_sa>
-1.25945553665264

> <r_i_glide_ligand_efficiency_ln>
-2.50812765636522

> <r_i_glide_gscore>
-10.4790923616783

> <r_i_glide_lipo>
-4.91025840115932

> <r_i_glide_hbond>
-0.653917790873214

> <r_i_glide_metal>
0

> <r_i_glide_rewards>
-1.76420636232398

> <r_i_glide_evdw>
-40.8113479614258

> <r_i_glide_ecoul>
-17.904972076416

> <r_i_glide_erotb>
1.57560340221189

> <r_i_glide_esite>
0

> <r_i_glide_emodel>
-92.1308340400082

> <r_i_glide_energy>
-58.7163200378418

> <r_i_glide_einternal>
9.42862892150879

> <i_i_glide_confnum>
5

> <i_i_glide_posenum>
183

> <r_i_glide_eff_state_penalty>
0

> <s_user_duplicate_titles>
CHEMBL4618_lig174

> <s_m_subgroup_title>
dock_pv

> <s_m_subgroupid>
dock_pv

> <b_m_subgroup_collapsed>
1

$$$$
CHEMBL4618_lig158
                    3D
 Schrodinger Suite 2021-1.
 56 57  0  0  1  0            999 V2000
   18.1548   43.8137   66.4792 S   0  0  0  0  0  0
   16.6302   43.7535   65.6190 N   0  0  0  0  0  0
   15.9652   42.6161   65.1167 C   0  0  0  0  0  0
   14.5336   42.9261   64.6347 C   0  0  0  0  0  0
   18.2250   42.6494   67.3631 O   0  0  0  0  0  0
   18.2709   45.1673   67.0316 O   0  0  0  0  0  0
   16.4461   41.4732   65.1024 O   0  0  0  0  0  0
   13.4465   42.9180   65.7358 C   0  0  0  0  0  0
   12.4593   41.8610   65.5400 N   0  0  2  0  0  0
   19.4507   43.6075   65.1405 C   0  0  0  0  0  0
    8.3166   37.4352   71.0786 C   0  0  0  0  0  0
    8.1764   36.6808   72.3974 C   0  0  0  0  0  0
    8.4103   38.9336   68.6943 C   0  0  0  0  0  0
    8.5210   38.8065   71.1128 C   0  0  0  0  0  0
    8.0765   36.8249   69.8469 C   0  0  0  0  0  0
    8.5230   39.5495   69.9401 C   0  0  0  0  0  0
    8.1211   37.5687   68.6640 C   0  0  0  0  0  0
    9.3347   35.8164   72.8737 C   0  0  0  0  0  0
   10.2248   40.9786   66.3419 C   0  0  0  0  0  0
    8.5751   39.6038   67.4922 O   0  0  0  0  0  0
   11.3884   41.9648   66.5377 C   0  0  0  0  0  0
    9.1915   40.9047   67.4749 C   0  0  0  0  0  0
   13.1026   40.5522   65.4675 C   0  0  0  0  0  0
   10.0003   36.1190   74.0657 C   0  0  0  0  0  0
    9.6044   34.6152   72.2182 C   0  0  0  0  0  0
   10.5209   33.7149   72.7508 C   0  0  0  0  0  0
   10.9210   35.2217   74.6014 C   0  0  0  0  0  0
   11.1796   34.0237   73.9402 C   0  0  0  0  0  0
   16.1347   44.6433   65.5893 H   0  0  0  0  0  0
   14.5209   43.9673   64.3405 H   0  0  0  0  0  0
   14.2520   42.4587   63.6890 H   0  0  0  0  0  0
   13.8950   42.8369   66.7289 H   0  0  0  0  0  0
   12.9460   43.8890   65.7530 H   0  0  0  0  0  0
   20.4382   43.6809   65.5912 H   0  0  0  0  0  0
   19.3179   44.3824   64.3862 H   0  0  0  0  0  0
   19.3234   42.6237   64.6928 H   0  0  0  0  0  0
    7.9243   37.3975   73.1751 H   0  0  0  0  0  0
    7.3210   36.0228   72.3410 H   0  0  0  0  0  0
    8.5573   39.3165   72.0592 H   0  0  0  0  0  0
    7.8508   35.7761   69.8016 H   0  0  0  0  0  0
    8.6035   40.6162   70.0192 H   0  0  0  0  0  0
    7.9817   37.0763   67.7157 H   0  0  0  0  0  0
    9.7127   41.4277   65.5207 H   0  0  0  0  0  0
   10.5189   39.9850   66.0147 H   0  0  0  0  0  0
   11.7615   41.8907   67.5399 H   0  0  0  0  0  0
   10.9737   42.9736   66.4763 H   0  0  0  0  0  0
    9.7216   41.1533   68.3838 H   0  0  0  0  0  0
    8.4209   41.6681   67.3556 H   0  0  0  0  0  0
   12.4035   39.7329   65.3334 H   0  0  0  0  0  0
   13.7463   40.4951   64.5914 H   0  0  0  0  0  0
   13.7200   40.3501   66.3397 H   0  0  0  0  0  0
    9.7650   37.0161   74.6143 H   0  0  0  0  0  0
    9.0418   34.3461   71.3366 H   0  0  0  0  0  0
   10.7062   32.7699   72.2607 H   0  0  0  0  0  0
   11.4123   35.4406   75.5391 H   0  0  0  0  0  0
   11.8767   33.3152   74.3653 H   0  0  0  0  0  0
  1  2  1  0  0  0
  1  5  2  0  0  0
  1  6  2  0  0  0
  1 10  1  0  0  0
  2  3  1  0  0  0
  2 29  1  0  0  0
  3  4  1  0  0  0
  3  7  2  0  0  0
  4  8  1  0  0  0
  4 30  1  0  0  0
  4 31  1  0  0  0
  8  9  1  0  0  0
  8 32  1  0  0  0
  8 33  1  0  0  0
  9 21  1  0  0  0
  9 23  1  0  0  0
 10 34  1  0  0  0
 10 35  1  0  0  0
 10 36  1  0  0  0
 11 15  2  0  0  0
 11 12  1  0  0  0
 11 14  1  0  0  0
 12 18  1  0  0  0
 12 37  1  0  0  0
 12 38  1  0  0  0
 13 20  1  0  0  0
 13 16  1  0  0  0
 13 17  2  0  0  0
 14 16  2  0  0  0
 14 39  1  0  0  0
 15 17  1  0  0  0
 15 40  1  0  0  0
 16 41  1  0  0  0
 17 42  1  0  0  0
 18 24  1  0  0  0
 18 25  2  0  0  0
 19 21  1  0  0  0
 19 22  1  0  0  0
 19 43  1  0  0  0
 19 44  1  0  0  0
 20 22  1  0  0  0
 21 45  1  0  0  0
 21 46  1  0  0  0
 22 47  1  0  0  0
 22 48  1  0  0  0
 23 49  1  0  0  0
 23 50  1  0  0  0
 23 51  1  0  0  0
 24 27  2  0  0  0
 24 52  1  0  0  0
 25 26  1  0  0  0
 25 53  1  0  0  0
 26 28  2  0  0  0
 26 54  1  0  0  0
 27 28  1  0  0  0
 27 55  1  0  0  0
 28 56  1  0  0  0
M  END
> <s_m_entry_id>
6632

> <s_m_entry_name>
dock_pv.62

> <s_m_Source_Path>
/home/csk/Desktop/cluster/DUD-E-result/lkha4

> <s_m_Source_File>
dock_pv.maegz

> <i_m_Source_File_Index>
62

> <chembl_id>
CHEMBL119683

> <chembl_pref_name>
None

> <i_lp_mmshare_version>
53161

> <i_f3d_flags>
0

> <r_lp_tautomer_probability>
1

> <s_lp_Force_Field>
OPLS_2005

> <r_lp_Energy>
12.478474

> <b_lp_Chiralities_Consistent>
1

> <s_lp_Variant>
CHEMBL4618_lig158-1

> <s_i_glide_gridfile>
glide-grid_3chp

> <i_i_glide_lignum>
184

> <i_i_glide_rotatable_bonds>
12

> <r_i_docking_score>
-10.4781139478451

> <r_i_glide_ligand_efficiency>
-0.374218355280182

> <r_i_glide_ligand_efficiency_sa>
-1.13634732945507

> <r_i_glide_ligand_efficiency_ln>
-2.41865634995642

> <r_i_glide_gscore>
-10.4781139478451

> <r_i_glide_lipo>
-5.23348392193836

> <r_i_glide_hbond>
-0.32

> <r_i_glide_metal>
0

> <r_i_glide_rewards>
-1.54075416029483

> <r_i_glide_evdw>
-50.8030853271484

> <r_i_glide_ecoul>
-13.1036939620972

> <r_i_glide_erotb>
1.32048237108719

> <r_i_glide_esite>
-0.198649876027098

> <r_i_glide_emodel>
-95.7905113121561

> <r_i_glide_energy>
-63.9067792892456

> <r_i_glide_einternal>
14.3311204910278

> <i_i_glide_confnum>
190

> <i_i_glide_posenum>
307

> <r_i_glide_eff_state_penalty>
0

> <s_user_duplicate_titles>
CHEMBL4618_lig158,192971

> <s_m_subgroup_title>
dock_pv

> <s_m_subgroupid>
dock_pv

> <b_m_subgroup_collapsed>
1

$$$$
CHEMBL4618_lig437
                    3D
 Schrodinger Suite 2021-1.
 50 55  0  0  1  0            999 V2000
    8.2592   39.8786   69.3943 C   0  0  0  0  0  0
    7.9149   38.5348   69.2086 C   0  0  0  0  0  0
    8.1219   37.9261   67.9832 C   0  0  0  0  0  0
    8.7121   38.6162   66.9235 C   0  0  0  0  0  0
    7.3508   37.7860   70.2091 O   0  0  0  0  0  0
    8.5212   35.8160   70.8950 N   0  0  0  0  0  0
    8.1984   37.0691   71.0096 C   0  0  0  0  0  0
    8.8795   37.9121   72.3398 S   0  0  0  0  0  0
    9.6064   36.4324   72.8750 C   0  0  0  0  0  0
    9.3019   35.4154   71.9405 C   0  0  0  0  0  0
   10.3287   36.2831   73.9871 N   0  0  0  0  0  0
   10.8057   35.0303   74.1992 C   0  0  0  0  0  0
   10.5895   33.9572   73.3364 C   0  0  0  0  0  0
    9.8175   34.1345   72.1860 C   0  0  0  0  0  0
    9.3187   41.9361   68.1018 C   0  0  0  0  0  0
    8.8560   40.6004   68.3527 C   0  0  0  0  0  0
    9.1224   39.9129   67.1733 C   0  0  0  0  0  0
    9.8690   40.6554   66.3398 O   0  0  0  0  0  0
    9.9888   41.8856   66.8814 C   0  0  0  0  0  0
   10.7110   42.8726   65.9896 C   0  0  0  0  0  0
   12.0274   42.3808   65.5408 N   0  0  2  0  0  0
   13.0925   42.7061   66.5038 C   0  0  0  0  0  0
   14.1141   43.5222   65.6875 C   0  0  1  0  0  0
   14.7373   42.5869   64.7399 N   0  0  0  0  0  0
   13.7214   42.2144   63.7469 C   0  0  0  0  0  0
   12.5156   43.0063   64.2977 C   0  0  2  0  0  0
   16.0304   42.2161   64.7304 C   0  0  0  0  0  0
   16.7901   42.3779   65.6837 O   0  0  0  0  0  0
   16.5767   41.5655   63.4706 C   0  0  0  0  0  0
   13.2065   44.2669   64.7193 C   0  0  0  0  0  0
    8.1216   40.3342   70.3399 H   0  0  0  0  0  0
    7.8397   36.8902   67.9399 H   0  0  0  0  0  0
    8.9206   38.2084   65.9554 H   0  0  0  0  0  0
   11.3741   34.8883   75.1073 H   0  0  0  0  0  0
   11.0099   32.9972   73.5748 H   0  0  0  0  0  0
    9.6004   33.3005   71.5398 H   0  0  0  0  0  0
    9.2356   42.8037   68.7374 H   0  0  0  0  0  0
   10.8072   43.8170   66.5047 H   0  0  0  0  0  0
   10.0781   43.0609   65.1240 H   0  0  0  0  0  0
   13.5306   41.8191   66.9542 H   0  0  0  0  0  0
   12.7218   43.3240   67.3234 H   0  0  0  0  0  0
   14.8292   44.1026   66.2717 H   0  0  0  0  0  0
   13.5463   41.1426   63.6543 H   0  0  0  0  0  0
   14.0372   42.6184   62.7825 H   0  0  0  0  0  0
   11.7428   43.1634   63.5468 H   0  0  0  0  0  0
   16.0641   40.6550   63.1716 H   0  0  0  0  0  0
   16.4356   42.2830   62.6657 H   0  0  0  0  0  0
   17.6515   41.4149   63.5398 H   0  0  0  0  0  0
   12.4975   44.9638   65.1399 H   0  0  0  0  0  0
   13.7210   44.7840   63.9109 H   0  0  0  0  0  0
  1 16  2  0  0  0
  1  2  1  0  0  0
  1 31  1  0  0  0
  2  3  2  0  0  0
  2  5  1  0  0  0
  3  4  1  0  0  0
  3 32  1  0  0  0
  4 17  2  0  0  0
  4 33  1  0  0  0
  5  7  1  0  0  0
  6  7  2  0  0  0
  6 10  1  0  0  0
  7  8  1  0  0  0
  8  9  1  0  0  0
  9 10  1  0  0  0
  9 11  2  0  0  0
 10 14  2  0  0  0
 11 12  1  0  0  0
 12 13  2  0  0  0
 12 34  1  0  0  0
 13 14  1  0  0  0
 13 35  1  0  0  0
 14 36  1  0  0  0
 15 16  1  0  0  0
 15 19  2  0  0  0
 15 37  1  0  0  0
 16 17  1  0  0  0
 17 18  1  0  0  0
 18 19  1  0  0  0
 19 20  1  0  0  0
 20 21  1  0  0  0
 20 38  1  0  0  0
 20 39  1  0  0  0
 21 22  1  0  0  0
 21 26  1  0  0  0
 22 23  1  0  0  0
 22 40  1  0  0  0
 22 41  1  0  0  0
 23 24  1  0  0  0
 23 30  1  0  0  0
 23 42  1  0  0  0
 24 25  1  0  0  0
 24 27  1  0  0  0
 25 26  1  0  0  0
 25 43  1  0  0  0
 25 44  1  0  0  0
 26 30  1  0  0  0
 26 45  1  0  0  0
 27 28  2  0  0  0
 27 29  1  0  0  0
 29 46  1  0  0  0
 29 47  1  0  0  0
 29 48  1  0  0  0
 30 49  1  0  0  0
 30 50  1  0  0  0
M  END
> <s_m_entry_id>
6633

> <s_m_entry_name>
dock_pv.63

> <s_m_Source_Path>
/home/csk/Desktop/cluster/DUD-E-result/lkha4

> <s_m_Source_File>
dock_pv.maegz

> <i_m_Source_File_Index>
63

> <chembl_id>
CHEMBL2313268

> <chembl_pref_name>
None

> <i_lp_mmshare_version>
53161

> <i_f3d_flags>
0

> <r_lp_tautomer_probability>
1

> <s_lp_Force_Field>
OPLS_2005

> <r_lp_Energy>
84.151521

> <b_lp_Chiralities_Consistent>
1

> <s_lp_Variant>
CHEMBL4618_lig437-2

> <s_i_glide_gridfile>
glide-grid_3chp

> <i_i_glide_lignum>
511

> <i_i_glide_rotatable_bonds>
5

> <r_i_docking_score>
-10.4695929208076

> <r_i_glide_ligand_efficiency>
-0.348986430693586

> <r_i_glide_ligand_efficiency_sa>
-1.08438198035853

> <r_i_glide_ligand_efficiency_ln>
-2.37880558695908

> <r_i_glide_gscore>
-10.4695929208076

> <r_i_glide_lipo>
-5.74100344483486

> <r_i_glide_hbond>
-0.32

> <r_i_glide_metal>
0

> <r_i_glide_rewards>
-1.41462700957096

> <r_i_glide_evdw>
-48.1713409423828

> <r_i_glide_ecoul>
-5.64421367645264

> <r_i_glide_erotb>
0.447782355423934

> <r_i_glide_esite>
-0.186545723238672

> <r_i_glide_emodel>
-70.0851571888608

> <r_i_glide_energy>
-53.8155546188354

> <r_i_glide_einternal>
11.7813262939453

> <i_i_glide_confnum>
4

> <i_i_glide_posenum>
87

> <r_i_glide_eff_state_penalty>
0

> <s_user_duplicate_titles>
CHEMBL4618_lig437

> <s_m_subgroup_title>
dock_pv

> <s_m_subgroupid>
dock_pv

> <b_m_subgroup_collapsed>
1

$$$$
CHEMBL4618_lig263
                    3D
 Schrodinger Suite 2021-1.
 56 59  0  0  1  0            999 V2000
   10.4182   35.7556   73.7642 C   0  0  0  0  0  0
    9.9999   34.6160   73.0858 C   0  0  0  0  0  0
    9.2078   34.7100   71.9400 C   0  0  0  0  0  0
   10.1210   37.0295   73.2825 C   0  0  0  0  0  0
    9.3664   37.1361   72.1049 C   0  0  0  0  0  0
    8.8693   35.9806   71.4545 C   0  0  0  0  0  0
    8.1210   36.2160   70.3428 N   0  0  0  0  0  0
    8.1083   37.4768   70.0353 C   0  0  0  0  0  0
    8.9210   38.5471   71.1526 S   0  0  0  0  0  0
    7.5184   37.9755   68.8990 O   0  0  0  0  0  0
    7.9860   39.1412   68.3401 C   0  0  0  0  0  0
    7.5434   40.4007   68.7478 C   0  0  0  0  0  0
    8.0149   41.5586   68.1353 C   0  0  0  0  0  0
    8.9573   41.4558   67.1138 C   0  0  0  0  0  0
    9.4240   40.1901   66.7400 C   0  0  0  0  0  0
    8.9210   39.0406   67.3256 C   0  0  0  0  0  0
    9.4283   42.7186   66.3803 C   0  0  0  0  0  0
   10.7842   42.6028   65.8272 N   0  0  1  0  0  0
   11.1462   43.6979   64.9297 C   0  0  0  0  0  0
   12.5514   43.5180   64.3011 C   0  0  0  0  0  0
   13.6360   43.2448   65.3521 C   0  0  0  0  0  0
   13.1534   42.1968   66.3546 C   0  0  0  0  0  0
   11.7586   42.4866   66.9054 C   0  0  0  0  0  0
   14.9834   43.0160   64.8336 N   0  0  0  0  0  0
   16.1138   43.2052   65.5400 C   0  0  0  0  0  0
   16.1210   43.5328   66.7274 O   0  0  0  0  0  0
   17.4300   43.0842   64.7685 C   0  0  0  0  0  0
   18.4722   42.5878   65.6133 O   0  0  0  0  0  0
   19.4385   43.3886   66.1193 C   0  0  0  0  0  0
   19.4985   44.6160   66.0341 O   0  0  0  0  0  0
   20.4982   42.5942   66.8675 C   0  0  0  0  0  0
   11.0038   35.6468   74.6662 H   0  0  0  0  0  0
   10.2617   33.6419   73.4758 H   0  0  0  0  0  0
    8.8521   33.8193   71.4449 H   0  0  0  0  0  0
   10.5002   37.9030   73.7917 H   0  0  0  0  0  0
    6.8219   40.4726   69.5400 H   0  0  0  0  0  0
    7.6318   42.5224   68.4429 H   0  0  0  0  0  0
   10.1515   40.0851   65.9478 H   0  0  0  0  0  0
    9.2667   38.0713   67.0018 H   0  0  0  0  0  0
    9.3649   43.5797   67.0478 H   0  0  0  0  0  0
    8.7248   42.9027   65.5688 H   0  0  0  0  0  0
   11.0962   44.6160   65.5005 H   0  0  0  0  0  0
   10.4035   43.7768   64.1405 H   0  0  0  0  0  0
   12.8077   44.4143   63.7348 H   0  0  0  0  0  0
   12.5210   42.7035   63.5787 H   0  0  0  0  0  0
   13.6803   44.1721   65.9318 H   0  0  0  0  0  0
   13.1834   41.1872   65.9411 H   0  0  0  0  0  0
   13.8164   42.2161   67.2012 H   0  0  0  0  0  0
   11.7444   43.3752   67.5398 H   0  0  0  0  0  0
   11.4742   41.6503   67.5400 H   0  0  0  0  0  0
   15.0532   42.8152   63.8441 H   0  0  0  0  0  0
   17.6463   44.0643   64.3400 H   0  0  0  0  0  0
   17.3193   42.3866   63.9400 H   0  0  0  0  0  0
   20.0650   42.1245   67.7499 H   0  0  0  0  0  0
   21.3129   43.2454   67.1821 H   0  0  0  0  0  0
   20.9094   41.8167   66.2227 H   0  0  0  0  0  0
  1  4  1  0  0  0
  1  2  2  0  0  0
  1 32  1  0  0  0
  2  3  1  0  0  0
  2 33  1  0  0  0
  3  6  2  0  0  0
  3 34  1  0  0  0
  4  5  2  0  0  0
  4 35  1  0  0  0
  5  9  1  0  0  0
  5  6  1  0  0  0
  6  7  1  0  0  0
  7  8  2  0  0  0
  8  9  1  0  0  0
  8 10  1  0  0  0
 10 11  1  0  0  0
 11 16  1  0  0  0
 11 12  2  0  0  0
 12 13  1  0  0  0
 12 36  1  0  0  0
 13 14  2  0  0  0
 13 37  1  0  0  0
 14 15  1  0  0  0
 14 17  1  0  0  0
 15 16  2  0  0  0
 15 38  1  0  0  0
 16 39  1  0  0  0
 17 18  1  0  0  0
 17 40  1  0  0  0
 17 41  1  0  0  0
 18 19  1  0  0  0
 18 23  1  0  0  0
 19 20  1  0  0  0
 19 42  1  0  0  0
 19 43  1  0  0  0
 20 21  1  0  0  0
 20 44  1  0  0  0
 20 45  1  0  0  0
 21 22  1  0  0  0
 21 24  1  0  0  0
 21 46  1  0  0  0
 22 23  1  0  0  0
 22 47  1  0  0  0
 22 48  1  0  0  0
 23 49  1  0  0  0
 23 50  1  0  0  0
 24 25  1  0  0  0
 24 51  1  0  0  0
 25 26  2  0  0  0
 25 27  1  0  0  0
 27 28  1  0  0  0
 27 52  1  0  0  0
 27 53  1  0  0  0
 28 29  1  0  0  0
 29 30  2  0  0  0
 29 31  1  0  0  0
 31 54  1  0  0  0
 31 55  1  0  0  0
 31 56  1  0  0  0
M  END
> <s_m_entry_id>
6635

> <s_m_entry_name>
dock_pv.65

> <s_m_Source_Path>
/home/csk/Desktop/cluster/DUD-E-result/lkha4

> <s_m_Source_File>
dock_pv.maegz

> <i_m_Source_File_Index>
65

> <chembl_id>
CHEMBL479382

> <chembl_pref_name>
None

> <i_lp_mmshare_version>
53161

> <i_f3d_flags>
0

> <r_lp_tautomer_probability>
1

> <s_lp_Force_Field>
OPLS_2005

> <r_lp_Energy>
23.114409

> <b_lp_Chiralities_Consistent>
1

> <s_lp_Variant>
CHEMBL4618_lig263-1

> <s_i_glide_gridfile>
glide-grid_3chp

> <i_i_glide_lignum>
301

> <i_i_glide_rotatable_bonds>
9

> <r_i_docking_score>
-10.4615650831012

> <r_i_glide_ligand_efficiency>
-0.337469841390362

> <r_i_glide_ligand_efficiency_sa>
-1.06012122929579

> <r_i_glide_ligand_efficiency_ln>
-2.3594035347055

> <r_i_glide_gscore>
-10.4615650831012

> <r_i_glide_lipo>
-5.92198592609662

> <r_i_glide_hbond>
-0.0538263885075824

> <r_i_glide_metal>
0

> <r_i_glide_rewards>
-1.31143301801675

> <r_i_glide_evdw>
-55.1414794921875

> <r_i_glide_ecoul>
-6.7960991859436

> <r_i_glide_erotb>
0.826523104491981

> <r_i_glide_esite>
-0.22435400247134

> <r_i_glide_emodel>
-106.137993188068

> <r_i_glide_energy>
-61.9375786781311

> <r_i_glide_einternal>
6.12516021728516

> <i_i_glide_confnum>
18

> <i_i_glide_posenum>
328

> <r_i_glide_eff_state_penalty>
0

> <s_user_duplicate_titles>
CHEMBL4618_lig263,467056

> <s_m_subgroup_title>
dock_pv

> <s_m_subgroupid>
dock_pv

> <b_m_subgroup_collapsed>
1

$$$$
CHEMBL4618_lig210
                    3D
 Schrodinger Suite 2021-1.
 49 51  0  0  1  0            999 V2000
    8.0420   39.6768   68.6777 C   0  0  0  0  0  0
    7.8454   41.0509   68.8261 C   0  0  0  0  0  0
    8.5922   41.9558   68.0760 C   0  0  0  0  0  0
    9.5393   41.4853   67.1652 C   0  0  0  0  0  0
    9.6631   40.1046   66.9538 C   0  0  0  0  0  0
    8.9210   39.2058   67.7098 C   0  0  0  0  0  0
   10.3217   42.4436   66.4941 N   0  0  0  0  0  0
   11.5401   42.2605   65.9400 C   0  0  0  0  0  0
   12.1580   41.1980   65.9634 O   0  0  0  0  0  0
   12.1451   43.4779   65.2273 C   0  0  0  0  0  0
   13.4903   43.2567   64.4798 C   0  0  0  0  0  0
   14.6936   42.8014   65.3593 C   0  0  1  0  0  0
   15.9067   42.2160   64.6061 C   0  0  0  0  0  0
   15.1883   43.8160   66.3036 N   0  0  0  0  0  0
   16.0369   42.6160   63.3251 O   0  0  0  0  0  0
   16.6652   41.4160   65.1400 O   0  0  0  0  0  0
    7.3210   38.7867   69.4350 O   0  0  0  0  0  0
    7.9789   38.0077   70.3572 C   0  0  0  0  0  0
    8.6880   38.5854   71.4065 C   0  0  0  0  0  0
    9.3362   37.7791   72.3400 C   0  0  0  0  0  0
    9.2630   36.3910   72.2460 C   0  0  0  0  0  0
    8.5210   35.8160   71.2158 C   0  0  0  0  0  0
    7.8888   36.6218   70.2724 C   0  0  0  0  0  0
    9.9786   35.5826   73.1569 N   0  0  0  0  0  0
   10.5210   34.3402   72.9023 C   0  0  0  0  0  0
   11.2581   33.9173   73.9957 C   0  0  0  0  0  0
   11.1241   34.8917   74.9809 C   0  0  0  0  0  0
   10.3338   35.8987   74.4532 C   0  0  0  0  0  0
    7.1269   41.4215   69.5399 H   0  0  0  0  0  0
    8.4429   43.0160   68.2283 H   0  0  0  0  0  0
   10.3350   39.7005   66.2129 H   0  0  0  0  0  0
    9.0429   38.1436   67.5564 H   0  0  0  0  0  0
    9.9576   43.3844   66.5107 H   0  0  0  0  0  0
   12.2495   44.2907   65.9400 H   0  0  0  0  0  0
   11.4077   43.8160   64.4995 H   0  0  0  0  0  0
   13.7273   44.1942   63.9770 H   0  0  0  0  0  0
   13.3210   42.5406   63.6717 H   0  0  0  0  0  0
   14.3592   41.9486   65.9400 H   0  0  0  0  0  0
   14.4570   44.0787   66.9517 H   0  0  0  0  0  0
   15.9506   43.4641   66.8653 H   0  0  0  0  0  0
   15.6882   43.5104   63.1675 H   0  0  0  0  0  0
    8.7234   39.6601   71.4900 H   0  0  0  0  0  0
    9.9078   38.2160   73.1400 H   0  0  0  0  0  0
    8.4379   34.7424   71.1400 H   0  0  0  0  0  0
    7.3210   36.1676   69.4800 H   0  0  0  0  0  0
   10.3827   33.8722   71.9400 H   0  0  0  0  0  0
   11.8192   32.9993   74.0823 H   0  0  0  0  0  0
   11.5600   34.8616   75.9687 H   0  0  0  0  0  0
   10.0044   36.8267   74.8975 H   0  0  0  0  0  0
  1 17  1  0  0  0
  1  6  1  0  0  0
  1  2  2  0  0  0
  2  3  1  0  0  0
  2 29  1  0  0  0
  3  4  2  0  0  0
  3 30  1  0  0  0
  4  7  1  0  0  0
  4  5  1  0  0  0
  5  6  2  0  0  0
  5 31  1  0  0  0
  6 32  1  0  0  0
  7  8  1  0  0  0
  7 33  1  0  0  0
  8  9  2  0  0  0
  8 10  1  0  0  0
 10 11  1  0  0  0
 10 34  1  0  0  0
 10 35  1  0  0  0
 11 12  1  0  0  0
 11 36  1  0  0  0
 11 37  1  0  0  0
 12 14  1  0  0  0
 12 13  1  0  0  0
 12 38  1  0  0  0
 13 15  1  0  0  0
 13 16  2  0  0  0
 14 39  1  0  0  0
 14 40  1  0  0  0
 15 41  1  0  0  0
 17 18  1  0  0  0
 18 19  2  0  0  0
 18 23  1  0  0  0
 19 20  1  0  0  0
 19 42  1  0  0  0
 20 21  2  0  0  0
 20 43  1  0  0  0
 21 22  1  0  0  0
 21 24  1  0  0  0
 22 23  2  0  0  0
 22 44  1  0  0  0
 23 45  1  0  0  0
 24 25  1  0  0  0
 24 28  1  0  0  0
 25 26  2  0  0  0
 25 46  1  0  0  0
 26 27  1  0  0  0
 26 47  1  0  0  0
 27 28  2  0  0  0
 27 48  1  0  0  0
 28 49  1  0  0  0
M  END
> <s_m_entry_id>
6636

> <s_m_entry_name>
dock_pv.66

> <s_m_Source_Path>
/home/csk/Desktop/cluster/DUD-E-result/lkha4

> <s_m_Source_File>
dock_pv.maegz

> <i_m_Source_File_Index>
66

> <chembl_id>
CHEMBL476895

> <chembl_pref_name>
None

> <i_lp_mmshare_version>
53161

> <i_f3d_flags>
0

> <r_lp_tautomer_probability>
1

> <s_lp_Force_Field>
OPLS_2005

> <r_lp_Energy>
20.525068

> <b_lp_Chiralities_Consistent>
1

> <s_lp_Variant>
CHEMBL4618_lig210-1

> <s_i_glide_gridfile>
glide-grid_3chp

> <i_i_glide_lignum>
238

> <i_i_glide_rotatable_bonds>
10

> <r_i_docking_score>
-10.4541794586214

> <r_i_glide_ligand_efficiency>
-0.373363552093623

> <r_i_glide_ligand_efficiency_sa>
-1.13375164352852

> <r_i_glide_ligand_efficiency_ln>
-2.41313156709646

> <r_i_glide_gscore>
-10.4541794586214

> <r_i_glide_lipo>
-5.34796888975285

> <r_i_glide_hbond>
-0.304173536475778

> <r_i_glide_metal>
0

> <r_i_glide_rewards>
-0.812803724707733

> <r_i_glide_evdw>
-53.6399688720703

> <r_i_glide_ecoul>
-16.1299419403076

> <r_i_glide_erotb>
1.21225642696457

> <r_i_glide_esite>
-0.1

> <r_i_glide_emodel>
-111.752347025879

> <r_i_glide_energy>
-69.7699108123779

> <r_i_glide_einternal>
8.9223165512085

> <i_i_glide_confnum>
31

> <i_i_glide_posenum>
353

> <r_i_glide_eff_state_penalty>
0

> <s_user_duplicate_titles>
CHEMBL4618_lig210,507023

> <s_m_subgroup_title>
dock_pv

> <s_m_subgroupid>
dock_pv

> <b_m_subgroup_collapsed>
1

$$$$
CHEMBL4618_lig400
                    3D
 Schrodinger Suite 2021-1.
 50 54  0  0  1  0            999 V2000
   12.8083   43.7162   66.1171 C   0  0  0  0  0  0
   11.9018   42.5664   66.1868 N   0  0  2  0  0  0
   12.4948   41.7266   65.1487 C   0  0  1  0  0  0
   13.7214   43.4781   64.8906 C   0  0  2  0  0  0
   12.8342   42.6548   63.9808 C   0  0  0  0  0  0
   13.8605   41.2162   65.5367 C   0  0  0  0  0  0
   14.6671   42.4355   65.3102 N   0  0  0  0  0  0
   10.3773   35.7669   73.7674 C   0  0  0  0  0  0
   10.1206   37.0516   73.2904 C   0  0  0  0  0  0
    9.1204   34.7675   71.9400 N   0  0  0  0  0  0
    9.8963   34.6717   73.0537 C   0  0  0  0  0  0
    8.8559   35.9989   71.4917 C   0  0  0  0  0  0
    9.3639   37.1656   72.1146 C   0  0  0  0  0  0
    8.9210   38.5599   71.1400 S   0  0  0  0  0  0
    8.1170   37.4688   70.0236 C   0  0  0  0  0  0
    8.1211   36.2160   70.3645 N   0  0  0  0  0  0
    7.5592   37.9346   68.8516 O   0  0  0  0  0  0
    7.9671   39.1437   68.3415 C   0  0  0  0  0  0
    8.9457   39.1541   67.3638 C   0  0  0  0  0  0
    9.4897   40.3611   66.9430 C   0  0  0  0  0  0
    9.0117   41.5759   67.4510 C   0  0  0  0  0  0
    7.9692   41.5628   68.3746 C   0  0  0  0  0  0
    7.4542   40.3495   68.8108 C   0  0  0  0  0  0
    9.5661   42.9326   67.0208 C   0  0  0  0  0  0
   10.5170   42.9300   65.8151 C   0  0  0  0  0  0
   16.0104   42.4522   65.1400 C   0  0  0  0  0  0
   16.7792   43.7678   65.1399 C   0  0  0  0  0  0
   16.6707   41.4159   65.1395 O   0  0  0  0  0  0
   13.3799   43.8160   67.0402 H   0  0  0  0  0  0
   12.2337   44.6160   65.9634 H   0  0  0  0  0  0
   11.8889   40.8347   65.0684 H   0  0  0  0  0  0
   14.1564   44.3771   64.4615 H   0  0  0  0  0  0
   13.3619   42.1811   63.1476 H   0  0  0  0  0  0
   11.9914   43.2180   63.5816 H   0  0  0  0  0  0
   14.1703   40.4598   64.8204 H   0  0  0  0  0  0
   13.7210   40.8091   66.5382 H   0  0  0  0  0  0
   10.9630   35.6214   74.6632 H   0  0  0  0  0  0
   10.5204   37.9173   73.7952 H   0  0  0  0  0  0
   10.1082   33.6689   73.3967 H   0  0  0  0  0  0
    9.3207   38.2191   66.9764 H   0  0  0  0  0  0
   10.2824   40.3212   66.2209 H   0  0  0  0  0  0
    7.5610   42.4870   68.7619 H   0  0  0  0  0  0
    6.6677   40.3331   69.5396 H   0  0  0  0  0  0
   10.0412   43.4153   67.8745 H   0  0  0  0  0  0
    8.7048   43.5490   66.7558 H   0  0  0  0  0  0
   10.4607   43.8944   65.3088 H   0  0  0  0  0  0
   10.1104   42.2323   65.0833 H   0  0  0  0  0  0
   17.3209   43.8958   64.2034 H   0  0  0  0  0  0
   16.1330   44.6179   65.3264 H   0  0  0  0  0  0
   17.5230   43.7483   65.9357 H   0  0  0  0  0  0
  1  2  1  0  0  0
  1  4  1  0  0  0
  1 29  1  0  0  0
  1 30  1  0  0  0
  2  3  1  0  0  0
  2 25  1  0  0  0
  3  5  1  0  0  0
  3  6  1  0  0  0
  3 31  1  0  0  0
  4  5  1  0  0  0
  4  7  1  0  0  0
  4 32  1  0  0  0
  5 33  1  0  0  0
  5 34  1  0  0  0
  6  7  1  0  0  0
  6 35  1  0  0  0
  6 36  1  0  0  0
  7 26  1  0  0  0
  8  9  2  0  0  0
  8 11  1  0  0  0
  8 37  1  0  0  0
  9 13  1  0  0  0
  9 38  1  0  0  0
 10 12  1  0  0  0
 10 11  2  0  0  0
 11 39  1  0  0  0
 12 13  2  0  0  0
 12 16  1  0  0  0
 13 14  1  0  0  0
 14 15  1  0  0  0
 15 16  2  0  0  0
 15 17  1  0  0  0
 17 18  1  0  0  0
 18 19  2  0  0  0
 18 23  1  0  0  0
 19 20  1  0  0  0
 19 40  1  0  0  0
 20 21  2  0  0  0
 20 41  1  0  0  0
 21 22  1  0  0  0
 21 24  1  0  0  0
 22 23  2  0  0  0
 22 42  1  0  0  0
 23 43  1  0  0  0
 24 25  1  0  0  0
 24 44  1  0  0  0
 24 45  1  0  0  0
 25 46  1  0  0  0
 25 47  1  0  0  0
 26 27  1  0  0  0
 26 28  2  0  0  0
 27 48  1  0  0  0
 27 49  1  0  0  0
 27 50  1  0  0  0
M  END
> <s_m_entry_id>
6637

> <s_m_entry_name>
dock_pv.67

> <s_m_Source_Path>
/home/csk/Desktop/cluster/DUD-E-result/lkha4

> <s_m_Source_File>
dock_pv.maegz

> <i_m_Source_File_Index>
67

> <chembl_id>
CHEMBL2207746

> <chembl_pref_name>
None

> <i_lp_mmshare_version>
53161

> <i_f3d_flags>
0

> <r_lp_tautomer_probability>
1

> <s_lp_Force_Field>
OPLS_2005

> <r_lp_Energy>
81.852161

> <b_lp_Chiralities_Consistent>
1

> <s_lp_Variant>
CHEMBL4618_lig400-1

> <s_i_glide_gridfile>
glide-grid_3chp

> <i_i_glide_lignum>
464

> <i_i_glide_rotatable_bonds>
6

> <r_i_docking_score>
-10.4307152446656

> <r_i_glide_ligand_efficiency>
-0.372525544452344

> <r_i_glide_ligand_efficiency_sa>
-1.13120695876949

> <r_i_glide_ligand_efficiency_ln>
-2.4077153375762

> <r_i_glide_gscore>
-10.4307152446656

> <r_i_glide_lipo>
-5.11102465731018

> <r_i_glide_hbond>
-0.32

> <r_i_glide_metal>
0

> <r_i_glide_rewards>
-1.55275791743681

> <r_i_glide_evdw>
-42.1998634338379

> <r_i_glide_ecoul>
-11.9749116897583

> <r_i_glide_erotb>
0.627972516553388

> <r_i_glide_esite>
-0.168675261316386

> <r_i_glide_emodel>
-76.9404828643887

> <r_i_glide_energy>
-54.1747751235962

> <r_i_glide_einternal>
16.44700050354

> <i_i_glide_confnum>
24

> <i_i_glide_posenum>
191

> <r_i_glide_eff_state_penalty>
0

> <s_user_duplicate_titles>
CHEMBL4618_lig400

> <s_m_subgroup_title>
dock_pv

> <s_m_subgroupid>
dock_pv

> <b_m_subgroup_collapsed>
1

$$$$
CHEMBL4618_lig146
                    3D
 Schrodinger Suite 2021-1.
 46 47  0  0  1  0            999 V2000
   15.6423   41.8976   64.4624 C   0  0  0  0  0  0
   14.2075   42.3298   64.1493 C   0  0  0  0  0  0
   16.2555   42.2100   65.4809 O   0  0  0  0  0  0
    8.0612   38.0611   69.6039 C   0  0  0  0  0  0
    7.6271   37.0145   70.6301 C   0  0  0  0  0  0
    8.7331   40.0341   67.7137 C   0  0  0  0  0  0
   16.1210   41.0160   63.5399 O   0  0  0  0  0  0
   12.2356   43.5851   65.0018 N   0  0  2  0  0  0
    8.1734   37.7350   68.2537 C   0  0  0  0  0  0
    8.2344   39.3849   69.9853 C   0  0  0  0  0  0
    8.5210   40.3693   69.0560 C   0  0  0  0  0  0
    8.5283   38.7101   67.3178 C   0  0  0  0  0  0
    8.6541   36.5484   71.6691 C   0  0  0  0  0  0
   10.0940   43.0686   66.0599 C   0  0  0  0  0  0
    9.1475   40.9438   66.7566 O   0  0  0  0  0  0
   13.6886   43.4744   65.0484 C   0  0  0  0  0  0
   11.5657   42.6509   65.9001 C   0  0  0  0  0  0
    9.3591   42.3004   67.1559 C   0  0  0  0  0  0
    8.9732   35.1931   71.7852 C   0  0  0  0  0  0
    9.2244   37.4495   72.5685 C   0  0  0  0  0  0
    9.8780   34.7488   72.7447 C   0  0  0  0  0  0
   10.1214   37.0118   73.5394 C   0  0  0  0  0  0
   10.4381   35.6598   73.6320 C   0  0  0  0  0  0
   14.1304   42.6248   63.1029 H   0  0  0  0  0  0
   13.5923   41.4393   64.2776 H   0  0  0  0  0  0
    6.7660   37.4166   71.1665 H   0  0  0  0  0  0
    7.2610   36.1452   70.0839 H   0  0  0  0  0  0
   15.6057   41.0157   62.6976 H   0  0  0  0  0  0
   11.9403   43.4045   64.0550 H   0  0  0  0  0  0
    8.0224   36.7144   67.9400 H   0  0  0  0  0  0
    8.1213   39.6673   71.0159 H   0  0  0  0  0  0
    8.6105   41.3808   69.4182 H   0  0  0  0  0  0
    8.6674   38.4347   66.2830 H   0  0  0  0  0  0
   10.0367   44.1304   66.2988 H   0  0  0  0  0  0
    9.5409   42.9423   65.1393 H   0  0  0  0  0  0
   14.0064   43.3530   66.0865 H   0  0  0  0  0  0
   14.1225   44.4180   64.7199 H   0  0  0  0  0  0
   11.6394   41.6236   65.5409 H   0  0  0  0  0  0
   12.0433   42.6793   66.8823 H   0  0  0  0  0  0
    9.9552   42.3750   68.0672 H   0  0  0  0  0  0
    8.3947   42.7716   67.3523 H   0  0  0  0  0  0
    8.5212   34.4617   71.1398 H   0  0  0  0  0  0
    8.9593   38.4928   72.5435 H   0  0  0  0  0  0
   10.1206   33.6993   72.8211 H   0  0  0  0  0  0
   10.5628   37.7131   74.2286 H   0  0  0  0  0  0
   11.1232   35.3163   74.3937 H   0  0  0  0  0  0
  1  2  1  0  0  0
  1  3  2  0  0  0
  1  7  1  0  0  0
  2 16  1  0  0  0
  2 24  1  0  0  0
  2 25  1  0  0  0
  4  9  2  0  0  0
  4  5  1  0  0  0
  4 10  1  0  0  0
  5 13  1  0  0  0
  5 26  1  0  0  0
  5 27  1  0  0  0
  6 15  1  0  0  0
  6 11  1  0  0  0
  6 12  2  0  0  0
  7 28  1  0  0  0
  8 16  1  0  0  0
  8 17  1  0  0  0
  8 29  1  0  0  0
  9 12  1  0  0  0
  9 30  1  0  0  0
 10 11  2  0  0  0
 10 31  1  0  0  0
 11 32  1  0  0  0
 12 33  1  0  0  0
 13 19  2  0  0  0
 13 20  1  0  0  0
 14 17  1  0  0  0
 14 18  1  0  0  0
 14 34  1  0  0  0
 14 35  1  0  0  0
 15 18  1  0  0  0
 16 36  1  0  0  0
 16 37  1  0  0  0
 17 38  1  0  0  0
 17 39  1  0  0  0
 18 40  1  0  0  0
 18 41  1  0  0  0
 19 21  1  0  0  0
 19 42  1  0  0  0
 20 22  2  0  0  0
 20 43  1  0  0  0
 21 23  2  0  0  0
 21 44  1  0  0  0
 22 23  1  0  0  0
 22 45  1  0  0  0
 23 46  1  0  0  0
M  END
> <s_m_entry_id>
6638

> <s_m_entry_name>
dock_pv.68

> <s_m_Source_Path>
/home/csk/Desktop/cluster/DUD-E-result/lkha4

> <s_m_Source_File>
dock_pv.maegz

> <i_m_Source_File_Index>
68

> <chembl_id>
CHEMBL119179

> <chembl_pref_name>
None

> <i_lp_mmshare_version>
53161

> <i_f3d_flags>
0

> <r_lp_tautomer_probability>
1

> <s_lp_Force_Field>
OPLS_2005

> <r_lp_Energy>
18.485505

> <b_lp_Chiralities_Consistent>
1

> <s_lp_Variant>
CHEMBL4618_lig146-1

> <s_i_glide_gridfile>
glide-grid_3chp

> <i_i_glide_lignum>
172

> <i_i_glide_rotatable_bonds>
11

> <r_i_docking_score>
-10.4227390757152

> <r_i_glide_ligand_efficiency>
-0.453162568509355

> <r_i_glide_ligand_efficiency_sa>
-1.28873406374154

> <r_i_glide_ligand_efficiency_ln>
-2.52031281668071

> <r_i_glide_gscore>
-10.4227390757152

> <r_i_glide_lipo>
-5.21762233342199

> <r_i_glide_hbond>
-0.304

> <r_i_glide_metal>
0

> <r_i_glide_rewards>
-2.17233530762557

> <r_i_glide_evdw>
-40.0139579772949

> <r_i_glide_ecoul>
-16.7946872711182

> <r_i_glide_erotb>
1.89111955486486

> <r_i_glide_esite>
-0.1

> <r_i_glide_emodel>
-90.7804721100785

> <r_i_glide_energy>
-56.8086452484131

> <r_i_glide_einternal>
10.8412847518921

> <i_i_glide_confnum>
251

> <i_i_glide_posenum>
357

> <r_i_glide_eff_state_penalty>
0

> <s_user_duplicate_titles>
CHEMBL4618_lig146,192766

> <s_m_subgroup_title>
dock_pv

> <s_m_subgroupid>
dock_pv

> <b_m_subgroup_collapsed>
1

$$$$
CHEMBL4618_lig427
                    3D
 Schrodinger Suite 2021-1.
 49 52  0  0  1  0            999 V2000
   10.0929   41.3576   67.1401 C   0  0  0  0  0  0
    9.2408   42.3885   66.7410 C   0  0  0  0  0  0
    9.6884   43.4176   65.9202 C   0  0  0  0  0  0
   11.4190   41.3627   66.7275 C   0  0  0  0  0  0
   11.9184   42.3478   65.8897 C   0  0  0  0  0  0
   11.0256   43.3736   65.5123 C   0  0  0  0  0  0
   11.7669   44.2158   64.7400 N   0  0  0  0  0  0
   13.0344   43.7618   64.5609 C   0  0  0  0  0  0
   13.1973   42.5909   65.2571 C   0  0  0  0  0  0
   14.4619   41.7705   65.3345 C   0  0  0  0  0  0
   15.0648   41.4753   63.9427 C   0  0  0  0  0  0
   16.5210   41.4160   63.9411 N   0  0  0  0  0  0
    9.7186   40.3018   67.9353 O   0  0  0  0  0  0
    8.5584   40.4246   68.7392 C   0  0  0  0  0  0
    8.4292   39.1561   69.5528 C   0  0  0  0  0  0
    7.6667   38.1020   69.0651 C   0  0  0  0  0  0
    7.4849   36.9823   69.8620 C   0  0  0  0  0  0
    8.0594   36.8797   71.1109 C   0  0  0  0  0  0
    8.9456   37.8504   71.5535 C   0  0  0  0  0  0
    9.0849   39.0123   70.7798 C   0  0  0  0  0  0
    9.6422   37.7133   72.7392 O   0  0  0  0  0  0
   10.0587   36.4952   73.2688 C   0  0  0  0  0  0
   10.5241   36.5120   74.5837 C   0  0  0  0  0  0
   11.0791   35.3763   75.1574 C   0  0  0  0  0  0
   11.1711   34.2055   74.4252 C   0  0  0  0  0  0
   10.6478   34.1345   73.1434 C   0  0  0  0  0  0
   10.1209   35.2799   72.5599 C   0  0  0  0  0  0
    8.2085   42.4117   67.0572 H   0  0  0  0  0  0
    9.0182   44.2141   65.6288 H   0  0  0  0  0  0
   12.0892   40.6177   67.0679 H   0  0  0  0  0  0
   11.4609   45.1040   64.3678 H   0  0  0  0  0  0
   13.7212   44.3298   63.9513 H   0  0  0  0  0  0
   14.2485   40.8384   65.8645 H   0  0  0  0  0  0
   15.1737   42.3339   65.9373 H   0  0  0  0  0  0
   14.7934   42.2636   63.2383 H   0  0  0  0  0  0
   14.6467   40.5505   63.5414 H   0  0  0  0  0  0
   16.7574   41.4454   62.9445 H   0  0  0  0  0  0
   16.8511   42.3292   64.2401 H   0  0  0  0  0  0
    8.6225   41.2902   69.4012 H   0  0  0  0  0  0
    7.6678   40.5541   68.1255 H   0  0  0  0  0  0
    7.1929   38.1589   68.0952 H   0  0  0  0  0  0
    6.9210   36.1433   69.5401 H   0  0  0  0  0  0
    7.8329   36.0097   71.7072 H   0  0  0  0  0  0
    9.7106   39.8049   71.1397 H   0  0  0  0  0  0
   10.5200   37.4167   75.1622 H   0  0  0  0  0  0
   11.4882   35.4060   76.1522 H   0  0  0  0  0  0
   11.6230   33.3296   74.8672 H   0  0  0  0  0  0
   10.7026   33.2101   72.5869 H   0  0  0  0  0  0
    9.8149   35.1986   71.5343 H   0  0  0  0  0  0
  1  2  2  0  0  0
  1  4  1  0  0  0
  1 13  1  0  0  0
  2  3  1  0  0  0
  2 28  1  0  0  0
  3  6  2  0  0  0
  3 29  1  0  0  0
  4  5  2  0  0  0
  4 30  1  0  0  0
  5  6  1  0  0  0
  5  9  1  0  0  0
  6  7  1  0  0  0
  7  8  1  0  0  0
  7 31  1  0  0  0
  8  9  2  0  0  0
  8 32  1  0  0  0
  9 10  1  0  0  0
 10 11  1  0  0  0
 10 33  1  0  0  0
 10 34  1  0  0  0
 11 12  1  0  0  0
 11 35  1  0  0  0
 11 36  1  0  0  0
 12 37  1  0  0  0
 12 38  1  0  0  0
 13 14  1  0  0  0
 14 15  1  0  0  0
 14 39  1  0  0  0
 14 40  1  0  0  0
 15 16  2  0  0  0
 15 20  1  0  0  0
 16 17  1  0  0  0
 16 41  1  0  0  0
 17 18  2  0  0  0
 17 42  1  0  0  0
 18 19  1  0  0  0
 18 43  1  0  0  0
 19 20  2  0  0  0
 19 21  1  0  0  0
 20 44  1  0  0  0
 21 22  1  0  0  0
 22 23  2  0  0  0
 22 27  1  0  0  0
 23 24  1  0  0  0
 23 45  1  0  0  0
 24 25  2  0  0  0
 24 46  1  0  0  0
 25 26  1  0  0  0
 25 47  1  0  0  0
 26 27  2  0  0  0
 26 48  1  0  0  0
 27 49  1  0  0  0
M  END
> <s_m_entry_id>
6639

> <s_m_entry_name>
dock_pv.69

> <s_m_Source_Path>
/home/csk/Desktop/cluster/DUD-E-result/lkha4

> <s_m_Source_File>
dock_pv.maegz

> <i_m_Source_File_Index>
69

> <chembl_id>
CHEMBL2316058

> <chembl_pref_name>
None

> <i_lp_mmshare_version>
53161

> <i_f3d_flags>
0

> <r_lp_tautomer_probability>
1

> <s_lp_Force_Field>
OPLS_2005

> <r_lp_Energy>
23.371586

> <b_lp_Chiralities_Consistent>
1

> <s_lp_Variant>
CHEMBL4618_lig427-1

> <s_i_glide_gridfile>
glide-grid_3chp

> <i_i_glide_lignum>
494

> <i_i_glide_rotatable_bonds>
7

> <r_i_docking_score>
-10.3962542228885

> <r_i_glide_ligand_efficiency>
-0.385046452699576

> <r_i_glide_ligand_efficiency_sa>
-1.15513935682968

> <r_i_glide_ligand_efficiency_ln>
-2.42007658744229

> <r_i_glide_gscore>
-10.3962542228885

> <r_i_glide_lipo>
-6.16599852195856

> <r_i_glide_hbond>
0

> <r_i_glide_metal>
0

> <r_i_glide_rewards>
-1.83572810173464

> <r_i_glide_evdw>
-34.7991256713867

> <r_i_glide_ecoul>
-10.3278722763062

> <r_i_glide_erotb>
0.89460952581992

> <r_i_glide_esite>
0

> <r_i_glide_emodel>
-64.7086085125563

> <r_i_glide_energy>
-45.1269979476929

> <r_i_glide_einternal>
8.66603183746338

> <i_i_glide_confnum>
48

> <i_i_glide_posenum>
381

> <r_i_glide_eff_state_penalty>
0

> <s_user_duplicate_titles>
CHEMBL4618_lig427

> <s_m_subgroup_title>
dock_pv

> <s_m_subgroupid>
dock_pv

> <b_m_subgroup_collapsed>
1

$$$$
CHEMBL4618_lig19
                    3D
 Schrodinger Suite 2021-1.
 50 52  0  0  1  0            999 V2000
   16.3055   42.5835   65.1400 C   0  0  0  0  0  0
   11.4874   42.7086   65.4743 N   0  0  2  0  0  0
   15.1146   43.0587   65.5403 N   0  0  0  0  0  0
   16.5210   41.4160   64.8072 O   0  0  0  0  0  0
   13.8392   42.3940   65.2450 C   0  0  1  0  0  0
   12.7136   42.6970   66.2648 C   0  0  0  0  0  0
   13.2643   42.9737   63.9400 C   0  0  0  0  0  0
   17.2646   43.4988   65.1400 N   0  0  0  0  0  0
   11.8891   43.5046   64.3325 C   0  0  0  0  0  0
    8.0989   38.0907   69.5790 C   0  0  0  0  0  0
    7.6613   37.0287   70.5950 C   0  0  0  0  0  0
    8.7886   40.0860   67.7041 C   0  0  0  0  0  0
    8.2447   37.7775   68.2318 C   0  0  0  0  0  0
    8.2376   39.4160   69.9602 C   0  0  0  0  0  0
    8.5210   40.4141   69.0377 C   0  0  0  0  0  0
    8.6000   38.7607   67.3009 C   0  0  0  0  0  0
    8.6713   36.5577   71.6494 C   0  0  0  0  0  0
   10.2246   43.1660   66.0597 C   0  0  0  0  0  0
    9.2510   40.9998   66.7678 O   0  0  0  0  0  0
    9.6901   42.2925   67.2141 C   0  0  0  0  0  0
    8.9715   35.1982   71.7824 C   0  0  0  0  0  0
    9.2452   37.4583   72.5468 C   0  0  0  0  0  0
    9.8605   34.7506   72.7554 C   0  0  0  0  0  0
   10.1210   37.0151   73.5355 C   0  0  0  0  0  0
   10.4219   35.6612   73.6417 C   0  0  0  0  0  0
   15.0556   44.0404   65.7573 H   0  0  0  0  0  0
   13.8863   41.3037   65.1648 H   0  0  0  0  0  0
   12.6875   42.0142   67.1104 H   0  0  0  0  0  0
   12.8347   43.6678   66.7499 H   0  0  0  0  0  0
   13.8404   43.8010   63.5278 H   0  0  0  0  0  0
   13.2046   42.2160   63.1584 H   0  0  0  0  0  0
   18.0886   43.3056   64.5809 H   0  0  0  0  0  0
   17.0528   44.4532   65.3684 H   0  0  0  0  0  0
   11.9010   44.5685   64.5790 H   0  0  0  0  0  0
   11.1470   43.4160   63.5400 H   0  0  0  0  0  0
    6.7883   37.4160   71.1230 H   0  0  0  0  0  0
    7.3064   36.1600   70.0406 H   0  0  0  0  0  0
    8.1216   36.7483   67.9400 H   0  0  0  0  0  0
    8.1210   39.6929   70.9917 H   0  0  0  0  0  0
    8.6076   41.4271   69.3969 H   0  0  0  0  0  0
    8.7733   38.4878   66.2700 H   0  0  0  0  0  0
   10.3084   44.2097   66.3566 H   0  0  0  0  0  0
    9.4680   43.1518   65.2740 H   0  0  0  0  0  0
   10.4601   42.1898   67.9773 H   0  0  0  0  0  0
    8.8492   42.8210   67.6665 H   0  0  0  0  0  0
    8.5210   34.4644   71.1400 H   0  0  0  0  0  0
    8.9962   38.5051   72.5064 H   0  0  0  0  0  0
   10.0916   33.6985   72.8412 H   0  0  0  0  0  0
   10.5641   37.7175   74.2240 H   0  0  0  0  0  0
   11.0950   35.3156   74.4129 H   0  0  0  0  0  0
  1  3  1  0  0  0
  1  4  2  0  0  0
  1  8  1  0  0  0
  2  6  1  0  0  0
  2 18  1  0  0  0
  2  9  1  0  0  0
  3  5  1  0  0  0
  3 26  1  0  0  0
  5  6  1  0  0  0
  5  7  1  0  0  0
  5 27  1  0  0  0
  6 28  1  0  0  0
  6 29  1  0  0  0
  7  9  1  0  0  0
  7 30  1  0  0  0
  7 31  1  0  0  0
  8 32  1  0  0  0
  8 33  1  0  0  0
  9 34  1  0  0  0
  9 35  1  0  0  0
 10 13  2  0  0  0
 10 11  1  0  0  0
 10 14  1  0  0  0
 11 17  1  0  0  0
 11 36  1  0  0  0
 11 37  1  0  0  0
 12 19  1  0  0  0
 12 15  1  0  0  0
 12 16  2  0  0  0
 13 16  1  0  0  0
 13 38  1  0  0  0
 14 15  2  0  0  0
 14 39  1  0  0  0
 15 40  1  0  0  0
 16 41  1  0  0  0
 17 21  2  0  0  0
 17 22  1  0  0  0
 18 20  1  0  0  0
 18 42  1  0  0  0
 18 43  1  0  0  0
 19 20  1  0  0  0
 20 44  1  0  0  0
 20 45  1  0  0  0
 21 23  1  0  0  0
 21 46  1  0  0  0
 22 24  2  0  0  0
 22 47  1  0  0  0
 23 25  2  0  0  0
 23 48  1  0  0  0
 24 25  1  0  0  0
 24 49  1  0  0  0
 25 50  1  0  0  0
M  END
> <s_m_entry_id>
6640

> <s_m_entry_name>
dock_pv.70

> <s_m_Source_Path>
/home/csk/Desktop/cluster/DUD-E-result/lkha4

> <s_m_Source_File>
dock_pv.maegz

> <i_m_Source_File_Index>
70

> <chembl_id>
CHEMBL114264

> <chembl_pref_name>
None

> <i_lp_mmshare_version>
53161

> <i_f3d_flags>
0

> <r_lp_tautomer_probability>
1

> <s_lp_Force_Field>
OPLS_2005

> <r_lp_Energy>
32.319482

> <b_lp_Chiralities_Consistent>
1

> <s_lp_Variant>
CHEMBL4618_lig19-2

> <s_i_glide_gridfile>
glide-grid_3chp

> <i_i_glide_lignum>
27

> <i_i_glide_rotatable_bonds>
8

> <r_i_docking_score>
-10.392552197639

> <r_i_glide_ligand_efficiency>
-0.41570208790556

> <r_i_glide_ligand_efficiency_sa>
-1.21552027754378

> <r_i_glide_ligand_efficiency_ln>
-2.46334631049817

> <r_i_glide_gscore>
-10.392552197639

> <r_i_glide_lipo>
-5.34407075511692

> <r_i_glide_hbond>
-0.256084122255096

> <r_i_glide_metal>
0

> <r_i_glide_rewards>
-1.94577394609556

> <r_i_glide_evdw>
-46.5574188232422

> <r_i_glide_ecoul>
-9.3177433013916

> <r_i_glide_erotb>
1.14979660599623

> <r_i_glide_esite>
-0.270887543796824

> <r_i_glide_emodel>
-86.1977975353732

> <r_i_glide_energy>
-55.8751621246338

> <r_i_glide_einternal>
10.0665454864502

> <i_i_glide_confnum>
42

> <i_i_glide_posenum>
89

> <r_i_glide_eff_state_penalty>
0

> <s_user_duplicate_titles>
CHEMBL4618_lig19

> <s_m_subgroup_title>
dock_pv

> <s_m_subgroupid>
dock_pv

> <b_m_subgroup_collapsed>
1

$$$$
CHEMBL4618_lig175
                    3D
 Schrodinger Suite 2021-1.
 45 47  0  0  1  0            999 V2000
   10.1210   33.9383   72.4618 C   0  0  0  0  0  0
   10.7778   34.2191   73.6569 C   0  0  0  0  0  0
   10.5392   35.4160   74.3290 C   0  0  0  0  0  0
    9.6630   36.3497   73.7831 C   0  0  0  0  0  0
    9.0043   36.0839   72.5795 C   0  0  0  0  0  0
    9.2225   34.8644   71.9400 C   0  0  0  0  0  0
    8.0419   37.1166   71.9960 C   0  0  0  0  0  0
    7.8566   36.9264   70.5793 O   0  0  0  0  0  0
    8.0739   37.9561   69.6803 C   0  0  0  0  0  0
    8.2296   39.2910   70.0405 C   0  0  0  0  0  0
    8.5210   40.2648   69.1025 C   0  0  0  0  0  0
    8.7737   39.9115   67.7713 C   0  0  0  0  0  0
    8.5210   38.5955   67.3795 C   0  0  0  0  0  0
    8.1435   37.6371   68.3267 C   0  0  0  0  0  0
    9.2984   40.7984   66.8005 N   0  0  0  0  0  0
    9.7359   42.0662   66.9815 C   0  0  0  0  0  0
   10.2643   42.8447   65.7472 C   0  0  1  0  0  0
    9.7211   42.6563   68.0586 O   0  0  0  0  0  0
    9.3210   43.9610   65.5400 N   0  0  0  0  0  0
   11.6994   43.4161   65.9556 C   0  0  0  0  0  0
   12.8591   42.7195   65.2828 C   0  0  0  0  0  0
   13.5963   43.3137   64.2715 N   0  0  0  0  0  0
   14.6106   42.4982   63.9790 C   0  0  0  0  0  0
   14.6449   41.4160   64.7400 N   0  0  0  0  0  0
   13.5010   41.5292   65.5400 C   0  0  0  0  0  0
   10.2846   32.9946   71.9618 H   0  0  0  0  0  0
   11.4572   33.4917   74.0787 H   0  0  0  0  0  0
   11.0362   35.6195   75.2669 H   0  0  0  0  0  0
    9.4940   37.2784   74.3029 H   0  0  0  0  0  0
    8.6700   34.6258   71.0472 H   0  0  0  0  0  0
    8.4322   38.0869   72.2895 H   0  0  0  0  0  0
    7.0732   37.0160   72.4851 H   0  0  0  0  0  0
    8.1211   39.6227   71.0550 H   0  0  0  0  0  0
    8.6040   41.2705   69.4756 H   0  0  0  0  0  0
    8.6643   38.2897   66.3527 H   0  0  0  0  0  0
    7.9951   36.6160   68.0187 H   0  0  0  0  0  0
    9.3934   40.4096   65.8757 H   0  0  0  0  0  0
   10.2474   42.2160   64.8630 H   0  0  0  0  0  0
    8.3815   43.6916   65.2493 H   0  0  0  0  0  0
    9.2072   44.4636   66.4166 H   0  0  0  0  0  0
   11.9522   43.4790   67.0152 H   0  0  0  0  0  0
   11.7410   44.4458   65.6014 H   0  0  0  0  0  0
   13.4420   44.2144   63.8424 H   0  0  0  0  0  0
   15.3419   42.7006   63.2074 H   0  0  0  0  0  0
   13.2693   40.7749   66.2776 H   0  0  0  0  0  0
  1  6  1  0  0  0
  1  2  2  0  0  0
  1 26  1  0  0  0
  2  3  1  0  0  0
  2 27  1  0  0  0
  3  4  2  0  0  0
  3 28  1  0  0  0
  4  5  1  0  0  0
  4 29  1  0  0  0
  5  7  1  0  0  0
  5  6  2  0  0  0
  6 30  1  0  0  0
  7  8  1  0  0  0
  7 31  1  0  0  0
  7 32  1  0  0  0
  8  9  1  0  0  0
  9 14  1  0  0  0
  9 10  2  0  0  0
 10 11  1  0  0  0
 10 33  1  0  0  0
 11 12  2  0  0  0
 11 34  1  0  0  0
 12 13  1  0  0  0
 12 15  1  0  0  0
 13 14  2  0  0  0
 13 35  1  0  0  0
 14 36  1  0  0  0
 15 16  1  0  0  0
 15 37  1  0  0  0
 16 17  1  0  0  0
 16 18  2  0  0  0
 17 19  1  0  0  0
 17 20  1  0  0  0
 17 38  1  0  0  0
 19 39  1  0  0  0
 19 40  1  0  0  0
 20 21  1  0  0  0
 20 41  1  0  0  0
 20 42  1  0  0  0
 21 22  1  0  0  0
 21 25  2  0  0  0
 22 23  1  0  0  0
 22 43  1  0  0  0
 23 24  2  0  0  0
 23 44  1  0  0  0
 24 25  1  0  0  0
 25 45  1  0  0  0
M  END
> <s_m_entry_id>
6641

> <s_m_entry_name>
dock_pv.71

> <s_m_Source_Path>
/home/csk/Desktop/cluster/DUD-E-result/lkha4

> <s_m_Source_File>
dock_pv.maegz

> <i_m_Source_File_Index>
71

> <chembl_id>
CHEMBL477308

> <chembl_pref_name>
None

> <i_lp_mmshare_version>
53161

> <i_f3d_flags>
0

> <r_lp_tautomer_probability>
0.499999999999999

> <s_lp_Force_Field>
OPLS_2005

> <r_lp_Energy>
27.322424

> <b_lp_Chiralities_Consistent>
1

> <s_lp_Variant>
CHEMBL4618_lig175-1

> <s_i_glide_gridfile>
glide-grid_3chp

> <i_i_glide_lignum>
201

> <i_i_glide_rotatable_bonds>
8

> <r_i_docking_score>
-10.3834332757038

> <r_i_glide_ligand_efficiency>
-0.415337331028151

> <r_i_glide_ligand_efficiency_sa>
-1.21445372196524

> <r_i_glide_ligand_efficiency_ln>
-2.46118485272748

> <r_i_glide_gscore>
-10.3834332757038

> <r_i_glide_lipo>
-5.10414376858996

> <r_i_glide_hbond>
-0.579316047153113

> <r_i_glide_metal>
0

> <r_i_glide_rewards>
-1.59376422784393

> <r_i_glide_evdw>
-46.6825866699219

> <r_i_glide_ecoul>
-12.3160247802734

> <r_i_glide_erotb>
1.16829230399059

> <r_i_glide_esite>
-0.0929684855702617

> <r_i_glide_emodel>
-89.7976277164909

> <r_i_glide_energy>
-58.9986114501953

> <r_i_glide_einternal>
10.129771232605

> <i_i_glide_confnum>
17

> <i_i_glide_posenum>
92

> <r_i_glide_eff_state_penalty>
0

> <s_user_duplicate_titles>
CHEMBL4618_lig175,CHEMBL4618_lig175

> <s_m_subgroup_title>
dock_pv

> <s_m_subgroupid>
dock_pv

> <b_m_subgroup_collapsed>
1

$$$$
CHEMBL4618_lig403
                    3D
 Schrodinger Suite 2021-1.
 49 52  0  0  1  0            999 V2000
    9.7749   35.4467   73.2593 C   0  0  0  0  0  0
    8.9682   35.2755   72.1349 C   0  0  0  0  0  0
   10.0946   37.8084   72.7575 N   0  0  0  0  0  0
   10.2947   36.7107   73.5377 C   0  0  0  0  0  0
    9.2859   37.6607   71.7083 C   0  0  0  0  0  0
    8.7046   36.4126   71.3661 C   0  0  0  0  0  0
    7.7212   36.6170   69.9394 S   0  0  0  0  0  0
    8.1358   38.2926   69.9629 C   0  0  0  0  0  0
    8.9461   38.6998   70.8987 N   0  0  0  0  0  0
    7.4752   39.0524   69.0428 O   0  0  0  0  0  0
    8.1317   40.0848   68.4413 C   0  0  0  0  0  0
    7.7837   41.3936   68.7552 C   0  0  0  0  0  0
    8.3404   42.4430   68.0422 C   0  0  0  0  0  0
    9.2478   42.1761   67.0173 C   0  0  0  0  0  0
    9.6358   40.8647   66.7414 C   0  0  0  0  0  0
    9.0704   39.8138   67.4493 C   0  0  0  0  0  0
    9.7421   43.3169   66.1552 C   0  0  0  0  0  0
   11.2419   43.6087   66.2634 C   0  0  0  0  0  0
   12.0755   42.7670   65.4195 N   0  0  2  0  0  0
   12.8885   41.8969   66.2555 C   0  0  0  0  0  0
   13.6099   40.9069   65.3580 C   0  0  0  0  0  0
   14.4972   41.4975   64.2397 C   0  0  0  0  0  0
   13.7509   42.6637   63.5693 C   0  0  0  0  0  0
   12.9202   43.5579   64.5092 C   0  0  0  0  0  0
   15.8719   42.0163   64.7287 C   0  0  0  0  0  0
   16.9176   41.7743   63.9396 N   0  0  0  0  0  0
   16.0245   42.6172   65.7862 O   0  0  0  0  0  0
    9.9885   34.6108   73.9100 H   0  0  0  0  0  0
    8.5393   34.3143   71.8894 H   0  0  0  0  0  0
   10.9160   36.8623   74.4079 H   0  0  0  0  0  0
    7.0545   41.5946   69.5268 H   0  0  0  0  0  0
    8.0227   43.4532   68.2594 H   0  0  0  0  0  0
   10.3261   40.6530   65.9383 H   0  0  0  0  0  0
    9.3243   38.7927   67.2021 H   0  0  0  0  0  0
    9.1915   44.2158   66.4295 H   0  0  0  0  0  0
    9.4514   43.1256   65.1325 H   0  0  0  0  0  0
   11.5511   43.5908   67.3095 H   0  0  0  0  0  0
   11.3921   44.6139   65.9289 H   0  0  0  0  0  0
   12.2415   41.3406   66.9315 H   0  0  0  0  0  0
   13.5732   42.4810   66.8728 H   0  0  0  0  0  0
   12.9169   40.1840   64.9251 H   0  0  0  0  0  0
   14.1558   40.2161   65.9659 H   0  0  0  0  0  0
   14.7675   40.7067   63.5412 H   0  0  0  0  0  0
   14.4200   43.2909   62.9840 H   0  0  0  0  0  0
   13.1844   42.2372   62.7491 H   0  0  0  0  0  0
   12.2768   44.1926   63.8997 H   0  0  0  0  0  0
   13.5666   44.2306   65.0769 H   0  0  0  0  0  0
   17.7985   42.2148   64.1829 H   0  0  0  0  0  0
   16.7382   41.7188   62.9381 H   0  0  0  0  0  0
  1  2  2  0  0  0
  1  4  1  0  0  0
  1 28  1  0  0  0
  2  6  1  0  0  0
  2 29  1  0  0  0
  3  5  1  0  0  0
  3  4  2  0  0  0
  4 30  1  0  0  0
  5  6  2  0  0  0
  5  9  1  0  0  0
  6  7  1  0  0  0
  7  8  1  0  0  0
  8  9  2  0  0  0
  8 10  1  0  0  0
 10 11  1  0  0  0
 11 12  2  0  0  0
 11 16  1  0  0  0
 12 13  1  0  0  0
 12 31  1  0  0  0
 13 14  2  0  0  0
 13 32  1  0  0  0
 14 15  1  0  0  0
 14 17  1  0  0  0
 15 16  2  0  0  0
 15 33  1  0  0  0
 16 34  1  0  0  0
 17 18  1  0  0  0
 17 35  1  0  0  0
 17 36  1  0  0  0
 18 19  1  0  0  0
 18 37  1  0  0  0
 18 38  1  0  0  0
 19 20  1  0  0  0
 19 24  1  0  0  0
 20 21  1  0  0  0
 20 39  1  0  0  0
 20 40  1  0  0  0
 21 22  1  0  0  0
 21 41  1  0  0  0
 21 42  1  0  0  0
 22 23  1  0  0  0
 22 25  1  0  0  0
 22 43  1  0  0  0
 23 24  1  0  0  0
 23 44  1  0  0  0
 23 45  1  0  0  0
 24 46  1  0  0  0
 24 47  1  0  0  0
 25 26  1  0  0  0
 25 27  2  0  0  0
 26 48  1  0  0  0
 26 49  1  0  0  0
M  END
> <s_m_entry_id>
6642

> <s_m_entry_name>
dock_pv.72

> <s_m_Source_Path>
/home/csk/Desktop/cluster/DUD-E-result/lkha4

> <s_m_Source_File>
dock_pv.maegz

> <i_m_Source_File_Index>
72

> <chembl_id>
CHEMBL2207743

> <chembl_pref_name>
None

> <i_lp_mmshare_version>
53161

> <i_f3d_flags>
0

> <r_lp_tautomer_probability>
1

> <s_lp_Force_Field>
OPLS_2005

> <r_lp_Energy>
21.486238

> <b_lp_Chiralities_Consistent>
1

> <s_lp_Variant>
CHEMBL4618_lig403-1

> <s_i_glide_gridfile>
glide-grid_3chp

> <i_i_glide_lignum>
468

> <i_i_glide_rotatable_bonds>
6

> <r_i_docking_score>
-10.3733545678986

> <r_i_glide_ligand_efficiency>
-0.384198317329579

> <r_i_glide_ligand_efficiency_sa>
-1.15259495072248

> <r_i_glide_ligand_efficiency_ln>
-2.41474592529096

> <r_i_glide_gscore>
-10.3733545678986

> <r_i_glide_lipo>
-4.75441719334611

> <r_i_glide_hbond>
-0.294083655215025

> <r_i_glide_metal>
0

> <r_i_glide_rewards>
-1.70127081818182

> <r_i_glide_evdw>
-43.1412582397461

> <r_i_glide_ecoul>
-12.8689041137695

> <r_i_glide_erotb>
0.663815627897044

> <r_i_glide_esite>
-0.2

> <r_i_glide_emodel>
-79.4878991547788

> <r_i_glide_energy>
-56.0101623535156

> <r_i_glide_einternal>
11.711483001709

> <i_i_glide_confnum>
63

> <i_i_glide_posenum>
316

> <r_i_glide_eff_state_penalty>
0

> <s_user_duplicate_titles>
CHEMBL4618_lig403

> <s_m_subgroup_title>
dock_pv

> <s_m_subgroupid>
dock_pv

> <b_m_subgroup_collapsed>
1

$$$$
CHEMBL4618_lig444
                    3D
 Schrodinger Suite 2021-1.
 57 62  0  0  1  0            999 V2000
    7.9877   36.9621   69.5369 O   0  0  0  0  0  0
    9.0435   37.8329   71.9400 S   0  0  0  0  0  0
    8.5210   36.6389   70.7763 C   0  0  0  0  0  0
    8.7524   35.4160   71.1400 N   0  0  0  0  0  0
    9.5162   35.3288   72.2596 C   0  0  0  0  0  0
    9.7193   36.5505   72.9333 C   0  0  0  0  0  0
   10.1210   34.1568   72.7400 C   0  0  0  0  0  0
   10.8321   34.2159   73.9399 C   0  0  0  0  0  0
   10.9210   35.4023   74.6614 C   0  0  0  0  0  0
   10.3955   36.5920   74.1610 C   0  0  0  0  0  0
    8.9210   39.4071   66.9239 C   0  0  0  0  0  0
    8.6485   38.2160   67.6111 C   0  0  0  0  0  0
    8.1337   38.1880   68.9089 C   0  0  0  0  0  0
    7.7610   39.3868   69.5008 C   0  0  0  0  0  0
    8.7763   42.0316   67.2509 C   0  0  0  0  0  0
    8.6275   40.6292   67.5478 C   0  0  0  0  0  0
    8.0172   40.5752   68.8156 C   0  0  0  0  0  0
    7.7210   41.8160   69.2673 O   0  0  0  0  0  0
    8.1660   42.6715   68.3158 C   0  0  0  0  0  0
    9.4287   42.7079   66.0663 C   0  0  0  0  0  0
   10.8900   42.8409   66.1549 N   0  0  1  0  0  0
   11.5935   41.5620   66.2988 C   0  0  0  0  0  0
   13.1222   41.7105   66.2370 C   0  0  0  0  0  0
   13.6557   42.4957   65.0326 C   0  0  0  0  0  0
   12.8616   43.8003   64.8514 C   0  0  0  0  0  0
   11.3382   43.6340   65.0031 C   0  0  0  0  0  0
   15.1194   42.6180   64.9980 N   0  0  0  0  0  0
   15.9118   41.8845   64.0205 C   0  0  0  0  0  0
   17.2838   41.8964   64.6632 C   0  0  0  0  0  0
   17.3065   43.2012   65.4137 C   0  0  0  0  0  0
   15.8559   43.4160   65.8179 C   0  0  0  0  0  0
   15.4911   44.1399   66.7398 O   0  0  0  0  0  0
   10.0135   33.2221   72.2107 H   0  0  0  0  0  0
   11.2864   33.3179   74.3382 H   0  0  0  0  0  0
   11.4423   35.4038   75.6093 H   0  0  0  0  0  0
   10.5238   37.5091   74.7059 H   0  0  0  0  0  0
    9.3730   39.3757   65.9430 H   0  0  0  0  0  0
    8.9193   37.2839   67.1439 H   0  0  0  0  0  0
    7.3210   39.3940   70.4725 H   0  0  0  0  0  0
    7.9927   43.7176   68.5291 H   0  0  0  0  0  0
    9.0298   43.7226   65.9983 H   0  0  0  0  0  0
    9.1601   42.2160   65.1400 H   0  0  0  0  0  0
   11.2609   40.8605   65.5400 H   0  0  0  0  0  0
   11.3145   41.1107   67.2506 H   0  0  0  0  0  0
   13.5639   40.7140   66.2499 H   0  0  0  0  0  0
   13.4464   42.2160   67.1400 H   0  0  0  0  0  0
   13.3835   41.8855   64.1692 H   0  0  0  0  0  0
   13.1798   44.5561   65.5622 H   0  0  0  0  0  0
   13.0749   44.2163   63.8661 H   0  0  0  0  0  0
   10.9337   43.2236   64.0774 H   0  0  0  0  0  0
   10.8893   44.6160   65.1396 H   0  0  0  0  0  0
   15.5071   40.8905   63.8306 H   0  0  0  0  0  0
   15.9140   42.4427   63.0808 H   0  0  0  0  0  0
   18.0910   41.8160   63.9400 H   0  0  0  0  0  0
   17.3840   41.0960   65.3960 H   0  0  0  0  0  0
   17.6012   44.0187   64.7527 H   0  0  0  0  0  0
   17.9865   43.1931   66.2656 H   0  0  0  0  0  0
  1  3  1  0  0  0
  1 13  1  0  0  0
  2  3  1  0  0  0
  2  6  1  0  0  0
  3  4  2  0  0  0
  4  5  1  0  0  0
  5  6  1  0  0  0
  5  7  2  0  0  0
  6 10  2  0  0  0
  7  8  1  0  0  0
  7 33  1  0  0  0
  8  9  2  0  0  0
  8 34  1  0  0  0
  9 10  1  0  0  0
  9 35  1  0  0  0
 10 36  1  0  0  0
 11 16  2  0  0  0
 11 12  1  0  0  0
 11 37  1  0  0  0
 12 13  2  0  0  0
 12 38  1  0  0  0
 13 14  1  0  0  0
 14 17  2  0  0  0
 14 39  1  0  0  0
 15 16  1  0  0  0
 15 19  2  0  0  0
 15 20  1  0  0  0
 16 17  1  0  0  0
 17 18  1  0  0  0
 18 19  1  0  0  0
 19 40  1  0  0  0
 20 21  1  0  0  0
 20 41  1  0  0  0
 20 42  1  0  0  0
 21 22  1  0  0  0
 21 26  1  0  0  0
 22 23  1  0  0  0
 22 43  1  0  0  0
 22 44  1  0  0  0
 23 24  1  0  0  0
 23 45  1  0  0  0
 23 46  1  0  0  0
 24 25  1  0  0  0
 24 27  1  0  0  0
 24 47  1  0  0  0
 25 26  1  0  0  0
 25 48  1  0  0  0
 25 49  1  0  0  0
 26 50  1  0  0  0
 26 51  1  0  0  0
 27 28  1  0  0  0
 27 31  1  0  0  0
 28 29  1  0  0  0
 28 52  1  0  0  0
 28 53  1  0  0  0
 29 30  1  0  0  0
 29 54  1  0  0  0
 29 55  1  0  0  0
 30 31  1  0  0  0
 30 56  1  0  0  0
 30 57  1  0  0  0
 31 32  2  0  0  0
M  END
> <s_m_entry_id>
6643

> <s_m_entry_name>
dock_pv.73

> <s_m_Source_Path>
/home/csk/Desktop/cluster/DUD-E-result/lkha4

> <s_m_Source_File>
dock_pv.maegz

> <i_m_Source_File_Index>
73

> <chembl_id>
CHEMBL2313570

> <chembl_pref_name>
None

> <i_lp_mmshare_version>
53161

> <i_f3d_flags>
0

> <r_lp_tautomer_probability>
1

> <s_lp_Force_Field>
OPLS_2005

> <r_lp_Energy>
45.466015

> <b_lp_Chiralities_Consistent>
1

> <s_lp_Variant>
CHEMBL4618_lig444-1

> <s_i_glide_gridfile>
glide-grid_3chp

> <i_i_glide_lignum>
520

> <i_i_glide_rotatable_bonds>
5

> <r_i_docking_score>
-10.3521607704057

> <r_i_glide_ligand_efficiency>
-0.323505024075177

> <r_i_glide_ligand_efficiency_sa>
-1.02706442988136

> <r_i_glide_ligand_efficiency_ln>
-2.31813098573866

> <r_i_glide_gscore>
-10.3521607704057

> <r_i_glide_lipo>
-6.11208161465968

> <r_i_glide_hbond>
0

> <r_i_glide_metal>
0

> <r_i_glide_rewards>
-1.25761159090909

> <r_i_glide_evdw>
-56.3396530151367

> <r_i_glide_ecoul>
-3.19266152381897

> <r_i_glide_erotb>
0.499885126336573

> <r_i_glide_esite>
-0.18647081184379

> <r_i_glide_emodel>
-83.8437866530225

> <r_i_glide_energy>
-59.5323145389557

> <r_i_glide_einternal>
6.40607070922852

> <i_i_glide_confnum>
12

> <i_i_glide_posenum>
311

> <r_i_glide_eff_state_penalty>
0

> <s_user_duplicate_titles>
CHEMBL4618_lig444

> <s_m_subgroup_title>
dock_pv

> <s_m_subgroupid>
dock_pv

> <b_m_subgroup_collapsed>
1

$$$$
CHEMBL4618_lig475
                    3D
 Schrodinger Suite 2021-1.
 59 63  0  0  1  0            999 V2000
   21.5473   43.2531   66.9635 C   0  0  0  0  0  0
   20.7428   44.5183   66.6109 C   0  0  0  0  0  0
   19.3633   44.5862   67.2817 C   0  0  0  0  0  0
   19.2282   45.4146   68.1889 O   0  0  0  0  0  0
   18.3976   43.6858   66.9451 N   0  0  0  0  0  0
   17.1300   43.6469   67.7041 C   0  0  0  0  0  0
   15.9769   43.9893   66.7367 C   0  0  0  0  0  0
   15.9550   43.0926   65.5777 N   0  0  0  0  0  0
   14.7842   43.4161   64.7410 C   0  0  0  0  0  0
   13.5249   42.7252   65.2079 C   0  0  0  0  0  0
   13.5228   41.3432   65.2351 C   0  0  0  0  0  0
   12.5015   40.6162   65.7088 N   0  0  0  0  0  0
   11.4000   41.2565   66.1823 C   0  0  0  0  0  0
   10.3590   40.4867   66.7399 C   0  0  0  0  0  0
    9.1666   41.0635   67.1400 C   0  0  0  0  0  0
    8.1210   40.2618   67.5162 O   0  0  0  0  0  0
    8.2191   39.3497   68.5396 C   0  0  0  0  0  0
    7.9581   37.9916   68.3401 C   0  0  0  0  0  0
    8.1209   37.1103   69.4190 C   0  0  0  0  0  0
    8.5330   37.6011   70.6664 C   0  0  0  0  0  0
    8.6615   38.9855   70.7787 C   0  0  0  0  0  0
    8.5210   39.8518   69.7527 N   0  0  0  0  0  0
    8.9753   36.7266   71.8057 C   0  0  0  0  0  0
    9.0027   35.3255   71.8773 C   0  0  0  0  0  0
    9.7207   35.0068   73.0177 C   0  0  0  0  0  0
    9.9653   36.2095   73.6116 N   0  0  0  0  0  0
    9.5330   37.2421   72.8862 N   0  0  0  0  0  0
    8.9766   42.4291   66.9647 C   0  0  0  0  0  0
    9.9905   43.2203   66.4242 C   0  0  0  0  0  0
   11.2432   42.6631   66.0640 C   0  0  0  0  0  0
   12.3557   43.4080   65.5741 C   0  0  0  0  0  0
   17.2108   43.2205   64.8264 C   0  0  0  0  0  0
   18.4454   42.8791   65.6994 C   0  0  0  0  0  0
   22.5264   43.2905   66.4845 H   0  0  0  0  0  0
   21.0684   42.3394   66.6086 H   0  0  0  0  0  0
   21.7248   43.1690   68.0365 H   0  0  0  0  0  0
   21.3208   45.3961   66.9002 H   0  0  0  0  0  0
   20.6103   44.6175   65.5400 H   0  0  0  0  0  0
   16.9815   42.6530   68.1262 H   0  0  0  0  0  0
   17.1090   44.3525   68.5362 H   0  0  0  0  0  0
   16.1281   45.0109   66.3845 H   0  0  0  0  0  0
   15.0092   43.9701   67.2323 H   0  0  0  0  0  0
   14.5857   44.4889   64.7399 H   0  0  0  0  0  0
   14.9438   43.0614   63.7187 H   0  0  0  0  0  0
   14.3800   40.7791   64.9042 H   0  0  0  0  0  0
   10.4551   39.4162   66.7680 H   0  0  0  0  0  0
    7.6759   37.6336   67.3635 H   0  0  0  0  0  0
    7.9868   36.0502   69.2675 H   0  0  0  0  0  0
    8.9210   39.4220   71.7232 H   0  0  0  0  0  0
    8.6065   34.6344   71.1466 H   0  0  0  0  0  0
   10.0179   34.0719   73.4733 H   0  0  0  0  0  0
   10.4276   36.3368   74.5007 H   0  0  0  0  0  0
    8.0255   42.8735   67.2245 H   0  0  0  0  0  0
    9.8113   44.2689   66.2903 H   0  0  0  0  0  0
   12.2909   44.4833   65.5061 H   0  0  0  0  0  0
   17.3205   44.2453   64.4714 H   0  0  0  0  0  0
   17.1850   42.5783   63.9449 H   0  0  0  0  0  0
   19.3338   43.0414   65.0912 H   0  0  0  0  0  0
   18.4274   41.8209   65.9547 H   0  0  0  0  0  0
  1  2  1  0  0  0
  1 34  1  0  0  0
  1 35  1  0  0  0
  1 36  1  0  0  0
  2  3  1  0  0  0
  2 37  1  0  0  0
  2 38  1  0  0  0
  3  4  2  0  0  0
  3  5  1  0  0  0
  5  6  1  0  0  0
  5 33  1  0  0  0
  6  7  1  0  0  0
  6 39  1  0  0  0
  6 40  1  0  0  0
  7  8  1  0  0  0
  7 41  1  0  0  0
  7 42  1  0  0  0
  8  9  1  0  0  0
  8 32  1  0  0  0
  9 10  1  0  0  0
  9 43  1  0  0  0
  9 44  1  0  0  0
 10 11  2  0  0  0
 10 31  1  0  0  0
 11 12  1  0  0  0
 11 45  1  0  0  0
 12 13  2  0  0  0
 13 14  1  0  0  0
 13 30  1  0  0  0
 14 15  2  0  0  0
 14 46  1  0  0  0
 15 16  1  0  0  0
 15 28  1  0  0  0
 16 17  1  0  0  0
 17 18  2  0  0  0
 17 22  1  0  0  0
 18 19  1  0  0  0
 18 47  1  0  0  0
 19 20  2  0  0  0
 19 48  1  0  0  0
 20 21  1  0  0  0
 20 23  1  0  0  0
 21 22  2  0  0  0
 21 49  1  0  0  0
 23 27  2  0  0  0
 23 24  1  0  0  0
 24 25  2  0  0  0
 24 50  1  0  0  0
 25 26  1  0  0  0
 25 51  1  0  0  0
 26 27  1  0  0  0
 26 52  1  0  0  0
 28 29  2  0  0  0
 28 53  1  0  0  0
 29 30  1  0  0  0
 29 54  1  0  0  0
 30 31  2  0  0  0
 31 55  1  0  0  0
 32 33  1  0  0  0
 32 56  1  0  0  0
 32 57  1  0  0  0
 33 58  1  0  0  0
 33 59  1  0  0  0
M  END
> <s_m_entry_id>
6644

> <s_m_entry_name>
dock_pv.74

> <s_m_Source_Path>
/home/csk/Desktop/cluster/DUD-E-result/lkha4

> <s_m_Source_File>
dock_pv.maegz

> <i_m_Source_File_Index>
74

> <chembl_id>
CHEMBL3931416

> <chembl_pref_name>
None

> <i_lp_mmshare_version>
53161

> <i_f3d_flags>
0

> <r_lp_tautomer_probability>
0.5

> <s_lp_Force_Field>
OPLS_2005

> <r_lp_Energy>
51.772366

> <b_lp_Chiralities_Consistent>
1

> <s_lp_Variant>
CHEMBL4618_lig475-2

> <s_i_glide_gridfile>
glide-grid_3chp

> <i_i_glide_lignum>
566

> <i_i_glide_rotatable_bonds>
7

> <r_i_docking_score>
-10.3392573611852

> <r_i_glide_ligand_efficiency>
-0.313310829126824

> <r_i_glide_ligand_efficiency_sa>
-1.00495523921247

> <r_i_glide_ligand_efficiency_ln>
-2.29939730331804

> <r_i_glide_gscore>
-10.3392573611852

> <r_i_glide_lipo>
-5.33177306104536

> <r_i_glide_hbond>
-0.242742609148264

> <r_i_glide_metal>
0

> <r_i_glide_rewards>
-1.28514826858397

> <r_i_glide_evdw>
-49.4355964660645

> <r_i_glide_ecoul>
-10.5110025405884

> <r_i_glide_erotb>
0.612323966892845

> <r_i_glide_esite>
-0.0434871849089819

> <r_i_glide_emodel>
-66.5818506782319

> <r_i_glide_energy>
-59.9465990066528

> <r_i_glide_einternal>
16.8489017486572

> <i_i_glide_confnum>
1

> <i_i_glide_posenum>
106

> <r_i_glide_eff_state_penalty>
0

> <s_user_duplicate_titles>
CHEMBL4618_lig475,CHEMBL4618_lig475

> <s_m_subgroup_title>
dock_pv

> <s_m_subgroupid>
dock_pv

> <b_m_subgroup_collapsed>
1

$$$$
CHEMBL4618_lig472
                    3D
 Schrodinger Suite 2021-1.
 60 64  0  0  1  0            999 V2000
   14.2573   41.0167   64.1271 C   0  0  0  0  0  0
   14.8714   42.0496   64.9958 N   0  0  0  0  0  0
   13.9725   43.0309   65.6025 C   0  0  1  0  0  0
   13.6182   44.0280   64.5012 C   0  0  0  0  0  0
   12.1234   44.0140   64.4432 C   0  0  0  0  0  0
   11.6392   43.5050   65.7059 N   0  0  1  0  0  0
   10.2446   43.1183   65.5314 C   0  0  0  0  0  0
    9.7052   42.2192   66.6030 C   0  0  0  0  0  0
    9.0064   42.7295   67.6860 C   0  0  0  0  0  0
    8.4869   41.9554   68.6583 N   0  0  0  0  0  0
    8.5207   40.6134   68.4556 C   0  0  0  0  0  0
    7.9636   39.7933   69.4142 C   0  0  0  0  0  0
    7.7494   38.4517   69.1916 C   0  0  0  0  0  0
    7.1046   37.7301   70.1445 O   0  0  0  0  0  0
    7.9223   37.1621   71.0652 C   0  0  0  0  0  0
    8.5217   37.8881   72.0895 C   0  0  0  0  0  0
    9.3602   37.2026   72.9636 C   0  0  0  0  0  0
    9.5374   35.8300   72.8131 C   0  0  0  0  0  0
    8.9011   35.1906   71.7553 C   0  0  0  0  0  0
    8.1229   35.8473   70.8765 N   0  0  0  0  0  0
   10.4029   35.0518   73.6966 C   0  0  0  0  0  0
   10.9250   33.7909   73.5375 C   0  0  0  0  0  0
   11.7917   33.6339   74.6065 C   0  0  0  0  0  0
   11.7200   34.6163   75.4704 N   0  0  0  0  0  0
   10.8802   35.4766   74.9080 N   0  0  0  0  0  0
    8.2153   37.8544   68.0336 C   0  0  0  0  0  0
    8.9149   38.6165   67.0973 C   0  0  0  0  0  0
    9.0962   40.0036   67.3136 C   0  0  0  0  0  0
    9.8155   40.8411   66.4542 C   0  0  0  0  0  0
   12.6041   42.4806   66.0579 C   0  0  0  0  0  0
   16.2148   42.1953   65.0625 C   0  0  0  0  0  0
   16.9229   41.4161   64.4440 O   0  0  0  0  0  0
   16.9064   43.2032   66.0150 C   0  0  0  0  0  0
   16.8056   44.5313   65.5403 O   0  0  0  0  0  0
   14.9746   40.4216   63.5625 H   0  0  0  0  0  0
   13.6716   40.3117   64.7130 H   0  0  0  0  0  0
   13.5980   41.4699   63.3859 H   0  0  0  0  0  0
   14.3758   43.6039   66.4393 H   0  0  0  0  0  0
   13.9873   45.0163   64.7399 H   0  0  0  0  0  0
   13.9777   43.7642   63.5071 H   0  0  0  0  0  0
   11.7633   45.0201   64.3681 H   0  0  0  0  0  0
   11.7627   43.4756   63.5648 H   0  0  0  0  0  0
    9.6201   44.0095   65.4474 H   0  0  0  0  0  0
   10.1258   42.5691   64.6071 H   0  0  0  0  0  0
    8.8186   43.7872   67.7693 H   0  0  0  0  0  0
    7.7208   40.2308   70.3399 H   0  0  0  0  0  0
    8.3495   38.9490   72.1946 H   0  0  0  0  0  0
    9.8711   37.7270   73.7512 H   0  0  0  0  0  0
    9.0011   34.1279   71.5817 H   0  0  0  0  0  0
   10.7741   33.1004   72.7211 H   0  0  0  0  0  0
   12.4210   32.7714   74.7668 H   0  0  0  0  0  0
   10.6360   36.3504   75.3507 H   0  0  0  0  0  0
    8.0791   36.7906   67.9292 H   0  0  0  0  0  0
    9.3192   38.1622   66.2050 H   0  0  0  0  0  0
   10.3466   40.4102   65.6231 H   0  0  0  0  0  0
   12.3159   41.5678   65.5426 H   0  0  0  0  0  0
   12.5798   42.2099   67.1169 H   0  0  0  0  0  0
   17.9644   42.9529   66.0994 H   0  0  0  0  0  0
   16.5020   43.1386   67.0245 H   0  0  0  0  0  0
   16.6046   44.5096   64.5907 H   0  0  0  0  0  0
  1  2  1  0  0  0
  1 35  1  0  0  0
  1 36  1  0  0  0
  1 37  1  0  0  0
  2  3  1  0  0  0
  2 31  1  0  0  0
  3  4  1  0  0  0
  3 30  1  0  0  0
  3 38  1  0  0  0
  4  5  1  0  0  0
  4 39  1  0  0  0
  4 40  1  0  0  0
  5  6  1  0  0  0
  5 41  1  0  0  0
  5 42  1  0  0  0
  6  7  1  0  0  0
  6 30  1  0  0  0
  7  8  1  0  0  0
  7 43  1  0  0  0
  7 44  1  0  0  0
  8  9  2  0  0  0
  8 29  1  0  0  0
  9 10  1  0  0  0
  9 45  1  0  0  0
 10 11  2  0  0  0
 11 12  1  0  0  0
 11 28  1  0  0  0
 12 13  2  0  0  0
 12 46  1  0  0  0
 13 14  1  0  0  0
 13 26  1  0  0  0
 14 15  1  0  0  0
 15 16  2  0  0  0
 15 20  1  0  0  0
 16 17  1  0  0  0
 16 47  1  0  0  0
 17 18  2  0  0  0
 17 48  1  0  0  0
 18 19  1  0  0  0
 18 21  1  0  0  0
 19 20  2  0  0  0
 19 49  1  0  0  0
 21 22  2  0  0  0
 21 25  1  0  0  0
 22 23  1  0  0  0
 22 50  1  0  0  0
 23 24  2  0  0  0
 23 51  1  0  0  0
 24 25  1  0  0  0
 25 52  1  0  0  0
 26 27  2  0  0  0
 26 53  1  0  0  0
 27 28  1  0  0  0
 27 54  1  0  0  0
 28 29  2  0  0  0
 29 55  1  0  0  0
 30 56  1  0  0  0
 30 57  1  0  0  0
 31 32  2  0  0  0
 31 33  1  0  0  0
 33 34  1  0  0  0
 33 58  1  0  0  0
 33 59  1  0  0  0
 34 60  1  0  0  0
M  END
> <s_m_entry_id>
6645

> <s_m_entry_name>
dock_pv.75

> <s_m_Source_Path>
/home/csk/Desktop/cluster/DUD-E-result/lkha4

> <s_m_Source_File>
dock_pv.maegz

> <i_m_Source_File_Index>
75

> <chembl_id>
CHEMBL3914143

> <chembl_pref_name>
None

> <i_lp_mmshare_version>
53161

> <i_f3d_flags>
0

> <r_lp_tautomer_probability>
0.5

> <s_lp_Force_Field>
OPLS_2005

> <r_lp_Energy>
50.204318

> <b_lp_Chiralities_Consistent>
1

> <s_lp_Variant>
CHEMBL4618_lig472-1

> <s_i_glide_gridfile>
glide-grid_3chp

> <i_i_glide_lignum>
559

> <i_i_glide_rotatable_bonds>
9

> <r_i_docking_score>
-10.3131599212706

> <r_i_glide_ligand_efficiency>
-0.303328232978548

> <r_i_glide_ligand_efficiency_sa>
-0.982665722062871

> <r_i_glide_ligand_efficiency_ln>
-2.2784663009461

> <r_i_glide_gscore>
-10.3131599212706

> <r_i_glide_lipo>
-6.27334391541697

> <r_i_glide_hbond>
0

> <r_i_glide_metal>
0

> <r_i_glide_rewards>
-1.18236824381571

> <r_i_glide_evdw>
-41.0401229858398

> <r_i_glide_ecoul>
-9.13875389099121

> <r_i_glide_erotb>
0.765371470902741

> <r_i_glide_esite>
-0.2

> <r_i_glide_emodel>
-60.8270224719627

> <r_i_glide_energy>
-50.1788768768311

> <r_i_glide_einternal>
19.9046859741211

> <i_i_glide_confnum>
6

> <i_i_glide_posenum>
51

> <r_i_glide_eff_state_penalty>
0

> <s_user_duplicate_titles>
CHEMBL4618_lig472,CHEMBL4618_lig472

> <s_m_subgroup_title>
dock_pv

> <s_m_subgroupid>
dock_pv

> <b_m_subgroup_collapsed>
1

$$$$
CHEMBL4618_lig438
                    3D
 Schrodinger Suite 2021-1.
 50 55  0  0  1  0            999 V2000
    8.4962   39.6154   69.6374 C   0  0  0  0  0  0
    8.0572   38.3090   69.3834 C   0  0  0  0  0  0
    8.0689   37.8159   68.0838 C   0  0  0  0  0  0
    8.5522   38.5709   67.0140 C   0  0  0  0  0  0
    7.5290   37.5107   70.3729 O   0  0  0  0  0  0
    8.6816   35.5717   71.1406 N   0  0  0  0  0  0
    8.3726   36.8319   71.2131 C   0  0  0  0  0  0
    9.0017   37.6938   72.5686 S   0  0  0  0  0  0
    9.7564   36.2109   73.1211 C   0  0  0  0  0  0
    9.5051   35.2027   72.1597 C   0  0  0  0  0  0
   10.5208   35.9392   74.2670 C   0  0  0  0  0  0
   11.0479   34.6480   74.3668 C   0  0  0  0  0  0
   10.8792   33.6807   73.4321 N   0  0  0  0  0  0
   10.1192   33.9522   72.3403 C   0  0  0  0  0  0
    9.3208   41.7801   68.3400 C   0  0  0  0  0  0
    8.9183   40.4231   68.5624 C   0  0  0  0  0  0
    9.0118   39.8406   67.2956 C   0  0  0  0  0  0
    9.6577   40.6453   66.4175 O   0  0  0  0  0  0
    9.8717   41.8123   67.0670 C   0  0  0  0  0  0
   10.6564   42.8247   66.2846 C   0  0  0  0  0  0
   12.1109   42.5837   66.3399 N   0  0  1  0  0  0
   12.6208   41.4527   65.5402 C   0  0  0  0  0  0
   13.5140   42.1028   64.4312 C   0  0  2  0  0  0
   14.7144   42.6065   65.1320 N   0  0  0  0  0  0
   14.2794   43.6436   66.0725 C   0  0  0  0  0  0
   12.7911   43.6954   65.6847 C   0  0  1  0  0  0
   16.0082   42.3484   64.8576 C   0  0  0  0  0  0
   16.9214   42.6902   65.6063 O   0  0  0  0  0  0
   16.3525   41.5797   63.5924 C   0  0  0  0  0  0
   12.8036   43.4138   64.1883 C   0  0  0  0  0  0
    8.5198   39.9764   70.6475 H   0  0  0  0  0  0
    7.7220   36.8097   67.9405 H   0  0  0  0  0  0
    8.6391   38.2159   66.0066 H   0  0  0  0  0  0
   10.6967   36.6883   75.0261 H   0  0  0  0  0  0
   11.6409   34.3653   75.2258 H   0  0  0  0  0  0
    9.9686   33.1445   71.6402 H   0  0  0  0  0  0
    9.3212   42.5999   69.0424 H   0  0  0  0  0  0
   10.4394   43.8066   66.7069 H   0  0  0  0  0  0
   10.2954   42.8587   65.2565 H   0  0  0  0  0  0
   11.7901   40.8811   65.1402 H   0  0  0  0  0  0
   13.1908   40.7415   66.1399 H   0  0  0  0  0  0
   13.7208   41.4759   63.5622 H   0  0  0  0  0  0
   14.7760   44.5698   65.7841 H   0  0  0  0  0  0
   14.4552   43.4517   67.1304 H   0  0  0  0  0  0
   12.3097   44.6162   65.9402 H   0  0  0  0  0  0
   16.1189   42.2166   62.7387 H   0  0  0  0  0  0
   17.4228   41.3987   63.5290 H   0  0  0  0  0  0
   15.7754   40.6591   63.5109 H   0  0  0  0  0  0
   13.3762   44.1336   63.5984 H   0  0  0  0  0  0
   11.8156   43.3101   63.7437 H   0  0  0  0  0  0
  1 16  2  0  0  0
  1  2  1  0  0  0
  1 31  1  0  0  0
  2  3  2  0  0  0
  2  5  1  0  0  0
  3  4  1  0  0  0
  3 32  1  0  0  0
  4 17  2  0  0  0
  4 33  1  0  0  0
  5  7  1  0  0  0
  6  7  2  0  0  0
  6 10  1  0  0  0
  7  8  1  0  0  0
  8  9  1  0  0  0
  9 10  1  0  0  0
  9 11  2  0  0  0
 10 14  2  0  0  0
 11 12  1  0  0  0
 11 34  1  0  0  0
 12 13  2  0  0  0
 12 35  1  0  0  0
 13 14  1  0  0  0
 14 36  1  0  0  0
 15 16  1  0  0  0
 15 19  2  0  0  0
 15 37  1  0  0  0
 16 17  1  0  0  0
 17 18  1  0  0  0
 18 19  1  0  0  0
 19 20  1  0  0  0
 20 21  1  0  0  0
 20 38  1  0  0  0
 20 39  1  0  0  0
 21 22  1  0  0  0
 21 26  1  0  0  0
 22 23  1  0  0  0
 22 40  1  0  0  0
 22 41  1  0  0  0
 23 24  1  0  0  0
 23 30  1  0  0  0
 23 42  1  0  0  0
 24 25  1  0  0  0
 24 27  1  0  0  0
 25 26  1  0  0  0
 25 43  1  0  0  0
 25 44  1  0  0  0
 26 30  1  0  0  0
 26 45  1  0  0  0
 27 28  2  0  0  0
 27 29  1  0  0  0
 29 46  1  0  0  0
 29 47  1  0  0  0
 29 48  1  0  0  0
 30 49  1  0  0  0
 30 50  1  0  0  0
M  END
> <s_m_entry_id>
6646

> <s_m_entry_name>
dock_pv.76

> <s_m_Source_Path>
/home/csk/Desktop/cluster/DUD-E-result/lkha4

> <s_m_Source_File>
dock_pv.maegz

> <i_m_Source_File_Index>
76

> <chembl_id>
CHEMBL2313267

> <chembl_pref_name>
None

> <i_lp_mmshare_version>
53161

> <i_f3d_flags>
0

> <r_lp_tautomer_probability>
1

> <s_lp_Force_Field>
OPLS_2005

> <r_lp_Energy>
81.164287

> <b_lp_Chiralities_Consistent>
1

> <s_lp_Variant>
CHEMBL4618_lig438-1

> <s_i_glide_gridfile>
glide-grid_3chp

> <i_i_glide_lignum>
512

> <i_i_glide_rotatable_bonds>
5

> <r_i_docking_score>
-10.3050202693817

> <r_i_glide_ligand_efficiency>
-0.343500675646058

> <r_i_glide_ligand_efficiency_sa>
-1.06733646397447

> <r_i_glide_ligand_efficiency_ln>
-2.34141288739246

> <r_i_glide_gscore>
-10.3050202693817

> <r_i_glide_lipo>
-5.94321004037854

> <r_i_glide_hbond>
-0.223406737945489

> <r_i_glide_metal>
0

> <r_i_glide_rewards>
-1.39749138088762

> <r_i_glide_evdw>
-50.9094886779785

> <r_i_glide_ecoul>
-3.10593104362488

> <r_i_glide_erotb>
0.447782355423934

> <r_i_glide_esite>
-0.177330375151376

> <r_i_glide_emodel>
-75.134562732609

> <r_i_glide_energy>
-54.0154197216034

> <r_i_glide_einternal>
13.0275926589966

> <i_i_glide_confnum>
1

> <i_i_glide_posenum>
244

> <r_i_glide_eff_state_penalty>
0

> <s_user_duplicate_titles>
CHEMBL4618_lig438

> <s_m_subgroup_title>
dock_pv

> <s_m_subgroupid>
dock_pv

> <b_m_subgroup_collapsed>
1

$$$$
CHEMBL4618_lig319
                    3D
 Schrodinger Suite 2021-1.
 65 69  0  0  1  0            999 V2000
    9.3363   36.2210   72.4233 C   0  0  0  0  0  0
    8.6915   35.5783   71.3709 C   0  0  0  0  0  0
    8.0721   36.3161   70.3682 C   0  0  0  0  0  0
    8.0137   37.6987   70.4386 C   0  0  0  0  0  0
    8.6043   38.3504   71.5205 C   0  0  0  0  0  0
    9.2811   37.6140   72.4959 C   0  0  0  0  0  0
    7.3211   38.3677   69.4560 O   0  0  0  0  0  0
    7.9600   39.3490   68.7404 C   0  0  0  0  0  0
    7.5996   40.6826   68.9055 C   0  0  0  0  0  0
    8.2587   41.6981   68.2359 C   0  0  0  0  0  0
    9.2600   41.3736   67.3345 C   0  0  0  0  0  0
    9.5507   40.0252   67.0780 C   0  0  0  0  0  0
    8.9209   39.0164   67.7957 C   0  0  0  0  0  0
    9.9211   42.4440   66.7204 N   0  0  0  0  0  0
   10.1242   35.4069   73.3994 C   0  0  0  0  0  0
   10.5386   35.9779   74.5628 O   0  0  0  0  0  0
   11.3010   35.0159   75.1399 C   0  0  0  0  0  0
   11.3210   33.9383   74.2790 C   0  0  0  0  0  0
   10.5487   34.1709   73.2325 N   0  0  0  0  0  0
   10.9764   42.2287   65.7472 C   0  0  2  0  0  0
   14.2748   42.4570   65.1133 N   0  0  1  0  0  0
   15.6614   42.1830   64.7400 C   0  0  0  0  0  0
   16.7104   42.9527   65.5525 C   0  0  0  0  0  0
   16.3958   43.7414   66.6663 C   0  0  0  0  0  0
   17.4090   44.2865   67.4513 C   0  0  0  0  0  0
   18.7561   44.0637   67.1301 C   0  0  0  0  0  0
   19.0642   43.3322   65.9767 C   0  0  0  0  0  0
   18.0470   42.7810   65.2113 C   0  0  0  0  0  0
   19.8430   44.6161   68.0170 C   0  0  0  0  0  0
   21.1011   44.1645   67.7507 O   0  0  0  0  0  0
   19.6069   45.4160   68.9191 O   0  0  0  0  0  0
   13.7210   43.6118   64.4344 C   0  0  0  0  0  0
   12.4201   44.2160   64.9332 C   0  0  0  0  0  0
   13.3823   41.3342   65.3390 C   0  0  0  0  0  0
   12.2740   41.6773   66.3400 C   0  0  0  0  0  0
   11.1310   43.4160   64.7939 C   0  0  0  0  0  0
    8.7022   34.5009   71.2953 H   0  0  0  0  0  0
    7.6015   35.8160   69.5400 H   0  0  0  0  0  0
    8.5322   39.4246   71.5949 H   0  0  0  0  0  0
    9.7722   38.1290   73.3062 H   0  0  0  0  0  0
    6.7837   40.9457   69.5400 H   0  0  0  0  0  0
    7.9690   42.7260   68.4074 H   0  0  0  0  0  0
   10.2781   39.7252   66.3414 H   0  0  0  0  0  0
    9.1747   37.9816   67.6193 H   0  0  0  0  0  0
    9.8488   43.3558   67.1513 H   0  0  0  0  0  0
   11.7463   35.2311   76.0982 H   0  0  0  0  0  0
   11.8314   32.9984   74.4296 H   0  0  0  0  0  0
   10.5916   41.4229   65.1400 H   0  0  0  0  0  0
   15.8103   42.3269   63.6661 H   0  0  0  0  0  0
   15.8608   41.1302   64.9282 H   0  0  0  0  0  0
   15.3667   43.8952   66.9583 H   0  0  0  0  0  0
   17.1307   44.8524   68.3302 H   0  0  0  0  0  0
   20.0792   43.1621   65.6472 H   0  0  0  0  0  0
   18.3184   42.2157   64.3400 H   0  0  0  0  0  0
   21.0954   43.4735   67.0870 H   0  0  0  0  0  0
   14.4609   44.3921   64.5817 H   0  0  0  0  0  0
   13.6656   43.4143   63.3618 H   0  0  0  0  0  0
   12.5321   44.6150   65.9397 H   0  0  0  0  0  0
   12.2906   45.1113   64.3375 H   0  0  0  0  0  0
   13.0060   40.9610   64.3872 H   0  0  0  0  0  0
   13.9424   40.5204   65.7938 H   0  0  0  0  0  0
   12.0608   40.8117   66.9508 H   0  0  0  0  0  0
   12.6384   42.4346   67.0371 H   0  0  0  0  0  0
   10.2915   44.0999   64.9275 H   0  0  0  0  0  0
   11.0483   43.0763   63.7653 H   0  0  0  0  0  0
  1 15  1  0  0  0
  1  6  1  0  0  0
  1  2  2  0  0  0
  2  3  1  0  0  0
  2 37  1  0  0  0
  3  4  2  0  0  0
  3 38  1  0  0  0
  4  5  1  0  0  0
  4  7  1  0  0  0
  5  6  2  0  0  0
  5 39  1  0  0  0
  6 40  1  0  0  0
  7  8  1  0  0  0
  8 13  1  0  0  0
  8  9  2  0  0  0
  9 10  1  0  0  0
  9 41  1  0  0  0
 10 11  2  0  0  0
 10 42  1  0  0  0
 11 12  1  0  0  0
 11 14  1  0  0  0
 12 13  2  0  0  0
 12 43  1  0  0  0
 13 44  1  0  0  0
 14 20  1  0  0  0
 14 45  1  0  0  0
 15 19  2  0  0  0
 15 16  1  0  0  0
 16 17  1  0  0  0
 17 18  2  0  0  0
 17 46  1  0  0  0
 18 19  1  0  0  0
 18 47  1  0  0  0
 20 35  1  0  0  0
 20 36  1  0  0  0
 20 48  1  0  0  0
 21 22  1  0  0  0
 21 32  1  0  0  0
 21 34  1  0  0  0
 22 23  1  0  0  0
 22 49  1  0  0  0
 22 50  1  0  0  0
 23 24  2  0  0  0
 23 28  1  0  0  0
 24 25  1  0  0  0
 24 51  1  0  0  0
 25 26  2  0  0  0
 25 52  1  0  0  0
 26 27  1  0  0  0
 26 29  1  0  0  0
 27 28  2  0  0  0
 27 53  1  0  0  0
 28 54  1  0  0  0
 29 30  1  0  0  0
 29 31  2  0  0  0
 30 55  1  0  0  0
 32 33  1  0  0  0
 32 56  1  0  0  0
 32 57  1  0  0  0
 33 36  1  0  0  0
 33 58  1  0  0  0
 33 59  1  0  0  0
 34 35  1  0  0  0
 34 60  1  0  0  0
 34 61  1  0  0  0
 35 62  1  0  0  0
 35 63  1  0  0  0
 36 64  1  0  0  0
 36 65  1  0  0  0
M  END
> <s_m_entry_id>
6647

> <s_m_entry_name>
dock_pv.77

> <s_m_Source_Path>
/home/csk/Desktop/cluster/DUD-E-result/lkha4

> <s_m_Source_File>
dock_pv.maegz

> <i_m_Source_File_Index>
77

> <chembl_id>
CHEMBL517694

> <chembl_pref_name>
None

> <i_lp_mmshare_version>
53161

> <i_f3d_flags>
0

> <r_lp_tautomer_probability>
1

> <s_lp_Force_Field>
OPLS_2005

> <r_lp_Energy>
43.265678

> <b_lp_Chiralities_Consistent>
1

> <s_lp_Variant>
CHEMBL4618_lig319-1

> <s_i_glide_gridfile>
glide-grid_3chp

> <i_i_glide_lignum>
357

> <i_i_glide_rotatable_bonds>
9

> <r_i_docking_score>
-10.2987317133605

> <r_i_glide_ligand_efficiency>
-0.286075880926679

> <r_i_glide_ligand_efficiency_sa>
-0.944601745355004

> <r_i_glide_ligand_efficiency_ln>
-2.2469050202789

> <r_i_glide_gscore>
-10.2987317133605

> <r_i_glide_lipo>
-5.74116838655473

> <r_i_glide_hbond>
-0.159140942041522

> <r_i_glide_metal>
0

> <r_i_glide_rewards>
-0.912102772722547

> <r_i_glide_evdw>
-54.4659614562988

> <r_i_glide_ecoul>
-9.32666778564453

> <r_i_glide_erotb>
0.694581232418067

> <r_i_glide_esite>
-0.0586026037980999

> <r_i_glide_emodel>
-86.1217964727539

> <r_i_glide_energy>
-63.7926292419434

> <r_i_glide_einternal>
11.7628812789917

> <i_i_glide_confnum>
31

> <i_i_glide_posenum>
75

> <r_i_glide_eff_state_penalty>
0

> <s_user_duplicate_titles>
CHEMBL4618_lig319,467400

> <s_m_subgroup_title>
dock_pv

> <s_m_subgroupid>
dock_pv

> <b_m_subgroup_collapsed>
1

$$$$
CHEMBL4618_lig25
                    3D
 Schrodinger Suite 2021-1.
 51 53  0  0  1  0            999 V2000
   11.3676   43.0166   65.9111 N   0  0  2  0  0  0
   11.8656   43.7997   64.7709 C   0  0  0  0  0  0
   11.9269   41.6593   65.9614 C   0  0  0  0  0  0
    8.0748   38.0435   69.6085 C   0  0  0  0  0  0
    7.6349   37.0004   70.6355 C   0  0  0  0  0  0
    8.7066   40.0273   67.7154 C   0  0  0  0  0  0
    8.1851   37.7220   68.2581 C   0  0  0  0  0  0
    8.2427   39.3660   69.9920 C   0  0  0  0  0  0
    8.5208   40.3555   69.0629 C   0  0  0  0  0  0
    8.5211   38.7015   67.3201 C   0  0  0  0  0  0
    8.6588   36.5204   71.6708 C   0  0  0  0  0  0
   13.4603   41.7095   65.9248 C   0  0  0  0  0  0
   13.4035   43.8466   64.7137 C   0  0  0  0  0  0
    9.0632   40.9476   66.7457 O   0  0  0  0  0  0
    9.9016   43.0950   65.9874 C   0  0  0  0  0  0
   14.0273   42.4421   64.6988 C   0  0  0  0  0  0
    9.2609   42.3115   67.1399 C   0  0  0  0  0  0
   16.1190   41.4064   63.9401 O   0  0  0  0  0  0
   15.5787   42.4704   64.7081 C   0  0  0  0  0  0
    8.9718   35.1617   71.7852 C   0  0  0  0  0  0
    9.2343   37.4162   72.5708 C   0  0  0  0  0  0
    9.8767   34.7110   72.7423 C   0  0  0  0  0  0
   10.1273   36.9694   73.5398 C   0  0  0  0  0  0
   10.4420   35.6175   73.6297 C   0  0  0  0  0  0
   11.4523   43.4125   63.8397 H   0  0  0  0  0  0
   11.4987   44.8141   64.8691 H   0  0  0  0  0  0
   11.5425   41.0658   65.1400 H   0  0  0  0  0  0
   11.6099   41.1550   66.8743 H   0  0  0  0  0  0
    6.7811   37.4156   71.1740 H   0  0  0  0  0  0
    7.2580   36.1366   70.0896 H   0  0  0  0  0  0
    8.0352   36.7014   67.9444 H   0  0  0  0  0  0
    8.1210   39.6435   71.0236 H   0  0  0  0  0  0
    8.6045   41.3689   69.4211 H   0  0  0  0  0  0
    8.6458   38.4319   66.2816 H   0  0  0  0  0  0
   13.8583   40.6949   65.9406 H   0  0  0  0  0  0
   13.8018   42.2151   66.8314 H   0  0  0  0  0  0
   13.7781   44.4312   65.5525 H   0  0  0  0  0  0
   13.7203   44.4034   63.8338 H   0  0  0  0  0  0
    9.6027   44.1413   66.0741 H   0  0  0  0  0  0
    9.4691   42.7225   65.0699 H   0  0  0  0  0  0
   13.6626   41.9415   63.7975 H   0  0  0  0  0  0
    9.8994   42.4031   68.0206 H   0  0  0  0  0  0
    8.2915   42.7494   67.3864 H   0  0  0  0  0  0
   15.8492   41.5476   63.0144 H   0  0  0  0  0  0
   15.9653   42.4078   65.7248 H   0  0  0  0  0  0
   15.9695   43.4159   64.3397 H   0  0  0  0  0  0
    8.5213   34.4307   71.1399 H   0  0  0  0  0  0
    8.9758   38.4614   72.5479 H   0  0  0  0  0  0
   10.1180   33.6603   72.8155 H   0  0  0  0  0  0
   10.5706   37.6678   74.2331 H   0  0  0  0  0  0
   11.1267   35.2693   74.3897 H   0  0  0  0  0  0
  1  2  1  0  0  0
  1  3  1  0  0  0
  1 15  1  0  0  0
  2 13  1  0  0  0
  2 25  1  0  0  0
  2 26  1  0  0  0
  3 12  1  0  0  0
  3 27  1  0  0  0
  3 28  1  0  0  0
  4  7  2  0  0  0
  4  5  1  0  0  0
  4  8  1  0  0  0
  5 11  1  0  0  0
  5 29  1  0  0  0
  5 30  1  0  0  0
  6 14  1  0  0  0
  6  9  1  0  0  0
  6 10  2  0  0  0
  7 10  1  0  0  0
  7 31  1  0  0  0
  8  9  2  0  0  0
  8 32  1  0  0  0
  9 33  1  0  0  0
 10 34  1  0  0  0
 11 20  2  0  0  0
 11 21  1  0  0  0
 12 16  1  0  0  0
 12 35  1  0  0  0
 12 36  1  0  0  0
 13 16  1  0  0  0
 13 37  1  0  0  0
 13 38  1  0  0  0
 14 17  1  0  0  0
 15 17  1  0  0  0
 15 39  1  0  0  0
 15 40  1  0  0  0
 16 19  1  0  0  0
 16 41  1  0  0  0
 17 42  1  0  0  0
 17 43  1  0  0  0
 18 19  1  0  0  0
 18 44  1  0  0  0
 19 45  1  0  0  0
 19 46  1  0  0  0
 20 22  1  0  0  0
 20 47  1  0  0  0
 21 23  2  0  0  0
 21 48  1  0  0  0
 22 24  2  0  0  0
 22 49  1  0  0  0
 23 24  1  0  0  0
 23 50  1  0  0  0
 24 51  1  0  0  0
M  END
> <s_m_entry_id>
6648

> <s_m_entry_name>
dock_pv.78

> <s_m_Source_Path>
/home/csk/Desktop/cluster/DUD-E-result/lkha4

> <s_m_Source_File>
dock_pv.maegz

> <i_m_Source_File_Index>
78

> <chembl_id>
CHEMBL114494

> <chembl_pref_name>
None

> <i_lp_mmshare_version>
53161

> <i_f3d_flags>
0

> <r_lp_tautomer_probability>
1

> <s_lp_Force_Field>
OPLS_2005

> <r_lp_Energy>
30.572515

> <b_lp_Chiralities_Consistent>
1

> <s_lp_Variant>
CHEMBL4618_lig25-1

> <s_i_glide_gridfile>
glide-grid_3chp

> <i_i_glide_lignum>
35

> <i_i_glide_rotatable_bonds>
8

> <r_i_docking_score>
-10.268116166735

> <r_i_glide_ligand_efficiency>
-0.427838173613959

> <r_i_glide_ligand_efficiency_sa>
-1.23409884280433

> <r_i_glide_ligand_efficiency_ln>
-2.45763137184853

> <r_i_glide_gscore>
-10.268116166735

> <r_i_glide_lipo>
-5.8590703447817

> <r_i_glide_hbond>
-0.129326180361982

> <r_i_glide_metal>
0

> <r_i_glide_rewards>
-2.09015058956021

> <r_i_glide_evdw>
-41.6762924194336

> <r_i_glide_ecoul>
-8.96261024475098

> <r_i_glide_erotb>
1.2386371056532

> <r_i_glide_esite>
0

> <r_i_glide_emodel>
-79.1556555071863

> <r_i_glide_energy>
-50.6389026641846

> <r_i_glide_einternal>
6.37311124801636

> <i_i_glide_confnum>
216

> <i_i_glide_posenum>
258

> <r_i_glide_eff_state_penalty>
0

> <s_user_duplicate_titles>
CHEMBL4618_lig25,188986

> <s_m_subgroup_title>
dock_pv

> <s_m_subgroupid>
dock_pv

> <b_m_subgroup_collapsed>
1

$$$$
CHEMBL4618_lig443
                    3D
 Schrodinger Suite 2021-1.
 57 62  0  0  1  0            999 V2000
    7.8714   37.0288   69.4086 O   0  0  0  0  0  0
    9.2691   37.9827   71.5723 S   0  0  0  0  0  0
    8.4518   36.7467   70.6362 C   0  0  0  0  0  0
    8.5239   35.5484   71.1380 N   0  0  0  0  0  0
    9.3679   35.4962   72.2026 C   0  0  0  0  0  0
    9.7697   36.7499   72.7174 C   0  0  0  0  0  0
    9.8924   34.3250   72.7637 C   0  0  0  0  0  0
   10.6569   34.4221   73.9270 C   0  0  0  0  0  0
   10.9164   35.6555   74.5174 C   0  0  0  0  0  0
   10.5200   36.8444   73.9028 C   0  0  0  0  0  0
    9.0985   39.4098   66.8610 C   0  0  0  0  0  0
    8.6890   38.2324   67.5029 C   0  0  0  0  0  0
    8.0803   38.2294   68.7534 C   0  0  0  0  0  0
    7.7224   39.4380   69.3294 C   0  0  0  0  0  0
    9.1112   42.0233   67.1791 C   0  0  0  0  0  0
    8.8393   40.6394   67.4705 C   0  0  0  0  0  0
    8.1219   40.6180   68.6913 C   0  0  0  0  0  0
    7.8934   41.8753   69.1368 O   0  0  0  0  0  0
    8.4513   42.6933   68.2060 C   0  0  0  0  0  0
    9.8155   42.6858   65.9932 C   0  0  0  0  0  0
   11.1313   42.1621   65.5401 N   0  0  2  0  0  0
   12.0998   41.7119   66.5256 C   0  0  1  0  0  0
   13.1345   40.8393   65.7449 C   0  0  0  0  0  0
   14.0404   41.5914   64.7154 C   0  0  1  0  0  0
   13.1374   42.5606   63.9332 C   0  0  0  0  0  0
   11.9265   43.1364   64.7571 C   0  0  2  0  0  0
   15.1234   42.4095   65.2797 N   0  0  0  0  0  0
   16.4280   42.3385   64.9940 C   0  0  0  0  0  0
   16.9197   41.4160   64.3556 O   0  0  0  0  0  0
   17.3188   43.4458   65.5387 C   0  0  0  0  0  0
   12.5087   43.9611   65.8829 C   0  0  0  0  0  0
   12.6842   43.0157   67.0638 C   0  0  0  0  0  0
   11.2973   43.7349   64.0986 H   0  0  0  0  0  0
   11.6187   41.1079   67.2937 H   0  0  0  0  0  0
    9.6919   33.3608   72.3250 H   0  0  0  0  0  0
   11.0372   33.5219   74.3902 H   0  0  0  0  0  0
   11.4790   35.6883   75.4407 H   0  0  0  0  0  0
   10.8013   37.8050   74.3135 H   0  0  0  0  0  0
    9.6498   39.3631   65.9368 H   0  0  0  0  0  0
    8.9210   37.2856   67.0499 H   0  0  0  0  0  0
    7.2108   39.4174   70.2757 H   0  0  0  0  0  0
    8.2771   43.7436   68.3933 H   0  0  0  0  0  0
    9.8635   43.7550   66.1895 H   0  0  0  0  0  0
    9.1408   42.6421   65.1409 H   0  0  0  0  0  0
   12.5888   40.0673   65.1981 H   0  0  0  0  0  0
   13.7210   40.2544   66.4331 H   0  0  0  0  0  0
   14.4605   40.8737   64.0039 H   0  0  0  0  0  0
   13.7195   43.3969   63.5376 H   0  0  0  0  0  0
   12.9214   42.0602   63.0017 H   0  0  0  0  0  0
   14.8048   43.2011   65.8174 H   0  0  0  0  0  0
   16.7314   44.2801   65.9190 H   0  0  0  0  0  0
   17.9606   43.8200   64.7394 H   0  0  0  0  0  0
   17.9511   43.0642   66.3393 H   0  0  0  0  0  0
   13.3903   44.5398   65.6037 H   0  0  0  0  0  0
   11.7207   44.6164   66.1603 H   0  0  0  0  0  0
   13.7200   42.9120   67.3628 H   0  0  0  0  0  0
   12.1187   43.3921   67.9192 H   0  0  0  0  0  0
  1  3  1  0  0  0
  1 13  1  0  0  0
  2  3  1  0  0  0
  2  6  1  0  0  0
  3  4  2  0  0  0
  4  5  1  0  0  0
  5  6  1  0  0  0
  5  7  2  0  0  0
  6 10  2  0  0  0
  7  8  1  0  0  0
  7 35  1  0  0  0
  8  9  2  0  0  0
  8 36  1  0  0  0
  9 10  1  0  0  0
  9 37  1  0  0  0
 10 38  1  0  0  0
 11 16  2  0  0  0
 11 12  1  0  0  0
 11 39  1  0  0  0
 12 13  2  0  0  0
 12 40  1  0  0  0
 13 14  1  0  0  0
 14 17  2  0  0  0
 14 41  1  0  0  0
 15 16  1  0  0  0
 15 19  2  0  0  0
 15 20  1  0  0  0
 16 17  1  0  0  0
 17 18  1  0  0  0
 18 19  1  0  0  0
 19 42  1  0  0  0
 20 21  1  0  0  0
 20 43  1  0  0  0
 20 44  1  0  0  0
 21 22  1  0  0  0
 21 26  1  0  0  0
 22 23  1  0  0  0
 22 32  1  0  0  0
 22 34  1  0  0  0
 23 24  1  0  0  0
 23 45  1  0  0  0
 23 46  1  0  0  0
 24 25  1  0  0  0
 24 27  1  0  0  0
 24 47  1  0  0  0
 25 26  1  0  0  0
 25 48  1  0  0  0
 25 49  1  0  0  0
 26 31  1  0  0  0
 26 33  1  0  0  0
 27 28  1  0  0  0
 27 50  1  0  0  0
 28 29  2  0  0  0
 28 30  1  0  0  0
 30 51  1  0  0  0
 30 52  1  0  0  0
 30 53  1  0  0  0
 31 32  1  0  0  0
 31 54  1  0  0  0
 31 55  1  0  0  0
 32 56  1  0  0  0
 32 57  1  0  0  0
M  END
> <s_m_entry_id>
6649

> <s_m_entry_name>
dock_pv.79

> <s_m_Source_Path>
/home/csk/Desktop/cluster/DUD-E-result/lkha4

> <s_m_Source_File>
dock_pv.maegz

> <i_m_Source_File_Index>
79

> <chembl_id>
CHEMBL2313572

> <chembl_pref_name>
None

> <i_lp_mmshare_version>
53161

> <i_f3d_flags>
0

> <r_lp_tautomer_probability>
1

> <s_lp_Force_Field>
OPLS_2005

> <r_lp_Energy>
47.792358

> <b_lp_Chiralities_Consistent>
1

> <s_lp_Variant>
CHEMBL4618_lig443-1

> <s_i_glide_gridfile>
glide-grid_3chp

> <i_i_glide_lignum>
519

> <i_i_glide_rotatable_bonds>
6

> <r_i_docking_score>
-10.2630672133568

> <r_i_glide_ligand_efficiency>
-0.320720850417398

> <r_i_glide_ligand_efficiency_sa>
-1.01822522950513

> <r_i_glide_ligand_efficiency_ln>
-2.29818050971677

> <r_i_glide_gscore>
-10.2630672133568

> <r_i_glide_lipo>
-6.21058168940529

> <r_i_glide_hbond>
0

> <r_i_glide_metal>
0

> <r_i_glide_rewards>
-1.24892657470362

> <r_i_glide_evdw>
-39.0492210388184

> <r_i_glide_ecoul>
-7.67322015762329

> <r_i_glide_erotb>
0.499885126336573

> <r_i_glide_esite>
-0.2

> <r_i_glide_emodel>
-37.4115595162961

> <r_i_glide_energy>
-46.7224411964417

> <r_i_glide_einternal>
21.1004314422607

> <i_i_glide_confnum>
13

> <i_i_glide_posenum>
378

> <r_i_glide_eff_state_penalty>
0

> <s_user_duplicate_titles>
CHEMBL4618_lig443

> <s_m_subgroup_title>
dock_pv

> <s_m_subgroupid>
dock_pv

> <b_m_subgroup_collapsed>
1

$$$$
CHEMBL4618_lig437
                    3D
 Schrodinger Suite 2021-1.
 50 55  0  0  1  0            999 V2000
    8.2390   39.8782   69.4001 C   0  0  0  0  0  0
    7.8986   38.5410   69.2113 C   0  0  0  0  0  0
    8.1209   37.9315   67.9866 C   0  0  0  0  0  0
    8.7010   38.6324   66.9247 C   0  0  0  0  0  0
    7.3371   37.8178   70.2287 O   0  0  0  0  0  0
    8.4759   35.8160   70.8002 N   0  0  0  0  0  0
    8.1832   37.0596   70.9871 C   0  0  0  0  0  0
    8.9210   37.8160   72.3402 S   0  0  0  0  0  0
    9.6188   36.2846   72.7858 C   0  0  0  0  0  0
    9.2522   35.3310   71.8109 C   0  0  0  0  0  0
   10.3723   36.0444   73.8619 N   0  0  0  0  0  0
   10.8157   34.7642   73.9790 C   0  0  0  0  0  0
   10.5210   33.7442   73.0720 C   0  0  0  0  0  0
    9.7210   34.0149   71.9599 C   0  0  0  0  0  0
    9.2864   41.9467   68.1766 C   0  0  0  0  0  0
    8.8183   40.6107   68.3705 C   0  0  0  0  0  0
    9.0742   39.9475   67.1732 C   0  0  0  0  0  0
    9.7750   40.7402   66.3400 O   0  0  0  0  0  0
    9.9076   41.9471   66.9414 C   0  0  0  0  0  0
   10.6812   42.9616   66.1406 C   0  0  0  0  0  0
   12.1424   42.7740   66.1953 N   0  0  1  0  0  0
   12.6258   41.5175   65.5846 C   0  0  0  0  0  0
   13.4981   41.9642   64.3925 C   0  0  2  0  0  0
   14.7038   42.5634   64.9777 N   0  0  0  0  0  0
   14.3131   43.8008   65.6608 C   0  0  0  0  0  0
   12.8022   43.7785   65.3468 C   0  0  1  0  0  0
   15.9411   42.1027   64.7400 C   0  0  0  0  0  0
   16.1210   41.0160   64.1896 O   0  0  0  0  0  0
   17.1451   42.9037   65.2315 C   0  0  0  0  0  0
   12.7935   43.2215   63.9392 C   0  0  0  0  0  0
    8.1210   40.3352   70.3400 H   0  0  0  0  0  0
    7.8562   36.8908   67.9400 H   0  0  0  0  0  0
    8.9210   38.2160   65.9608 H   0  0  0  0  0  0
   11.4121   34.5505   74.8552 H   0  0  0  0  0  0
   10.8827   32.7445   73.2435 H   0  0  0  0  0  0
    9.4218   33.2201   71.2913 H   0  0  0  0  0  0
    9.2404   42.7807   68.8588 H   0  0  0  0  0  0
   10.4364   43.9514   66.5126 H   0  0  0  0  0  0
   10.3192   42.9447   65.1137 H   0  0  0  0  0  0
   11.8105   40.9061   65.2089 H   0  0  0  0  0  0
   13.1766   40.8872   66.2841 H   0  0  0  0  0  0
   13.7046   41.1995   63.6393 H   0  0  0  0  0  0
   14.8084   44.6160   65.1400 H   0  0  0  0  0  0
   14.5367   43.8499   66.7269 H   0  0  0  0  0  0
   12.3317   44.7479   65.4056 H   0  0  0  0  0  0
   16.9883   43.2907   66.2380 H   0  0  0  0  0  0
   18.0461   42.2893   65.2354 H   0  0  0  0  0  0
   17.3214   43.7432   64.5573 H   0  0  0  0  0  0
   13.3594   43.8137   63.2143 H   0  0  0  0  0  0
   11.7981   43.0507   63.5400 H   0  0  0  0  0  0
  1 16  2  0  0  0
  1  2  1  0  0  0
  1 31  1  0  0  0
  2  3  2  0  0  0
  2  5  1  0  0  0
  3  4  1  0  0  0
  3 32  1  0  0  0
  4 17  2  0  0  0
  4 33  1  0  0  0
  5  7  1  0  0  0
  6  7  2  0  0  0
  6 10  1  0  0  0
  7  8  1  0  0  0
  8  9  1  0  0  0
  9 10  1  0  0  0
  9 11  2  0  0  0
 10 14  2  0  0  0
 11 12  1  0  0  0
 12 13  2  0  0  0
 12 34  1  0  0  0
 13 14  1  0  0  0
 13 35  1  0  0  0
 14 36  1  0  0  0
 15 16  1  0  0  0
 15 19  2  0  0  0
 15 37  1  0  0  0
 16 17  1  0  0  0
 17 18  1  0  0  0
 18 19  1  0  0  0
 19 20  1  0  0  0
 20 21  1  0  0  0
 20 38  1  0  0  0
 20 39  1  0  0  0
 21 22  1  0  0  0
 21 26  1  0  0  0
 22 23  1  0  0  0
 22 40  1  0  0  0
 22 41  1  0  0  0
 23 24  1  0  0  0
 23 30  1  0  0  0
 23 42  1  0  0  0
 24 25  1  0  0  0
 24 27  1  0  0  0
 25 26  1  0  0  0
 25 43  1  0  0  0
 25 44  1  0  0  0
 26 30  1  0  0  0
 26 45  1  0  0  0
 27 28  2  0  0  0
 27 29  1  0  0  0
 29 46  1  0  0  0
 29 47  1  0  0  0
 29 48  1  0  0  0
 30 49  1  0  0  0
 30 50  1  0  0  0
M  END
> <s_m_entry_id>
6651

> <s_m_entry_name>
dock_pv.81

> <s_m_Source_Path>
/home/csk/Desktop/cluster/DUD-E-result/lkha4

> <s_m_Source_File>
dock_pv.maegz

> <i_m_Source_File_Index>
81

> <chembl_id>
CHEMBL2313268

> <chembl_pref_name>
None

> <i_lp_mmshare_version>
53161

> <i_f3d_flags>
0

> <r_lp_tautomer_probability>
1

> <s_lp_Force_Field>
OPLS_2005

> <r_lp_Energy>
82.58982

> <b_lp_Chiralities_Consistent>
1

> <s_lp_Variant>
CHEMBL4618_lig437-1

> <s_i_glide_gridfile>
glide-grid_3chp

> <i_i_glide_lignum>
510

> <i_i_glide_rotatable_bonds>
5

> <r_i_docking_score>
-10.2491190172497

> <r_i_glide_ligand_efficiency>
-0.341637300574989

> <r_i_glide_ligand_efficiency_sa>
-1.06154652438943

> <r_i_glide_ligand_efficiency_ln>
-2.32871151381513

> <r_i_glide_gscore>
-10.2491190172497

> <r_i_glide_lipo>
-5.8552512807682

> <r_i_glide_hbond>
0

> <r_i_glide_metal>
0

> <r_i_glide_rewards>
-1.43622806065928

> <r_i_glide_evdw>
-42.4986724853516

> <r_i_glide_ecoul>
-7.34443140029907

> <r_i_glide_erotb>
0.447782355423934

> <r_i_glide_esite>
-0.178823696933689

> <r_i_glide_emodel>
-68.9534823351846

> <r_i_glide_energy>
-49.8431038856506

> <r_i_glide_einternal>
9.97664356231689

> <i_i_glide_confnum>
4

> <i_i_glide_posenum>
78

> <r_i_glide_eff_state_penalty>
0

> <s_user_duplicate_titles>
CHEMBL4618_lig437

> <s_m_subgroup_title>
dock_pv

> <s_m_subgroupid>
dock_pv

> <b_m_subgroup_collapsed>
1

$$$$
CHEMBL4618_lig31
                    3D
 Schrodinger Suite 2021-1.
 50 52  0  0  1  0            999 V2000
   15.7813   42.4884   64.7611 C   0  0  0  0  0  0
   11.4904   42.7876   65.5536 N   0  0  1  0  0  0
   14.3977   43.1413   65.0120 C   0  0  0  0  0  0
   15.9859   41.2736   64.7401 O   0  0  0  0  0  0
   13.3796   42.8991   63.8838 C   0  0  0  0  0  0
   13.8332   42.6156   66.3363 C   0  0  0  0  0  0
   11.9663   43.4161   64.3110 C   0  0  0  0  0  0
   12.4223   43.1376   66.6175 C   0  0  0  0  0  0
   16.7734   43.4159   64.7400 O   0  0  0  0  0  0
    8.1203   38.0878   69.5699 C   0  0  0  0  0  0
    7.6752   37.0286   70.5856 C   0  0  0  0  0  0
    8.8085   40.0727   67.6878 C   0  0  0  0  0  0
    8.2927   37.7631   68.2293 C   0  0  0  0  0  0
    8.2418   39.4185   69.9408 C   0  0  0  0  0  0
    8.5210   40.4143   69.0124 C   0  0  0  0  0  0
    8.6529   38.7406   67.2970 C   0  0  0  0  0  0
    8.6787   36.5570   71.6450 C   0  0  0  0  0  0
    9.2659   40.9723   66.7400 O   0  0  0  0  0  0
   10.1043   43.1482   65.9124 C   0  0  0  0  0  0
    9.4671   42.3484   67.0842 C   0  0  0  0  0  0
    9.2526   37.4581   72.5415 C   0  0  0  0  0  0
    8.9726   35.1967   71.7829 C   0  0  0  0  0  0
   10.1211   37.0139   73.5364 C   0  0  0  0  0  0
    9.8563   34.7486   72.7606 C   0  0  0  0  0  0
   10.4165   35.6592   73.6476 C   0  0  0  0  0  0
   14.5499   44.2162   65.1182 H   0  0  0  0  0  0
   13.6742   43.4624   62.9992 H   0  0  0  0  0  0
   13.2984   41.8387   63.6394 H   0  0  0  0  0  0
   13.7210   41.5280   66.3427 H   0  0  0  0  0  0
   14.4548   42.9903   67.1400 H   0  0  0  0  0  0
   11.9745   44.5004   64.4328 H   0  0  0  0  0  0
   11.2426   43.2050   63.5309 H   0  0  0  0  0  0
   12.4122   44.2160   66.7400 H   0  0  0  0  0  0
   12.0832   42.6915   67.5400 H   0  0  0  0  0  0
   16.4514   44.1957   64.2656 H   0  0  0  0  0  0
    6.7996   37.4161   71.1090 H   0  0  0  0  0  0
    7.3208   36.1601   70.0304 H   0  0  0  0  0  0
    8.1875   36.7309   67.9399 H   0  0  0  0  0  0
    8.1210   39.7015   70.9704 H   0  0  0  0  0  0
    8.5893   41.4337   69.3583 H   0  0  0  0  0  0
    8.8470   38.4594   66.2719 H   0  0  0  0  0  0
   10.0377   44.2160   66.1203 H   0  0  0  0  0  0
    9.4611   42.9774   65.0594 H   0  0  0  0  0  0
   10.0632   42.4464   67.9901 H   0  0  0  0  0  0
    8.4940   42.7888   67.3103 H   0  0  0  0  0  0
    9.0088   38.5059   72.4939 H   0  0  0  0  0  0
    8.5211   34.4634   71.1400 H   0  0  0  0  0  0
   10.5638   37.7161   74.2257 H   0  0  0  0  0  0
   10.0839   33.6960   72.8498 H   0  0  0  0  0  0
   11.0841   35.3127   74.4233 H   0  0  0  0  0  0
  1  3  1  0  0  0
  1  4  2  0  0  0
  1  9  1  0  0  0
  2  8  1  0  0  0
  2 19  1  0  0  0
  2  7  1  0  0  0
  3  5  1  0  0  0
  3  6  1  0  0  0
  3 26  1  0  0  0
  5  7  1  0  0  0
  5 27  1  0  0  0
  5 28  1  0  0  0
  6  8  1  0  0  0
  6 29  1  0  0  0
  6 30  1  0  0  0
  7 31  1  0  0  0
  7 32  1  0  0  0
  8 33  1  0  0  0
  8 34  1  0  0  0
  9 35  1  0  0  0
 10 13  2  0  0  0
 10 11  1  0  0  0
 10 14  1  0  0  0
 11 17  1  0  0  0
 11 36  1  0  0  0
 11 37  1  0  0  0
 12 18  1  0  0  0
 12 15  1  0  0  0
 12 16  2  0  0  0
 13 16  1  0  0  0
 13 38  1  0  0  0
 14 15  2  0  0  0
 14 39  1  0  0  0
 15 40  1  0  0  0
 16 41  1  0  0  0
 17 21  2  0  0  0
 17 22  1  0  0  0
 18 20  1  0  0  0
 19 20  1  0  0  0
 19 42  1  0  0  0
 19 43  1  0  0  0
 20 44  1  0  0  0
 20 45  1  0  0  0
 21 23  1  0  0  0
 21 46  1  0  0  0
 22 24  2  0  0  0
 22 47  1  0  0  0
 23 25  2  0  0  0
 23 48  1  0  0  0
 24 25  1  0  0  0
 24 49  1  0  0  0
 25 50  1  0  0  0
M  END
> <s_m_entry_id>
6652

> <s_m_entry_name>
dock_pv.82

> <s_m_Source_Path>
/home/csk/Desktop/cluster/DUD-E-result/lkha4

> <s_m_Source_File>
dock_pv.maegz

> <i_m_Source_File_Index>
82

> <chembl_id>
CHEMBL114654

> <chembl_pref_name>
None

> <i_lp_mmshare_version>
53161

> <i_f3d_flags>
0

> <r_lp_tautomer_probability>
1

> <s_lp_Force_Field>
OPLS_2005

> <r_lp_Energy>
26.601944

> <b_lp_Chiralities_Consistent>
1

> <s_lp_Variant>
CHEMBL4618_lig31-1

> <s_i_glide_gridfile>
glide-grid_3chp

> <i_i_glide_lignum>
43

> <i_i_glide_rotatable_bonds>
8

> <r_i_docking_score>
-10.2267015525507

> <r_i_glide_ligand_efficiency>
-0.409068062102027

> <r_i_glide_ligand_efficiency_sa>
-1.1961222684393

> <r_i_glide_ligand_efficiency_ln>
-2.42403473746947

> <r_i_glide_gscore>
-10.2267015525507

> <r_i_glide_lipo>
-5.28287831010142

> <r_i_glide_hbond>
-0.184459195632079

> <r_i_glide_metal>
0

> <r_i_glide_rewards>
-1.99480830813814

> <r_i_glide_evdw>
-39.9670715332031

> <r_i_glide_ecoul>
-12.1067905426025

> <r_i_glide_erotb>
1.14981641937151

> <r_i_glide_esite>
-0.1

> <r_i_glide_emodel>
-78.2203342616328

> <r_i_glide_energy>
-52.0738620758057

> <r_i_glide_einternal>
13.1836490631104

> <i_i_glide_confnum>
25

> <i_i_glide_posenum>
383

> <r_i_glide_eff_state_penalty>
0

> <s_user_duplicate_titles>
CHEMBL4618_lig31,187723

> <s_m_subgroup_title>
dock_pv

> <s_m_subgroupid>
dock_pv

> <b_m_subgroup_collapsed>
1

$$$$
CHEMBL4618_lig86
                    3D
 Schrodinger Suite 2021-1.
 52 55  0  0  1  0            999 V2000
   14.3735   42.6473   65.4626 N   0  0  0  0  0  0
    9.0362   36.6580   71.8699 C   0  0  0  0  0  0
    7.3293   39.2188   68.9947 O   0  0  0  0  0  0
    9.7395   35.7597   72.8529 C   0  0  0  0  0  0
    8.4828   36.1715   70.6814 C   0  0  0  0  0  0
    8.9938   38.0394   72.0531 C   0  0  0  0  0  0
    7.9291   38.3886   69.9181 C   0  0  0  0  0  0
    8.1380   40.1144   68.3399 C   0  0  0  0  0  0
    9.9196   41.8994   67.1091 C   0  0  0  0  0  0
    7.9122   37.0152   69.7263 C   0  0  0  0  0  0
    8.5190   38.8953   71.0705 C   0  0  0  0  0  0
    9.0164   39.6597   67.3567 C   0  0  0  0  0  0
    8.0883   41.4744   68.6464 C   0  0  0  0  0  0
    8.9728   42.3592   68.0280 C   0  0  0  0  0  0
    9.8978   40.5455   66.7412 C   0  0  0  0  0  0
   10.8406   42.8256   66.6446 O   0  0  0  0  0  0
   13.1610   43.2793   66.0029 C   0  0  0  0  0  0
   11.8939   42.4358   65.7570 C   0  0  0  0  0  0
   15.5832   43.4139   65.7199 C   0  0  0  0  0  0
   14.3900   42.5051   64.0104 C   0  0  0  0  0  0
   10.1201   36.2250   74.1241 C   0  0  0  0  0  0
   10.1233   34.4548   72.5032 C   0  0  0  0  0  0
   15.8442   42.1827   63.6647 C   0  0  0  0  0  0
   16.6487   42.7911   64.8167 C   0  0  0  0  0  0
   10.9103   33.6836   73.3526 C   0  0  0  0  0  0
   10.9162   35.4655   74.9743 C   0  0  0  0  0  0
   11.3265   34.2060   74.5694 C   0  0  0  0  0  0
    8.5131   35.1189   70.4685 H   0  0  0  0  0  0
    9.3453   38.4849   72.9615 H   0  0  0  0  0  0
    7.4878   36.6161   68.8199 H   0  0  0  0  0  0
    8.5220   39.9566   71.2410 H   0  0  0  0  0  0
    9.0358   38.6120   67.0945 H   0  0  0  0  0  0
    7.3826   41.8339   69.3793 H   0  0  0  0  0  0
    8.9454   43.4085   68.2852 H   0  0  0  0  0  0
   10.5669   40.1321   66.0028 H   0  0  0  0  0  0
   13.2862   43.4183   67.0765 H   0  0  0  0  0  0
   13.0278   44.2660   65.5598 H   0  0  0  0  0  0
   11.5442   42.6146   64.7427 H   0  0  0  0  0  0
   12.1736   41.3866   65.8516 H   0  0  0  0  0  0
   15.8297   43.3586   66.7803 H   0  0  0  0  0  0
   15.4476   44.4762   65.5222 H   0  0  0  0  0  0
   14.0224   43.3981   63.5008 H   0  0  0  0  0  0
   13.7095   41.7042   63.7136 H   0  0  0  0  0  0
    9.8371   37.2001   74.4736 H   0  0  0  0  0  0
    9.8651   34.0196   71.5526 H   0  0  0  0  0  0
   16.1222   42.6155   62.7047 H   0  0  0  0  0  0
   15.9856   41.1093   63.5686 H   0  0  0  0  0  0
   17.2398   42.0466   65.3477 H   0  0  0  0  0  0
   17.3366   43.5545   64.4552 H   0  0  0  0  0  0
   11.2067   32.6890   73.0566 H   0  0  0  0  0  0
   11.2161   35.8523   75.9376 H   0  0  0  0  0  0
   11.9502   33.6071   75.2135 H   0  0  0  0  0  0
  1 17  1  0  0  0
  1 19  1  0  0  0
  1 20  1  0  0  0
  2  6  2  0  0  0
  2  4  1  0  0  0
  2  5  1  0  0  0
  3  8  1  0  0  0
  3  7  1  0  0  0
  4 21  2  0  0  0
  4 22  1  0  0  0
  5 10  2  0  0  0
  5 28  1  0  0  0
  6 11  1  0  0  0
  6 29  1  0  0  0
  7 10  1  0  0  0
  7 11  2  0  0  0
  8 12  1  0  0  0
  8 13  2  0  0  0
  9 16  1  0  0  0
  9 14  2  0  0  0
  9 15  1  0  0  0
 10 30  1  0  0  0
 11 31  1  0  0  0
 12 15  2  0  0  0
 12 32  1  0  0  0
 13 14  1  0  0  0
 13 33  1  0  0  0
 14 34  1  0  0  0
 15 35  1  0  0  0
 16 18  1  0  0  0
 17 18  1  0  0  0
 17 36  1  0  0  0
 17 37  1  0  0  0
 18 38  1  0  0  0
 18 39  1  0  0  0
 19 24  1  0  0  0
 19 40  1  0  0  0
 19 41  1  0  0  0
 20 23  1  0  0  0
 20 42  1  0  0  0
 20 43  1  0  0  0
 21 26  1  0  0  0
 21 44  1  0  0  0
 22 25  2  0  0  0
 22 45  1  0  0  0
 23 24  1  0  0  0
 23 46  1  0  0  0
 23 47  1  0  0  0
 24 48  1  0  0  0
 24 49  1  0  0  0
 25 27  1  0  0  0
 25 50  1  0  0  0
 26 27  2  0  0  0
 26 51  1  0  0  0
 27 52  1  0  0  0
M  END
> <s_m_entry_id>
6653

> <s_m_entry_name>
dock_pv.83

> <s_m_Source_Path>
/home/csk/Desktop/cluster/DUD-E-result/lkha4

> <s_m_Source_File>
dock_pv.maegz

> <i_m_Source_File_Index>
83

> <chembl_id>
CHEMBL162432

> <chembl_pref_name>
None

> <i_lp_mmshare_version>
53161

> <i_f3d_flags>
0

> <r_lp_tautomer_probability>
1

> <s_lp_Force_Field>
OPLS_2005

> <r_lp_Energy>
47.3597

> <b_lp_Chiralities_Consistent>
1

> <s_lp_Variant>
CHEMBL4618_lig86-1

> <s_i_glide_gridfile>
glide-grid_3chp

> <i_i_glide_lignum>
108

> <i_i_glide_rotatable_bonds>
7

> <r_i_docking_score>
-10.2253982976371

> <r_i_glide_ligand_efficiency>
-0.378718455468041

> <r_i_glide_ligand_efficiency_sa>
-1.13615536515593

> <r_i_glide_ligand_efficiency_ln>
-2.38030414482383

> <r_i_glide_gscore>
-10.2253982976371

> <r_i_glide_lipo>
-5.91539986607744

> <r_i_glide_hbond>
0

> <r_i_glide_metal>
0

> <r_i_glide_rewards>
-1.85820739660971

> <r_i_glide_evdw>
-50.8002433776855

> <r_i_glide_ecoul>
-5.34556579589844

> <r_i_glide_erotb>
0.890056003319079

> <r_i_glide_esite>
0

> <r_i_glide_emodel>
-81.2735474607208

> <r_i_glide_energy>
-56.145809173584

> <r_i_glide_einternal>
8.24539947509766

> <i_i_glide_confnum>
22

> <i_i_glide_posenum>
332

> <r_i_glide_eff_state_penalty>
0

> <s_user_duplicate_titles>
CHEMBL4618_lig86,271542

> <s_m_subgroup_title>
dock_pv

> <s_m_subgroupid>
dock_pv

> <b_m_subgroup_collapsed>
1

$$$$
CHEMBL4618_lig327
                    3D
 Schrodinger Suite 2021-1.
 58 61  0  0  1  0            999 V2000
   13.7354   42.8796   64.9507 N   0  0  2  0  0  0
   14.4572   43.4423   66.1014 C   0  0  0  0  0  0
   15.9881   43.5358   66.0672 C   0  0  0  0  0  0
   16.7927   43.0162   65.0503 C   0  0  0  0  0  0
   18.1795   43.0704   65.1516 C   0  0  0  0  0  0
   18.7924   43.7002   66.2445 C   0  0  0  0  0  0
   17.9820   44.2694   67.2320 C   0  0  0  0  0  0
   16.5984   44.1850   67.1402 C   0  0  0  0  0  0
   20.2930   43.8318   66.3507 C   0  0  0  0  0  0
   21.0095   43.0161   65.5268 O   0  0  0  0  0  0
   20.8209   44.6185   67.1387 O   0  0  0  0  0  0
    9.1970   36.4028   72.2144 C   0  0  0  0  0  0
    8.5314   35.8160   71.1399 C   0  0  0  0  0  0
    7.9218   36.6175   70.1748 C   0  0  0  0  0  0
    7.9513   38.0065   70.2912 C   0  0  0  0  0  0
    8.5697   38.5908   71.3925 C   0  0  0  0  0  0
    9.1977   37.7875   72.3397 C   0  0  0  0  0  0
    7.3211   38.7804   69.3461 O   0  0  0  0  0  0
    8.0448   39.7086   68.6365 C   0  0  0  0  0  0
    8.9321   39.2746   67.6610 C   0  0  0  0  0  0
    9.6326   40.2011   66.8987 C   0  0  0  0  0  0
    9.4471   41.5762   67.0924 C   0  0  0  0  0  0
    8.5168   42.0087   68.0382 C   0  0  0  0  0  0
    7.8202   41.0770   68.8082 C   0  0  0  0  0  0
   10.1532   42.5298   66.3353 N   0  0  0  0  0  0
   11.5836   42.2797   66.1603 C   0  0  0  0  0  0
   12.2902   43.1582   65.0965 C   0  0  0  0  0  0
    9.9421   35.5938   73.2205 C   0  0  0  0  0  0
   10.4594   34.3938   72.8410 O   0  0  0  0  0  0
   11.1278   33.9742   73.9400 C   0  0  0  0  0  0
   10.9642   34.9448   74.9118 C   0  0  0  0  0  0
   10.2429   35.9467   74.4530 N   0  0  0  0  0  0
   13.9707   41.4447   64.7320 C   0  0  0  0  0  0
   14.1613   42.9205   67.0105 H   0  0  0  0  0  0
   14.1212   44.4699   66.2215 H   0  0  0  0  0  0
   16.3701   42.6175   64.1424 H   0  0  0  0  0  0
   18.7544   42.6447   64.3414 H   0  0  0  0  0  0
   18.4153   44.7675   68.0881 H   0  0  0  0  0  0
   15.9974   44.6162   67.9287 H   0  0  0  0  0  0
   20.4471   42.4649   64.9824 H   0  0  0  0  0  0
    8.5203   34.7407   71.0457 H   0  0  0  0  0  0
    7.4313   36.1614   69.3326 H   0  0  0  0  0  0
    8.5550   39.6640   71.5046 H   0  0  0  0  0  0
    9.7119   38.2165   73.1796 H   0  0  0  0  0  0
    9.0794   38.2181   67.4920 H   0  0  0  0  0  0
   10.2951   39.8178   66.1391 H   0  0  0  0  0  0
    8.3284   43.0627   68.1857 H   0  0  0  0  0  0
    7.1053   41.4224   69.5395 H   0  0  0  0  0  0
    9.9227   43.4849   66.5779 H   0  0  0  0  0  0
   11.7090   41.2431   65.8642 H   0  0  0  0  0  0
   12.0519   42.3763   67.1397 H   0  0  0  0  0  0
   12.1336   44.2148   65.3221 H   0  0  0  0  0  0
   11.8149   43.0162   64.1265 H   0  0  0  0  0  0
   11.6238   33.0155   73.8952 H   0  0  0  0  0  0
   11.3481   34.9192   75.9231 H   0  0  0  0  0  0
   13.3211   41.0697   63.9413 H   0  0  0  0  0  0
   14.9793   41.2147   64.4105 H   0  0  0  0  0  0
   13.7870   40.8537   65.6297 H   0  0  0  0  0  0
  1  2  1  0  0  0
  1 27  1  0  0  0
  1 33  1  0  0  0
  2  3  1  0  0  0
  2 34  1  0  0  0
  2 35  1  0  0  0
  3  4  2  0  0  0
  3  8  1  0  0  0
  4  5  1  0  0  0
  4 36  1  0  0  0
  5  6  2  0  0  0
  5 37  1  0  0  0
  6  9  1  0  0  0
  6  7  1  0  0  0
  7  8  2  0  0  0
  7 38  1  0  0  0
  8 39  1  0  0  0
  9 10  1  0  0  0
  9 11  2  0  0  0
 10 40  1  0  0  0
 12 17  1  0  0  0
 12 13  2  0  0  0
 12 28  1  0  0  0
 13 14  1  0  0  0
 13 41  1  0  0  0
 14 15  2  0  0  0
 14 42  1  0  0  0
 15 18  1  0  0  0
 15 16  1  0  0  0
 16 17  2  0  0  0
 16 43  1  0  0  0
 17 44  1  0  0  0
 18 19  1  0  0  0
 19 20  2  0  0  0
 19 24  1  0  0  0
 20 21  1  0  0  0
 20 45  1  0  0  0
 21 22  2  0  0  0
 21 46  1  0  0  0
 22 23  1  0  0  0
 22 25  1  0  0  0
 23 24  2  0  0  0
 23 47  1  0  0  0
 24 48  1  0  0  0
 25 26  1  0  0  0
 25 49  1  0  0  0
 26 27  1  0  0  0
 26 50  1  0  0  0
 26 51  1  0  0  0
 27 52  1  0  0  0
 27 53  1  0  0  0
 28 29  1  0  0  0
 28 32  2  0  0  0
 29 30  1  0  0  0
 30 31  2  0  0  0
 30 54  1  0  0  0
 31 32  1  0  0  0
 31 55  1  0  0  0
 33 56  1  0  0  0
 33 57  1  0  0  0
 33 58  1  0  0  0
M  END
> <s_m_entry_id>
6654

> <s_m_entry_name>
dock_pv.84

> <s_m_Source_Path>
/home/csk/Desktop/cluster/DUD-E-result/lkha4

> <s_m_Source_File>
dock_pv.maegz

> <i_m_Source_File_Index>
84

> <chembl_id>
CHEMBL479544

> <chembl_pref_name>
None

> <i_lp_mmshare_version>
53161

> <i_f3d_flags>
0

> <r_lp_tautomer_probability>
1

> <s_lp_Force_Field>
OPLS_2005

> <r_lp_Energy>
29.606022

> <b_lp_Chiralities_Consistent>
1

> <s_lp_Variant>
CHEMBL4618_lig327-1

> <s_i_glide_gridfile>
glide-grid_3chp

> <i_i_glide_lignum>
371

> <i_i_glide_rotatable_bonds>
11

> <r_i_docking_score>
-10.2005317999351

> <r_i_glide_ligand_efficiency>
-0.309107024240457

> <r_i_glide_ligand_efficiency_sa>
-0.991471390738556

> <r_i_glide_ligand_efficiency_ln>
-2.26854545677853

> <r_i_glide_gscore>
-10.2005317999351

> <r_i_glide_lipo>
-5.60313523380814

> <r_i_glide_hbond>
0

> <r_i_glide_metal>
0

> <r_i_glide_rewards>
-1.0133266694732

> <r_i_glide_evdw>
-67.0584259033203

> <r_i_glide_ecoul>
-8.18450355529785

> <r_i_glide_erotb>
1.01644262800326

> <r_i_glide_esite>
-0.0199156961963097

> <r_i_glide_emodel>
-106.495590883955

> <r_i_glide_energy>
-75.2429294586182

> <r_i_glide_einternal>
20.0012016296387

> <i_i_glide_confnum>
11

> <i_i_glide_posenum>
178

> <r_i_glide_eff_state_penalty>
0

> <s_user_duplicate_titles>
CHEMBL4618_lig327,467258

> <s_m_subgroup_title>
dock_pv

> <s_m_subgroupid>
dock_pv

> <b_m_subgroup_collapsed>
1

$$$$
CHEMBL4618_lig328
                    3D
 Schrodinger Suite 2021-1.
 61 64  0  0  1  0            999 V2000
   14.3982   42.9092   65.0187 N   0  0  2  0  0  0
   14.8980   43.5967   66.2185 C   0  0  0  0  0  0
   16.4173   43.7264   66.3543 C   0  0  0  0  0  0
   17.3061   43.3546   65.3414 C   0  0  0  0  0  0
   18.6798   43.4500   65.5462 C   0  0  0  0  0  0
   19.1882   43.9360   66.7565 C   0  0  0  0  0  0
   18.2927   44.3644   67.7436 C   0  0  0  0  0  0
   16.9220   44.2686   67.5383 C   0  0  0  0  0  0
   20.6737   44.0399   67.0011 C   0  0  0  0  0  0
   21.4469   43.3204   66.1399 O   0  0  0  0  0  0
   21.1383   44.7125   67.9204 O   0  0  0  0  0  0
    9.0477   36.4356   72.2332 C   0  0  0  0  0  0
    8.9947   37.8193   72.2587 C   0  0  0  0  0  0
    8.5211   38.5362   71.1568 C   0  0  0  0  0  0
    8.0556   37.8504   70.0307 C   0  0  0  0  0  0
    8.0562   36.4630   70.0375 C   0  0  0  0  0  0
    8.5212   35.7585   71.1405 C   0  0  0  0  0  0
    7.5269   38.4626   68.9199 O   0  0  0  0  0  0
    8.1215   39.5774   68.3860 C   0  0  0  0  0  0
    9.0517   39.4316   67.3643 C   0  0  0  0  0  0
    9.6018   40.5590   66.7582 C   0  0  0  0  0  0
    9.1765   41.8361   67.1480 C   0  0  0  0  0  0
    8.2404   41.9756   68.1693 C   0  0  0  0  0  0
    7.7171   40.8466   68.7834 C   0  0  0  0  0  0
    9.6351   43.0171   66.5544 N   0  0  0  0  0  0
   10.5574   43.0326   65.4335 C   0  0  0  0  0  0
    9.7626   35.7207   73.3206 C   0  0  0  0  0  0
   10.2656   34.4883   73.0415 O   0  0  0  0  0  0
   11.0303   34.2072   74.1173 C   0  0  0  0  0  0
   10.9209   35.2731   74.9857 C   0  0  0  0  0  0
   10.1396   36.2081   74.4836 N   0  0  0  0  0  0
   12.0182   43.0079   65.8757 C   0  0  0  0  0  0
   13.0085   43.2634   64.7185 C   0  0  0  0  0  0
   14.5625   41.4575   65.0435 C   0  0  0  0  0  0
   14.4789   43.1458   67.1227 H   0  0  0  0  0  0
   14.5206   44.6160   66.2036 H   0  0  0  0  0  0
   16.9448   43.0033   64.3855 H   0  0  0  0  0  0
   19.3273   43.1492   64.7383 H   0  0  0  0  0  0
   18.6491   44.7589   68.6842 H   0  0  0  0  0  0
   16.2499   44.6046   68.3169 H   0  0  0  0  0  0
   20.9194   42.7981   65.5335 H   0  0  0  0  0  0
    9.3552   38.3385   73.1366 H   0  0  0  0  0  0
    8.5208   39.6153   71.1851 H   0  0  0  0  0  0
    7.7210   35.9195   69.1696 H   0  0  0  0  0  0
    8.5230   34.6789   71.1370 H   0  0  0  0  0  0
    9.3245   38.4414   67.0324 H   0  0  0  0  0  0
   10.3275   40.4223   65.9721 H   0  0  0  0  0  0
    7.8872   42.9514   68.4720 H   0  0  0  0  0  0
    6.9591   40.9561   69.5398 H   0  0  0  0  0  0
    9.4856   43.8820   67.0627 H   0  0  0  0  0  0
   10.3592   43.9207   64.8366 H   0  0  0  0  0  0
   10.3565   42.2163   64.7422 H   0  0  0  0  0  0
   11.5449   33.2567   74.1378 H   0  0  0  0  0  0
   11.4053   35.3733   75.9416 H   0  0  0  0  0  0
   12.2465   42.1050   66.4397 H   0  0  0  0  0  0
   12.1363   43.8153   66.5974 H   0  0  0  0  0  0
   12.9860   44.3236   64.4587 H   0  0  0  0  0  0
   12.6787   42.7625   63.8067 H   0  0  0  0  0  0
   14.2072   41.0183   64.1089 H   0  0  0  0  0  0
   15.6115   41.1925   65.1390 H   0  0  0  0  0  0
   14.0156   40.9849   65.8601 H   0  0  0  0  0  0
  1  2  1  0  0  0
  1 33  1  0  0  0
  1 34  1  0  0  0
  2  3  1  0  0  0
  2 35  1  0  0  0
  2 36  1  0  0  0
  3  4  2  0  0  0
  3  8  1  0  0  0
  4  5  1  0  0  0
  4 37  1  0  0  0
  5  6  2  0  0  0
  5 38  1  0  0  0
  6  9  1  0  0  0
  6  7  1  0  0  0
  7  8  2  0  0  0
  7 39  1  0  0  0
  8 40  1  0  0  0
  9 10  1  0  0  0
  9 11  2  0  0  0
 10 41  1  0  0  0
 12 17  1  0  0  0
 12 13  2  0  0  0
 12 27  1  0  0  0
 13 14  1  0  0  0
 13 42  1  0  0  0
 14 15  2  0  0  0
 14 43  1  0  0  0
 15 18  1  0  0  0
 15 16  1  0  0  0
 16 17  2  0  0  0
 16 44  1  0  0  0
 17 45  1  0  0  0
 18 19  1  0  0  0
 19 20  2  0  0  0
 19 24  1  0  0  0
 20 21  1  0  0  0
 20 46  1  0  0  0
 21 22  2  0  0  0
 21 47  1  0  0  0
 22 23  1  0  0  0
 22 25  1  0  0  0
 23 24  2  0  0  0
 23 48  1  0  0  0
 24 49  1  0  0  0
 25 26  1  0  0  0
 25 50  1  0  0  0
 26 32  1  0  0  0
 26 51  1  0  0  0
 26 52  1  0  0  0
 27 28  1  0  0  0
 27 31  2  0  0  0
 28 29  1  0  0  0
 29 30  2  0  0  0
 29 53  1  0  0  0
 30 31  1  0  0  0
 30 54  1  0  0  0
 32 33  1  0  0  0
 32 55  1  0  0  0
 32 56  1  0  0  0
 33 57  1  0  0  0
 33 58  1  0  0  0
 34 59  1  0  0  0
 34 60  1  0  0  0
 34 61  1  0  0  0
M  END
> <s_m_entry_id>
6655

> <s_m_entry_name>
dock_pv.85

> <s_m_Source_Path>
/home/csk/Desktop/cluster/DUD-E-result/lkha4

> <s_m_Source_File>
dock_pv.maegz

> <i_m_Source_File_Index>
85

> <chembl_id>
CHEMBL479360

> <chembl_pref_name>
None

> <i_lp_mmshare_version>
53161

> <i_f3d_flags>
0

> <r_lp_tautomer_probability>
1

> <s_lp_Force_Field>
OPLS_2005

> <r_lp_Energy>
29.45943

> <b_lp_Chiralities_Consistent>
1

> <s_lp_Variant>
CHEMBL4618_lig328-1

> <s_i_glide_gridfile>
glide-grid_3chp

> <i_i_glide_lignum>
372

> <i_i_glide_rotatable_bonds>
12

> <r_i_docking_score>
-10.1908066747855

> <r_i_glide_ligand_efficiency>
-0.299729608081927

> <r_i_glide_ligand_efficiency_sa>
-0.971007574393111

> <r_i_glide_ligand_efficiency_ln>
-2.25143503690522

> <r_i_glide_gscore>
-10.1908066747855

> <r_i_glide_lipo>
-5.45695393117128

> <r_i_glide_hbond>
-0.230328288138519

> <r_i_glide_metal>
0

> <r_i_glide_rewards>
-1.09901012664955

> <r_i_glide_evdw>
-67.8095703125

> <r_i_glide_ecoul>
-6.84759569168091

> <r_i_glide_erotb>
1.05654145233331

> <r_i_glide_esite>
-0.0434379117823266

> <r_i_glide_emodel>
-109.48313925107

> <r_i_glide_energy>
-74.6571660041809

> <r_i_glide_einternal>
11.5322618484497

> <i_i_glide_confnum>
20

> <i_i_glide_posenum>
300

> <r_i_glide_eff_state_penalty>
0

> <s_user_duplicate_titles>
CHEMBL4618_lig328,467257

> <s_m_subgroup_title>
dock_pv

> <s_m_subgroupid>
dock_pv

> <b_m_subgroup_collapsed>
1

$$$$
CHEMBL4618_lig512 
                    3D
 Schrodinger Suite 2021-1.
 48 51  0  0  1  0            999 V2000
    9.7590   42.7317   66.7552 O   0  0  0  0  0  0
   10.9888   42.6161   66.1323 C   0  0  0  0  0  0
   11.3806   43.6370   65.2731 C   0  0  0  0  0  0
   12.5945   43.5836   64.5908 C   0  0  0  0  0  0
   13.4423   42.4833   64.7595 C   0  0  0  0  0  0
   13.0767   41.4725   65.6509 C   0  0  0  0  0  0
   11.8721   41.5476   66.3400 C   0  0  0  0  0  0
   14.7176   42.3293   63.9446 C   0  0  0  0  0  0
   15.9842   42.4024   64.7877 C   0  0  0  0  0  0
   16.4456   43.6058   65.1400 N   0  0  0  0  0  0
   16.5210   41.3599   65.1400 O   0  0  0  0  0  0
   17.5683   43.8626   66.0366 C   0  0  0  0  0  0
   18.9622   43.5661   65.4364 C   0  0  0  0  0  0
   20.1006   43.4692   66.4499 C   0  0  0  0  0  0
   20.0129   44.0597   67.7170 C   0  0  0  0  0  0
   21.0497   43.9224   68.6347 C   0  0  0  0  0  0
   22.1945   43.2007   68.2952 C   0  0  0  0  0  0
   22.2996   42.6171   67.0314 C   0  0  0  0  0  0
   21.2586   42.7590   66.1126 C   0  0  0  0  0  0
    9.1461   41.6216   67.2766 C   0  0  0  0  0  0
    9.1169   40.4415   66.7400 N   0  0  0  0  0  0
    8.3457   41.7915   68.8055 S   0  0  0  0  0  0
    8.2718   40.0249   68.8868 C   0  0  0  0  0  0
    8.6296   39.5361   67.6113 C   0  0  0  0  0  0
    8.5210   38.1855   67.3266 C   0  0  0  0  0  0
    8.1210   37.3159   68.3400 C   0  0  0  0  0  0
    7.8523   37.7694   69.6184 C   0  0  0  0  0  0
    7.9363   39.1208   69.9158 C   0  0  0  0  0  0
   12.9210   44.5932   63.7524 F   0  0  0  0  0  0
   20.9299   44.4935   69.8547 F   0  0  0  0  0  0
   10.7286   44.4830   65.1401 H   0  0  0  0  0  0
   13.7196   40.6165   65.8017 H   0  0  0  0  0  0
   11.6218   40.7533   67.0237 H   0  0  0  0  0  0
   14.7625   43.0159   63.1029 H   0  0  0  0  0  0
   14.6772   41.3219   63.5400 H   0  0  0  0  0  0
   16.0802   44.3864   64.6011 H   0  0  0  0  0  0
   17.4271   43.2343   66.9197 H   0  0  0  0  0  0
   17.5257   44.8759   66.4362 H   0  0  0  0  0  0
   19.2115   44.3162   64.6851 H   0  0  0  0  0  0
   18.9210   42.6161   64.9006 H   0  0  0  0  0  0
   19.1392   44.6157   68.0176 H   0  0  0  0  0  0
   22.9953   43.0841   69.0101 H   0  0  0  0  0  0
   23.1811   42.0491   66.7644 H   0  0  0  0  0  0
   21.3472   42.2965   65.1399 H   0  0  0  0  0  0
    8.7983   37.8159   66.3515 H   0  0  0  0  0  0
    8.0551   36.2565   68.1517 H   0  0  0  0  0  0
    7.5754   37.0625   70.3879 H   0  0  0  0  0  0
    7.7211   39.4160   70.9237 H   0  0  0  0  0  0
  1  2  1  0  0  0
  1 20  1  0  0  0
  2  3  2  0  0  0
  2  7  1  0  0  0
  3  4  1  0  0  0
  3 31  1  0  0  0
  4  5  2  0  0  0
  4 29  1  0  0  0
  5  6  1  0  0  0
  5  8  1  0  0  0
  6  7  2  0  0  0
  6 32  1  0  0  0
  7 33  1  0  0  0
  8  9  1  0  0  0
  8 34  1  0  0  0
  8 35  1  0  0  0
  9 10  1  0  0  0
  9 11  2  0  0  0
 10 12  1  0  0  0
 10 36  1  0  0  0
 12 13  1  0  0  0
 12 37  1  0  0  0
 12 38  1  0  0  0
 13 14  1  0  0  0
 13 39  1  0  0  0
 13 40  1  0  0  0
 14 15  2  0  0  0
 14 19  1  0  0  0
 15 16  1  0  0  0
 15 41  1  0  0  0
 16 17  2  0  0  0
 16 30  1  0  0  0
 17 18  1  0  0  0
 17 42  1  0  0  0
 18 19  2  0  0  0
 18 43  1  0  0  0
 19 44  1  0  0  0
 20 21  2  0  0  0
 20 22  1  0  0  0
 21 24  1  0  0  0
 22 23  1  0  0  0
 23 24  2  0  0  0
 23 28  1  0  0  0
 24 25  1  0  0  0
 25 26  2  0  0  0
 25 45  1  0  0  0
 26 27  1  0  0  0
 26 46  1  0  0  0
 27 28  2  0  0  0
 27 47  1  0  0  0
 28 48  1  0  0  0
M  END
> <s_m_entry_id>
6656

> <s_m_entry_name>
dock_pv.86

> <s_m_Source_Path>
/home/csk/Desktop/cluster/DUD-E-result/lkha4

> <s_m_Source_File>
dock_pv.maegz

> <i_m_Source_File_Index>
86

> <chembl_id>
CHEMBL4574175

> <chembl_pref_name>
None

> <i_lp_mmshare_version>
53161

> <i_f3d_flags>
0

> <r_lp_tautomer_probability>
1

> <s_lp_Force_Field>
OPLS_2005

> <r_lp_Energy>
20.274328

> <b_lp_Chiralities_Consistent>
1

> <s_lp_Variant>
CHEMBL4618_lig512 -1

> <s_i_glide_gridfile>
glide-grid_3chp

> <i_i_glide_lignum>
612

> <i_i_glide_rotatable_bonds>
8

> <r_i_docking_score>
-10.1886198267014

> <r_i_glide_ligand_efficiency>
-0.339620660890048

> <r_i_glide_ligand_efficiency_sa>
-1.05528035601468

> <r_i_glide_ligand_efficiency_ln>
-2.31496543853109

> <r_i_glide_gscore>
-10.1886198267014

> <r_i_glide_lipo>
-4.13156083341759

> <r_i_glide_hbond>
-0.604328826623241

> <r_i_glide_metal>
0

> <r_i_glide_rewards>
-1.41489495385804

> <r_i_glide_evdw>
-46.5262260437012

> <r_i_glide_ecoul>
-14.5809459686279

> <r_i_glide_erotb>
0.770384490519505

> <r_i_glide_esite>
-0.294766505842824

> <r_i_glide_emodel>
-81.4680835631876

> <r_i_glide_energy>
-61.1071720123291

> <r_i_glide_einternal>
15.6193971633911

> <i_i_glide_confnum>
11

> <i_i_glide_posenum>
400

> <r_i_glide_eff_state_penalty>
0

> <s_user_duplicate_titles>
CHEMBL4618_lig512 

> <s_m_subgroup_title>
dock_pv

> <s_m_subgroupid>
dock_pv

> <b_m_subgroup_collapsed>
1

$$$$
CHEMBL4618_lig155
                    3D
 Schrodinger Suite 2021-1.
 53 55  0  0  1  0            999 V2000
   10.0982   35.5133   73.1705 C   0  0  0  0  0  0
   10.5204   34.2847   72.9517 N   0  0  0  0  0  0
   17.3317   43.0686   65.5592 C   0  0  0  0  0  0
   10.4636   36.0195   74.3787 O   0  0  0  0  0  0
   16.8181   42.1515   64.4379 C   0  0  0  0  0  0
    9.3190   36.3812   72.2384 C   0  0  0  0  0  0
   11.2070   33.9765   74.0348 C   0  0  0  0  0  0
   11.1639   35.0131   74.9492 C   0  0  0  0  0  0
   16.9217   43.0162   66.7150 O   0  0  0  0  0  0
    7.3211   38.7740   69.4763 O   0  0  0  0  0  0
    9.3788   37.7699   72.3417 C   0  0  0  0  0  0
    8.5498   35.8127   71.2251 C   0  0  0  0  0  0
   15.3997   41.5472   64.6693 C   0  0  0  0  0  0
   14.3667   42.5825   64.7435 N   0  0  2  0  0  0
    7.9854   37.9987   70.3895 C   0  0  0  0  0  0
    8.0556   39.5723   68.6413 C   0  0  0  0  0  0
   18.3478   43.8733   65.1400 O   0  0  0  0  0  0
    9.5327   41.1732   66.9204 C   0  0  0  0  0  0
    8.7126   38.5777   71.4228 C   0  0  0  0  0  0
    7.8945   36.6164   70.2998 C   0  0  0  0  0  0
    8.0165   40.9603   68.7809 C   0  0  0  0  0  0
    8.7795   38.9917   67.6051 C   0  0  0  0  0  0
    8.7672   41.7666   67.9313 C   0  0  0  0  0  0
    9.5008   39.7997   66.7401 C   0  0  0  0  0  0
   12.1640   43.3169   65.6295 C   0  0  0  0  0  0
   10.3291   41.8658   66.0479 O   0  0  0  0  0  0
   13.1879   42.1650   65.5066 C   0  0  0  0  0  0
   10.9910   43.0053   66.5537 C   0  0  0  0  0  0
   13.9846   42.9591   63.3830 C   0  0  0  0  0  0
   16.7664   42.7908   63.5567 H   0  0  0  0  0  0
   17.5715   41.4160   64.1844 H   0  0  0  0  0  0
   11.6876   33.0166   74.1656 H   0  0  0  0  0  0
   11.5611   35.1731   75.9399 H   0  0  0  0  0  0
    9.9512   38.2159   73.1402 H   0  0  0  0  0  0
    8.4877   34.7376   71.1397 H   0  0  0  0  0  0
   15.1554   40.8709   63.8454 H   0  0  0  0  0  0
   15.3970   40.8929   65.5383 H   0  0  0  0  0  0
   18.5201   43.7649   64.1890 H   0  0  0  0  0  0
    8.7442   39.6520   71.5084 H   0  0  0  0  0  0
    7.3210   36.1619   69.5121 H   0  0  0  0  0  0
    7.4013   41.4135   69.5414 H   0  0  0  0  0  0
    8.7842   37.9195   67.4743 H   0  0  0  0  0  0
    8.7370   42.8399   68.0524 H   0  0  0  0  0  0
   10.0730   39.3540   65.9402 H   0  0  0  0  0  0
   12.6720   44.2162   65.9621 H   0  0  0  0  0  0
   11.7292   43.5362   64.6552 H   0  0  0  0  0  0
   12.7227   41.2902   65.0491 H   0  0  0  0  0  0
   13.4792   41.8418   66.5064 H   0  0  0  0  0  0
   11.3569   42.8541   67.5689 H   0  0  0  0  0  0
   10.2727   43.8177   66.5706 H   0  0  0  0  0  0
   13.4923   43.9306   63.3552 H   0  0  0  0  0  0
   14.8557   43.0159   62.7401 H   0  0  0  0  0  0
   13.3216   42.2161   62.9377 H   0  0  0  0  0  0
  1  2  2  0  0  0
  1  4  1  0  0  0
  1  6  1  0  0  0
  2  7  1  0  0  0
  3  5  1  0  0  0
  3  9  2  0  0  0
  3 17  1  0  0  0
  4  8  1  0  0  0
  5 13  1  0  0  0
  5 30  1  0  0  0
  5 31  1  0  0  0
  6 11  1  0  0  0
  6 12  2  0  0  0
  7  8  2  0  0  0
  7 32  1  0  0  0
  8 33  1  0  0  0
 10 15  1  0  0  0
 10 16  1  0  0  0
 11 19  2  0  0  0
 11 34  1  0  0  0
 12 20  1  0  0  0
 12 35  1  0  0  0
 13 14  1  0  0  0
 13 36  1  0  0  0
 13 37  1  0  0  0
 14 27  1  0  0  0
 14 29  1  0  0  0
 15 20  2  0  0  0
 15 19  1  0  0  0
 16 21  2  0  0  0
 16 22  1  0  0  0
 17 38  1  0  0  0
 18 24  1  0  0  0
 18 26  1  0  0  0
 18 23  2  0  0  0
 19 39  1  0  0  0
 20 40  1  0  0  0
 21 23  1  0  0  0
 21 41  1  0  0  0
 22 24  2  0  0  0
 22 42  1  0  0  0
 23 43  1  0  0  0
 24 44  1  0  0  0
 25 28  1  0  0  0
 25 27  1  0  0  0
 25 45  1  0  0  0
 25 46  1  0  0  0
 26 28  1  0  0  0
 27 47  1  0  0  0
 27 48  1  0  0  0
 28 49  1  0  0  0
 28 50  1  0  0  0
 29 51  1  0  0  0
 29 52  1  0  0  0
 29 53  1  0  0  0
M  END
> <s_m_entry_id>
6657

> <s_m_entry_name>
dock_pv.87

> <s_m_Source_Path>
/home/csk/Desktop/cluster/DUD-E-result/lkha4

> <s_m_Source_File>
dock_pv.maegz

> <i_m_Source_File_Index>
87

> <chembl_id>
CHEMBL420866

> <chembl_pref_name>
None

> <i_lp_mmshare_version>
53161

> <i_f3d_flags>
0

> <r_lp_tautomer_probability>
1

> <s_lp_Force_Field>
OPLS_2005

> <r_lp_Energy>
26.317053

> <b_lp_Chiralities_Consistent>
1

> <s_lp_Variant>
CHEMBL4618_lig155-1

> <s_i_glide_gridfile>
glide-grid_3chp

> <i_i_glide_lignum>
181

> <i_i_glide_rotatable_bonds>
12

> <r_i_docking_score>
-10.1861680794531

> <r_i_glide_ligand_efficiency>
-0.351247175153555

> <r_i_glide_ligand_efficiency_sa>
-1.07914260498763

> <r_i_glide_ligand_efficiency_ln>
-2.33237419125891

> <r_i_glide_gscore>
-10.1861680794531

> <r_i_glide_lipo>
-5.48839890726138

> <r_i_glide_hbond>
-0.200426700404825

> <r_i_glide_metal>
0

> <r_i_glide_rewards>
-1.21033393427432

> <r_i_glide_evdw>
-55.6860160827637

> <r_i_glide_ecoul>
-11.8138704299927

> <r_i_glide_erotb>
1.3693728311245

> <r_i_glide_esite>
-0.1

> <r_i_glide_emodel>
-92.8440135440708

> <r_i_glide_energy>
-67.4998865127563

> <r_i_glide_einternal>
16.114631652832

> <i_i_glide_confnum>
13

> <i_i_glide_posenum>
263

> <r_i_glide_eff_state_penalty>
0

> <s_user_duplicate_titles>
CHEMBL4618_lig155,192700

> <s_m_subgroup_title>
dock_pv

> <s_m_subgroupid>
dock_pv

> <b_m_subgroup_collapsed>
1

$$$$
CHEMBL4618_lig347
                    3D
 Schrodinger Suite 2021-1.
 48 51  0  0  1  0            999 V2000
   14.8735   41.4412   64.3400 N   0  0  2  0  0  0
   13.8228   42.2508   64.9693 C   0  0  2  0  0  0
   14.5342   43.3110   65.8205 C   0  0  0  0  0  0
   15.9858   43.2580   65.3433 C   0  0  0  0  0  0
   15.9293   42.4050   64.0784 C   0  0  0  0  0  0
   12.7484   41.4510   65.7387 C   0  0  0  0  0  0
   11.5974   42.2337   66.1298 O   0  0  0  0  0  0
   10.5355   41.5734   66.7400 C   0  0  0  0  0  0
    9.6766   42.2663   67.5985 C   0  0  0  0  0  0
    8.6955   41.5826   68.3349 C   0  0  0  0  0  0
    8.5562   40.1928   68.1972 C   0  0  0  0  0  0
    9.3210   39.5278   67.2557 C   0  0  0  0  0  0
   10.2907   40.2160   66.5479 C   0  0  0  0  0  0
    7.5590   39.3763   69.0118 C   0  0  0  0  0  0
    8.1419   38.3557   69.9985 C   0  0  0  0  0  0
    8.9210   38.7898   71.0598 C   0  0  0  0  0  0
    9.4115   37.8898   71.9996 C   0  0  0  0  0  0
    9.1359   36.5404   71.9152 C   0  0  0  0  0  0
    8.3700   36.0909   70.8430 C   0  0  0  0  0  0
    7.8793   36.9884   69.8867 C   0  0  0  0  0  0
   10.3338   34.4163   72.6543 C   0  0  0  0  0  0
    9.8086   35.6729   72.9241 C   0  0  0  0  0  0
   10.0957   36.0539   74.2535 C   0  0  0  0  0  0
   10.9210   35.1682   74.9270 C   0  0  0  0  0  0
   11.3210   33.8160   73.9400 S   0  0  0  0  0  0
   14.5211   41.1111   63.4353 H   0  0  0  0  0  0
   13.2829   42.7727   64.1756 H   0  0  0  0  0  0
   14.4400   43.1489   66.8926 H   0  0  0  0  0  0
   14.1321   44.2934   65.5750 H   0  0  0  0  0  0
   16.6448   42.8032   66.0831 H   0  0  0  0  0  0
   16.3923   44.2484   65.1400 H   0  0  0  0  0  0
   16.8737   41.8945   63.8882 H   0  0  0  0  0  0
   15.6934   43.0021   63.1961 H   0  0  0  0  0  0
   12.4802   40.6130   65.1022 H   0  0  0  0  0  0
   13.1982   41.0160   66.6313 H   0  0  0  0  0  0
    9.8091   43.3287   67.7357 H   0  0  0  0  0  0
    8.0695   42.1287   69.0268 H   0  0  0  0  0  0
    9.2037   38.4644   67.1019 H   0  0  0  0  0  0
   10.8808   39.6274   65.8720 H   0  0  0  0  0  0
    6.9208   40.0736   69.5400 H   0  0  0  0  0  0
    6.9091   38.8418   68.3250 H   0  0  0  0  0  0
    9.1533   39.8309   71.1400 H   0  0  0  0  0  0
   10.0476   38.2160   72.8033 H   0  0  0  0  0  0
    8.1796   35.0358   70.7437 H   0  0  0  0  0  0
    7.3210   36.6160   69.0470 H   0  0  0  0  0  0
   10.2721   33.8624   71.7303 H   0  0  0  0  0  0
    9.7538   36.9783   74.6969 H   0  0  0  0  0  0
   11.3015   35.2417   75.9368 H   0  0  0  0  0  0
  1  2  1  0  0  0
  1  5  1  0  0  0
  1 26  1  0  0  0
  2  3  1  0  0  0
  2  6  1  0  0  0
  2 27  1  0  0  0
  3  4  1  0  0  0
  3 28  1  0  0  0
  3 29  1  0  0  0
  4  5  1  0  0  0
  4 30  1  0  0  0
  4 31  1  0  0  0
  5 32  1  0  0  0
  5 33  1  0  0  0
  6  7  1  0  0  0
  6 34  1  0  0  0
  6 35  1  0  0  0
  7  8  1  0  0  0
  8  9  1  0  0  0
  8 13  2  0  0  0
  9 10  2  0  0  0
  9 36  1  0  0  0
 10 11  1  0  0  0
 10 37  1  0  0  0
 11 12  2  0  0  0
 11 14  1  0  0  0
 12 13  1  0  0  0
 12 38  1  0  0  0
 13 39  1  0  0  0
 14 15  1  0  0  0
 14 40  1  0  0  0
 14 41  1  0  0  0
 15 16  1  0  0  0
 15 20  2  0  0  0
 16 17  2  0  0  0
 16 42  1  0  0  0
 17 18  1  0  0  0
 17 43  1  0  0  0
 18 19  2  0  0  0
 18 22  1  0  0  0
 19 20  1  0  0  0
 19 44  1  0  0  0
 20 45  1  0  0  0
 21 22  2  0  0  0
 21 25  1  0  0  0
 21 46  1  0  0  0
 22 23  1  0  0  0
 23 24  2  0  0  0
 23 47  1  0  0  0
 24 25  1  0  0  0
 24 48  1  0  0  0
M  END
> <s_m_entry_id>
6658

> <s_m_entry_name>
dock_pv.88

> <s_m_Source_Path>
/home/csk/Desktop/cluster/DUD-E-result/lkha4

> <s_m_Source_File>
dock_pv.maegz

> <i_m_Source_File_Index>
88

> <chembl_id>
CHEMBL578345

> <chembl_pref_name>
None

> <i_lp_mmshare_version>
53161

> <i_f3d_flags>
0

> <r_lp_tautomer_probability>
1

> <s_lp_Force_Field>
OPLS_2005

> <r_lp_Energy>
34.14895

> <b_lp_Chiralities_Consistent>
1

> <s_lp_Variant>
CHEMBL4618_lig347-1

> <s_i_glide_gridfile>
glide-grid_3chp

> <i_i_glide_lignum>
391

> <i_i_glide_rotatable_bonds>
6

> <r_i_docking_score>
-10.1828585653267

> <r_i_glide_ligand_efficiency>
-0.40731434261307

> <r_i_glide_ligand_efficiency_sa>
-1.19099436155124

> <r_i_glide_ligand_efficiency_ln>
-2.41364263562909

> <r_i_glide_gscore>
-10.1828585653267

> <r_i_glide_lipo>
-5.94642637682592

> <r_i_glide_hbond>
-0.125011721210565

> <r_i_glide_metal>
0

> <r_i_glide_rewards>
-1.85631503679265

> <r_i_glide_evdw>
-41.8549346923828

> <r_i_glide_ecoul>
-7.32075977325439

> <r_i_glide_erotb>
0.935755270109688

> <r_i_glide_esite>
0

> <r_i_glide_emodel>
-69.6449277208298

> <r_i_glide_energy>
-49.1756944656372

> <r_i_glide_einternal>
8.43796825408936

> <i_i_glide_confnum>
172

> <i_i_glide_posenum>
25

> <r_i_glide_eff_state_penalty>
0

> <s_user_duplicate_titles>
CHEMBL4618_lig347,583386

> <s_m_subgroup_title>
dock_pv

> <s_m_subgroupid>
dock_pv

> <b_m_subgroup_collapsed>
1

$$$$
CHEMBL4618_lig284
                    3D
 Schrodinger Suite 2021-1.
 51 54  0  0  1  0            999 V2000
   10.9212   35.0922   74.6339 C   0  0  0  0  0  0
   10.8449   34.0056   73.7652 C   0  0  0  0  0  0
   10.1211   34.0878   72.5753 C   0  0  0  0  0  0
   10.3677   36.3300   74.3051 C   0  0  0  0  0  0
    9.6800   36.4329   73.0875 C   0  0  0  0  0  0
    9.5114   35.3063   72.2480 C   0  0  0  0  0  0
    8.7587   35.5211   71.1401 N   0  0  0  0  0  0
    8.4456   36.7720   70.9969 C   0  0  0  0  0  0
    8.9212   37.8158   72.3101 S   0  0  0  0  0  0
    7.6811   37.2590   69.9604 O   0  0  0  0  0  0
    8.1235   38.2960   69.1616 C   0  0  0  0  0  0
    8.5117   38.0258   67.8595 C   0  0  0  0  0  0
    8.9202   39.0427   67.0023 C   0  0  0  0  0  0
    8.9534   40.3633   67.4424 C   0  0  0  0  0  0
    8.5210   40.6560   68.7404 C   0  0  0  0  0  0
    8.1304   39.6176   69.5840 C   0  0  0  0  0  0
    9.4466   41.2896   66.5491 O   0  0  0  0  0  0
    9.5334   42.6648   66.9014 C   0  0  0  0  0  0
   10.1916   43.4328   65.7314 C   0  0  0  0  0  0
   11.5365   42.9848   65.3358 N   0  0  1  0  0  0
   12.0769   43.7835   64.2420 C   0  0  0  0  0  0
   13.3155   43.1297   63.6116 C   0  0  0  0  0  0
   14.4150   42.7144   64.5925 C   0  0  0  0  0  0
   13.8819   42.3448   65.9921 C   0  0  0  0  0  0
   12.5037   42.8847   66.4236 C   0  0  0  0  0  0
   15.4530   41.7474   63.9724 C   0  0  0  0  0  0
   16.5210   41.4160   64.8413 O   0  0  0  0  0  0
   11.4526   34.9789   75.5694 H   0  0  0  0  0  0
   11.3131   33.0705   74.0439 H   0  0  0  0  0  0
   10.0190   33.2270   71.9324 H   0  0  0  0  0  0
   10.4775   37.1791   74.9644 H   0  0  0  0  0  0
    8.5207   37.0098   67.5275 H   0  0  0  0  0  0
    9.2479   38.7997   66.0012 H   0  0  0  0  0  0
    8.5215   41.6660   69.1205 H   0  0  0  0  0  0
    7.8706   39.8154   70.5995 H   0  0  0  0  0  0
   10.0962   42.8100   67.8244 H   0  0  0  0  0  0
    8.5317   43.0626   67.0731 H   0  0  0  0  0  0
   10.2009   44.4951   65.9401 H   0  0  0  0  0  0
    9.5371   43.3363   64.8704 H   0  0  0  0  0  0
   12.2657   44.8079   64.5651 H   0  0  0  0  0  0
   11.3138   43.8159   63.4688 H   0  0  0  0  0  0
   13.7208   43.7312   62.8005 H   0  0  0  0  0  0
   12.9473   42.2211   63.1400 H   0  0  0  0  0  0
   14.9298   43.6592   64.7765 H   0  0  0  0  0  0
   13.7307   41.2632   66.0156 H   0  0  0  0  0  0
   14.6220   42.6160   66.7399 H   0  0  0  0  0  0
   12.6026   43.8160   66.9685 H   0  0  0  0  0  0
   12.0926   42.1764   67.1401 H   0  0  0  0  0  0
   15.8837   42.2025   63.0786 H   0  0  0  0  0  0
   14.9614   40.8220   63.6693 H   0  0  0  0  0  0
   17.0762   42.2102   64.8806 H   0  0  0  0  0  0
  1  2  2  0  0  0
  1  4  1  0  0  0
  1 28  1  0  0  0
  2  3  1  0  0  0
  2 29  1  0  0  0
  3  6  2  0  0  0
  3 30  1  0  0  0
  4  5  2  0  0  0
  4 31  1  0  0  0
  5  9  1  0  0  0
  5  6  1  0  0  0
  6  7  1  0  0  0
  7  8  2  0  0  0
  8  9  1  0  0  0
  8 10  1  0  0  0
 10 11  1  0  0  0
 11 16  1  0  0  0
 11 12  2  0  0  0
 12 13  1  0  0  0
 12 32  1  0  0  0
 13 14  2  0  0  0
 13 33  1  0  0  0
 14 15  1  0  0  0
 14 17  1  0  0  0
 15 16  2  0  0  0
 15 34  1  0  0  0
 16 35  1  0  0  0
 17 18  1  0  0  0
 18 19  1  0  0  0
 18 36  1  0  0  0
 18 37  1  0  0  0
 19 20  1  0  0  0
 19 38  1  0  0  0
 19 39  1  0  0  0
 20 21  1  0  0  0
 20 25  1  0  0  0
 21 22  1  0  0  0
 21 40  1  0  0  0
 21 41  1  0  0  0
 22 23  1  0  0  0
 22 42  1  0  0  0
 22 43  1  0  0  0
 23 24  1  0  0  0
 23 26  1  0  0  0
 23 44  1  0  0  0
 24 25  1  0  0  0
 24 45  1  0  0  0
 24 46  1  0  0  0
 25 47  1  0  0  0
 25 48  1  0  0  0
 26 27  1  0  0  0
 26 49  1  0  0  0
 26 50  1  0  0  0
 27 51  1  0  0  0
M  END
> <s_m_entry_id>
6659

> <s_m_entry_name>
dock_pv.89

> <s_m_Source_Path>
/home/csk/Desktop/cluster/DUD-E-result/lkha4

> <s_m_Source_File>
dock_pv.maegz

> <i_m_Source_File_Index>
89

> <chembl_id>
CHEMBL521259

> <chembl_pref_name>
None

> <i_lp_mmshare_version>
53161

> <i_f3d_flags>
0

> <r_lp_tautomer_probability>
1

> <s_lp_Force_Field>
OPLS_2005

> <r_lp_Energy>
29.909827

> <b_lp_Chiralities_Consistent>
1

> <s_lp_Variant>
CHEMBL4618_lig284-1

> <s_i_glide_gridfile>
glide-grid_3chp

> <i_i_glide_lignum>
322

> <i_i_glide_rotatable_bonds>
8

> <r_i_docking_score>
-10.1825437583117

> <r_i_glide_ligand_efficiency>
-0.377131250307839

> <r_i_glide_ligand_efficiency_sa>
-1.13139374968055

> <r_i_glide_ligand_efficiency_ln>
-2.37032831458116

> <r_i_glide_gscore>
-10.1825437583117

> <r_i_glide_lipo>
-5.4875893131667

> <r_i_glide_hbond>
-0.242485125770104

> <r_i_glide_metal>
0

> <r_i_glide_rewards>
-1.45422593887917

> <r_i_glide_evdw>
-42.9856452941895

> <r_i_glide_ecoul>
-11.7973213195801

> <r_i_glide_erotb>
0.920637082150806

> <r_i_glide_esite>
0

> <r_i_glide_emodel>
-84.0521124435008

> <r_i_glide_energy>
-54.7829666137695

> <r_i_glide_einternal>
10.8288221359253

> <i_i_glide_confnum>
34

> <i_i_glide_posenum>
329

> <r_i_glide_eff_state_penalty>
0

> <s_user_duplicate_titles>
CHEMBL4618_lig284,467640

> <s_m_subgroup_title>
dock_pv

> <s_m_subgroupid>
dock_pv

> <b_m_subgroup_collapsed>
1

$$$$
CHEMBL4618_lig38
                    3D
 Schrodinger Suite 2021-1.
 51 53  0  0  1  0            999 V2000
   11.5250   42.6592   65.4788 N   0  0  2  0  0  0
   16.3381   42.5716   65.1399 C   0  0  0  0  0  0
   15.1408   43.0346   65.5396 N   0  0  0  0  0  0
   13.8775   42.3402   65.2709 C   0  0  1  0  0  0
   16.5210   41.4160   64.7406 O   0  0  0  0  0  0
   12.7458   42.6654   66.2771 C   0  0  0  0  0  0
   13.3084   42.8762   63.9447 C   0  0  0  0  0  0
   11.9393   43.4332   64.3261 C   0  0  0  0  0  0
    8.0890   38.0878   69.5699 C   0  0  0  0  0  0
    7.6559   37.0303   70.5928 C   0  0  0  0  0  0
    8.7827   40.0682   67.6801 C   0  0  0  0  0  0
    8.2259   37.7665   68.2236 C   0  0  0  0  0  0
    8.2328   39.4160   69.9413 C   0  0  0  0  0  0
    8.5211   40.4057   69.0124 C   0  0  0  0  0  0
    8.5817   38.7424   67.2848 C   0  0  0  0  0  0
    8.6708   36.5595   71.6432 C   0  0  0  0  0  0
   10.2597   43.1303   66.0440 C   0  0  0  0  0  0
    9.2518   40.9751   66.7403 O   0  0  0  0  0  0
    9.7050   42.2620   67.1900 C   0  0  0  0  0  0
   17.5126   43.5355   65.2575 C   0  0  0  0  0  0
    9.2461   37.4599   72.5392 C   0  0  0  0  0  0
    8.9710   35.1997   71.7783 C   0  0  0  0  0  0
   10.1211   37.0159   73.5285 C   0  0  0  0  0  0
    9.8600   34.7523   72.7510 C   0  0  0  0  0  0
   10.4218   35.6627   73.6370 C   0  0  0  0  0  0
   15.0665   44.0175   65.7512 H   0  0  0  0  0  0
   13.9374   41.2492   65.2222 H   0  0  0  0  0  0
   12.7156   42.0035   67.1386 H   0  0  0  0  0  0
   12.8640   43.6470   66.7409 H   0  0  0  0  0  0
   13.8952   43.6803   63.5010 H   0  0  0  0  0  0
   13.2480   42.0923   63.1900 H   0  0  0  0  0  0
   11.9645   44.5011   64.5538 H   0  0  0  0  0  0
   11.1922   43.3452   63.5400 H   0  0  0  0  0  0
    6.7848   37.4199   71.1227 H   0  0  0  0  0  0
    7.2988   36.1597   70.0423 H   0  0  0  0  0  0
    8.0971   36.7360   67.9392 H   0  0  0  0  0  0
    8.1211   39.6992   70.9723 H   0  0  0  0  0  0
    8.6150   41.4196   69.3666 H   0  0  0  0  0  0
    8.7524   38.4631   66.2555 H   0  0  0  0  0  0
   10.3529   44.1704   66.3464 H   0  0  0  0  0  0
    9.5122   43.1261   65.2493 H   0  0  0  0  0  0
   10.4710   42.1482   67.9551 H   0  0  0  0  0  0
    8.8685   42.8016   67.6383 H   0  0  0  0  0  0
   17.5727   44.1633   64.3674 H   0  0  0  0  0  0
   18.4519   42.9865   65.3423 H   0  0  0  0  0  0
   17.4124   44.1803   66.1305 H   0  0  0  0  0  0
    8.9975   38.5069   72.4974 H   0  0  0  0  0  0
    8.5207   34.4631   71.1400 H   0  0  0  0  0  0
   10.5644   37.7194   74.2153 H   0  0  0  0  0  0
   10.0892   33.7001   72.8375 H   0  0  0  0  0  0
   11.0932   35.3179   74.4097 H   0  0  0  0  0  0
  1  6  1  0  0  0
  1  8  1  0  0  0
  1 17  1  0  0  0
  2  3  1  0  0  0
  2  5  2  0  0  0
  2 20  1  0  0  0
  3  4  1  0  0  0
  3 26  1  0  0  0
  4  6  1  0  0  0
  4  7  1  0  0  0
  4 27  1  0  0  0
  6 28  1  0  0  0
  6 29  1  0  0  0
  7  8  1  0  0  0
  7 30  1  0  0  0
  7 31  1  0  0  0
  8 32  1  0  0  0
  8 33  1  0  0  0
  9 12  2  0  0  0
  9 10  1  0  0  0
  9 13  1  0  0  0
 10 16  1  0  0  0
 10 34  1  0  0  0
 10 35  1  0  0  0
 11 18  1  0  0  0
 11 14  1  0  0  0
 11 15  2  0  0  0
 12 15  1  0  0  0
 12 36  1  0  0  0
 13 14  2  0  0  0
 13 37  1  0  0  0
 14 38  1  0  0  0
 15 39  1  0  0  0
 16 21  2  0  0  0
 16 22  1  0  0  0
 17 19  1  0  0  0
 17 40  1  0  0  0
 17 41  1  0  0  0
 18 19  1  0  0  0
 19 42  1  0  0  0
 19 43  1  0  0  0
 20 44  1  0  0  0
 20 45  1  0  0  0
 20 46  1  0  0  0
 21 23  1  0  0  0
 21 47  1  0  0  0
 22 24  2  0  0  0
 22 48  1  0  0  0
 23 25  2  0  0  0
 23 49  1  0  0  0
 24 25  1  0  0  0
 24 50  1  0  0  0
 25 51  1  0  0  0
M  END
> <s_m_entry_id>
6660

> <s_m_entry_name>
dock_pv.90

> <s_m_Source_Path>
/home/csk/Desktop/cluster/DUD-E-result/lkha4

> <s_m_Source_File>
dock_pv.maegz

> <i_m_Source_File_Index>
90

> <chembl_id>
CHEMBL115188

> <chembl_pref_name>
None

> <i_lp_mmshare_version>
53161

> <i_f3d_flags>
0

> <r_lp_tautomer_probability>
1

> <s_lp_Force_Field>
OPLS_2005

> <r_lp_Energy>
33.963108

> <b_lp_Chiralities_Consistent>
1

> <s_lp_Variant>
CHEMBL4618_lig38-2

> <s_i_glide_gridfile>
glide-grid_3chp

> <i_i_glide_lignum>
53

> <i_i_glide_rotatable_bonds>
8

> <r_i_docking_score>
-10.1822547165496

> <r_i_glide_ligand_efficiency>
-0.407290188661983

> <r_i_glide_ligand_efficiency_sa>
-1.19092373496989

> <r_i_glide_ligand_efficiency_ln>
-2.41349950537302

> <r_i_glide_gscore>
-10.1822547165496

> <r_i_glide_lipo>
-5.36770104365669

> <r_i_glide_hbond>
-0.164892568649865

> <r_i_glide_metal>
0

> <r_i_glide_rewards>
-1.98044120578739

> <r_i_glide_evdw>
-46.6424713134766

> <r_i_glide_ecoul>
-8.7873010635376

> <r_i_glide_erotb>
1.15575205567416

> <r_i_glide_esite>
-0.174753228925321

> <r_i_glide_emodel>
-85.7786514844928

> <r_i_glide_energy>
-55.4297723770142

> <r_i_glide_einternal>
9.8146800994873

> <i_i_glide_confnum>
28

> <i_i_glide_posenum>
295

> <r_i_glide_eff_state_penalty>
0

> <s_user_duplicate_titles>
CHEMBL4618_lig38

> <s_m_subgroup_title>
dock_pv

> <s_m_subgroupid>
dock_pv

> <b_m_subgroup_collapsed>
1

$$$$
CHEMBL4618_lig206
                    3D
 Schrodinger Suite 2021-1.
 51 52  0  0  1  0            999 V2000
    8.6131   36.6288   71.1797 C   0  0  0  0  0  0
    8.9388   37.8580   71.7368 C   0  0  0  0  0  0
    8.7283   39.0164   71.0319 C   0  0  0  0  0  0
    8.2610   39.0126   69.7300 C   0  0  0  0  0  0
    7.9400   37.7914   69.1342 C   0  0  0  0  0  0
    8.1074   36.6165   69.8741 C   0  0  0  0  0  0
    8.1152   40.2753   69.1375 N   0  0  0  0  0  0
    8.2812   40.5995   67.8418 C   0  0  0  0  0  0
    8.5342   39.7793   66.9602 O   0  0  0  0  0  0
    8.0611   42.0788   67.4692 C   0  0  0  0  0  0
    8.9778   42.6418   66.3430 C   0  0  0  0  0  0
   10.4974   42.4240   66.5228 C   0  0  2  0  0  0
   10.8872   43.0158   67.7981 N   0  0  0  0  0  0
    8.7682   35.4260   71.8471 O   0  0  0  0  0  0
    9.6296   35.2494   72.9154 C   0  0  0  0  0  0
   10.5121   34.1729   72.8529 C   0  0  0  0  0  0
   11.3312   33.8785   73.9404 C   0  0  0  0  0  0
   11.3203   34.7061   75.0633 C   0  0  0  0  0  0
   10.4572   35.7988   75.1341 C   0  0  0  0  0  0
    9.5668   36.0198   74.0883 C   0  0  0  0  0  0
   11.4146   43.0324   65.4276 C   0  0  0  0  0  0
   10.9239   43.4157   64.3668 O   0  0  0  0  0  0
   12.7358   43.1081   65.6763 N   0  0  0  0  0  0
   13.7058   43.6667   64.7314 C   0  0  0  0  0  0
   14.3848   42.6171   63.8237 C   0  0  0  0  0  0
   15.6311   41.9553   64.3944 C   0  0  0  0  0  0
   16.1203   41.0160   63.5417 O   0  0  0  0  0  0
   16.1221   42.2156   65.4920 O   0  0  0  0  0  0
    9.3542   37.9956   72.7158 H   0  0  0  0  0  0
    8.9210   39.9328   71.5363 H   0  0  0  0  0  0
    7.5367   37.7471   68.1350 H   0  0  0  0  0  0
    7.8346   35.6835   69.4202 H   0  0  0  0  0  0
    7.9121   41.0197   69.7842 H   0  0  0  0  0  0
    8.1308   42.7141   68.3543 H   0  0  0  0  0  0
    7.0278   42.1847   67.1439 H   0  0  0  0  0  0
    8.7691   43.7109   66.2455 H   0  0  0  0  0  0
    8.6561   42.2198   65.4038 H   0  0  0  0  0  0
   10.7123   41.3532   66.5111 H   0  0  0  0  0  0
   10.3833   43.8894   67.9289 H   0  0  0  0  0  0
   10.6299   42.4213   68.5739 H   0  0  0  0  0  0
   10.5262   33.5421   71.9785 H   0  0  0  0  0  0
   11.9835   33.0190   73.9097 H   0  0  0  0  0  0
   11.9579   34.4765   75.9021 H   0  0  0  0  0  0
   10.4154   36.4061   76.0236 H   0  0  0  0  0  0
    8.8128   36.7810   74.2199 H   0  0  0  0  0  0
   13.0583   42.8320   66.5950 H   0  0  0  0  0  0
   14.4489   44.2826   65.2392 H   0  0  0  0  0  0
   13.2402   44.4201   64.0918 H   0  0  0  0  0  0
   14.5838   43.0161   62.8388 H   0  0  0  0  0  0
   13.6569   41.8414   63.5954 H   0  0  0  0  0  0
   15.6527   41.0157   62.6731 H   0  0  0  0  0  0
  1 14  1  0  0  0
  1  6  1  0  0  0
  1  2  2  0  0  0
  2  3  1  0  0  0
  2 29  1  0  0  0
  3  4  2  0  0  0
  3 30  1  0  0  0
  4  7  1  0  0  0
  4  5  1  0  0  0
  5  6  2  0  0  0
  5 31  1  0  0  0
  6 32  1  0  0  0
  7  8  1  0  0  0
  7 33  1  0  0  0
  8  9  2  0  0  0
  8 10  1  0  0  0
 10 11  1  0  0  0
 10 34  1  0  0  0
 10 35  1  0  0  0
 11 12  1  0  0  0
 11 36  1  0  0  0
 11 37  1  0  0  0
 12 21  1  0  0  0
 12 13  1  0  0  0
 12 38  1  0  0  0
 13 39  1  0  0  0
 13 40  1  0  0  0
 14 15  1  0  0  0
 15 16  2  0  0  0
 15 20  1  0  0  0
 16 17  1  0  0  0
 16 41  1  0  0  0
 17 18  2  0  0  0
 17 42  1  0  0  0
 18 19  1  0  0  0
 18 43  1  0  0  0
 19 20  2  0  0  0
 19 44  1  0  0  0
 20 45  1  0  0  0
 21 22  2  0  0  0
 21 23  1  0  0  0
 23 24  1  0  0  0
 23 46  1  0  0  0
 24 25  1  0  0  0
 24 47  1  0  0  0
 24 48  1  0  0  0
 25 26  1  0  0  0
 25 49  1  0  0  0
 25 50  1  0  0  0
 26 27  1  0  0  0
 26 28  2  0  0  0
 27 51  1  0  0  0
M  END
> <s_m_entry_id>
6661

> <s_m_entry_name>
dock_pv.91

> <s_m_Source_Path>
/home/csk/Desktop/cluster/DUD-E-result/lkha4

> <s_m_Source_File>
dock_pv.maegz

> <i_m_Source_File_Index>
91

> <chembl_id>
CHEMBL478995

> <chembl_pref_name>
None

> <i_lp_mmshare_version>
53161

> <i_f3d_flags>
0

> <r_lp_tautomer_probability>
1

> <s_lp_Force_Field>
OPLS_2005

> <r_lp_Energy>
21.814413

> <b_lp_Chiralities_Consistent>
1

> <s_lp_Variant>
CHEMBL4618_lig206-1

> <s_i_glide_gridfile>
glide-grid_3chp

> <i_i_glide_lignum>
234

> <i_i_glide_rotatable_bonds>
13

> <r_i_docking_score>
-10.1807085215054

> <r_i_glide_ligand_efficiency>
-0.363596732910909

> <r_i_glide_ligand_efficiency_sa>
-1.10409382814093

> <r_i_glide_ligand_efficiency_ln>
-2.35000644535447

> <r_i_glide_gscore>
-10.1807085215054

> <r_i_glide_lipo>
-4.24460857490058

> <r_i_glide_hbond>
-0.81994630523042

> <r_i_glide_metal>
0

> <r_i_glide_rewards>
-1.07676086772406

> <r_i_glide_evdw>
-38.7160491943359

> <r_i_glide_ecoul>
-23.8337841033936

> <r_i_glide_erotb>
1.57147730157544

> <r_i_glide_esite>
-0.1

> <r_i_glide_emodel>
-98.7129810108683

> <r_i_glide_energy>
-62.5498332977295

> <r_i_glide_einternal>
13.3117618560791

> <i_i_glide_confnum>
47

> <i_i_glide_posenum>
188

> <r_i_glide_eff_state_penalty>
0

> <s_user_duplicate_titles>
CHEMBL4618_lig206,507034

> <s_m_subgroup_title>
dock_pv

> <s_m_subgroupid>
dock_pv

> <b_m_subgroup_collapsed>
1

$$$$
CHEMBL4618_lig431
                    3D
 Schrodinger Suite 2021-1.
 50 55  0  0  1  0            999 V2000
    8.0016   37.0014   69.5247 O   0  0  0  0  0  0
    9.0700   37.8328   71.9400 S   0  0  0  0  0  0
    8.5208   36.6516   70.7691 C   0  0  0  0  0  0
    8.7131   35.4160   71.1400 N   0  0  0  0  0  0
    9.4957   35.3110   72.2467 C   0  0  0  0  0  0
    9.7206   36.5268   72.9210 C   0  0  0  0  0  0
   10.1210   34.1500   72.7366 C   0  0  0  0  0  0
   10.8447   34.2557   73.9282 C   0  0  0  0  0  0
   10.9055   35.4890   74.5782 C   0  0  0  0  0  0
   10.3838   36.6416   74.0760 N   0  0  0  0  0  0
    9.1840   39.4064   66.9568 C   0  0  0  0  0  0
    8.7723   38.2390   67.6138 C   0  0  0  0  0  0
    8.2199   38.2188   68.8886 C   0  0  0  0  0  0
    7.8524   39.4320   69.4326 C   0  0  0  0  0  0
    9.1876   42.0228   67.2666 C   0  0  0  0  0  0
    8.9210   40.6388   67.5554 C   0  0  0  0  0  0
    8.1854   40.6147   68.7604 C   0  0  0  0  0  0
    7.8493   41.8689   69.1400 O   0  0  0  0  0  0
    8.3891   42.6856   68.1969 C   0  0  0  0  0  0
   10.0445   42.6509   66.1693 C   0  0  0  0  0  0
   11.5059   42.6160   66.4214 N   0  0  1  0  0  0
   12.1677   41.4083   65.8964 C   0  0  0  0  0  0
   13.0854   41.9064   64.7393 C   0  0  2  0  0  0
   14.2352   42.5790   65.3651 N   0  0  0  0  0  0
   13.6976   43.7536   66.0619 C   0  0  0  0  0  0
   12.2107   43.6607   65.6495 C   0  0  1  0  0  0
   15.5435   42.3034   65.1400 C   0  0  0  0  0  0
   15.9456   41.2751   64.5862 O   0  0  0  0  0  0
   16.5877   43.2669   65.7046 C   0  0  0  0  0  0
   12.3505   43.1463   64.2347 C   0  0  0  0  0  0
   10.0367   33.2057   72.2197 H   0  0  0  0  0  0
   11.3214   33.3861   74.3580 H   0  0  0  0  0  0
   11.4058   35.5728   75.5335 H   0  0  0  0  0  0
    9.6838   39.3467   66.0047 H   0  0  0  0  0  0
    8.9210   37.3034   67.1400 H   0  0  0  0  0  0
    7.3210   39.4159   70.3400 H   0  0  0  0  0  0
    8.1210   43.7230   68.3306 H   0  0  0  0  0  0
    9.7649   43.7056   66.1376 H   0  0  0  0  0  0
    9.7887   42.2549   65.1861 H   0  0  0  0  0  0
   11.4347   40.6874   65.5400 H   0  0  0  0  0  0
   12.7508   40.8992   66.6614 H   0  0  0  0  0  0
   13.3839   41.1499   64.0111 H   0  0  0  0  0  0
   14.1603   44.6160   65.5919 H   0  0  0  0  0  0
   13.8544   43.7888   67.1399 H   0  0  0  0  0  0
   11.7092   44.6160   65.7073 H   0  0  0  0  0  0
   16.3996   43.4832   66.7564 H   0  0  0  0  0  0
   17.5903   42.8472   65.6154 H   0  0  0  0  0  0
   16.5700   44.2011   65.1427 H   0  0  0  0  0  0
   12.9496   43.7823   63.5757 H   0  0  0  0  0  0
   11.3802   43.0160   63.7670 H   0  0  0  0  0  0
  1  3  1  0  0  0
  1 13  1  0  0  0
  2  3  1  0  0  0
  2  6  1  0  0  0
  3  4  2  0  0  0
  4  5  1  0  0  0
  5  6  1  0  0  0
  5  7  2  0  0  0
  6 10  2  0  0  0
  7  8  1  0  0  0
  7 31  1  0  0  0
  8  9  2  0  0  0
  8 32  1  0  0  0
  9 10  1  0  0  0
  9 33  1  0  0  0
 11 16  2  0  0  0
 11 12  1  0  0  0
 11 34  1  0  0  0
 12 13  2  0  0  0
 12 35  1  0  0  0
 13 14  1  0  0  0
 14 17  2  0  0  0
 14 36  1  0  0  0
 15 16  1  0  0  0
 15 19  2  0  0  0
 15 20  1  0  0  0
 16 17  1  0  0  0
 17 18  1  0  0  0
 18 19  1  0  0  0
 19 37  1  0  0  0
 20 21  1  0  0  0
 20 38  1  0  0  0
 20 39  1  0  0  0
 21 22  1  0  0  0
 21 26  1  0  0  0
 22 23  1  0  0  0
 22 40  1  0  0  0
 22 41  1  0  0  0
 23 24  1  0  0  0
 23 30  1  0  0  0
 23 42  1  0  0  0
 24 25  1  0  0  0
 24 27  1  0  0  0
 25 26  1  0  0  0
 25 43  1  0  0  0
 25 44  1  0  0  0
 26 30  1  0  0  0
 26 45  1  0  0  0
 27 28  2  0  0  0
 27 29  1  0  0  0
 29 46  1  0  0  0
 29 47  1  0  0  0
 29 48  1  0  0  0
 30 49  1  0  0  0
 30 50  1  0  0  0
M  END
> <s_m_entry_id>
6662

> <s_m_entry_name>
dock_pv.92

> <s_m_Source_Path>
/home/csk/Desktop/cluster/DUD-E-result/lkha4

> <s_m_Source_File>
dock_pv.maegz

> <i_m_Source_File_Index>
92

> <chembl_id>
CHEMBL2313557

> <chembl_pref_name>
None

> <i_lp_mmshare_version>
53161

> <i_f3d_flags>
0

> <r_lp_tautomer_probability>
1

> <s_lp_Force_Field>
OPLS_2005

> <r_lp_Energy>
84.037217

> <b_lp_Chiralities_Consistent>
1

> <s_lp_Variant>
CHEMBL4618_lig431-1

> <s_i_glide_gridfile>
glide-grid_3chp

> <i_i_glide_lignum>
498

> <i_i_glide_rotatable_bonds>
5

> <r_i_docking_score>
-10.1695749038277

> <r_i_glide_ligand_efficiency>
-0.338985830127588

> <r_i_glide_ligand_efficiency_sa>
-1.05330778923603

> <r_i_glide_ligand_efficiency_ln>
-2.31063822454312

> <r_i_glide_gscore>
-10.1695749038277

> <r_i_glide_lipo>
-5.79498608611719

> <r_i_glide_hbond>
-0.0863014856145201

> <r_i_glide_metal>
0

> <r_i_glide_rewards>
-1.42673743597111

> <r_i_glide_evdw>
-45.1221656799316

> <r_i_glide_ecoul>
-6.3548264503479

> <r_i_glide_erotb>
0.447782355423934

> <r_i_glide_esite>
-0.1

> <r_i_glide_emodel>
-51.1635198885095

> <r_i_glide_energy>
-51.4769921302795

> <r_i_glide_einternal>
8.34862899780273

> <i_i_glide_confnum>
19

> <i_i_glide_posenum>
83

> <r_i_glide_eff_state_penalty>
0

> <s_user_duplicate_titles>
CHEMBL4618_lig431

> <s_m_subgroup_title>
dock_pv

> <s_m_subgroupid>
dock_pv

> <b_m_subgroup_collapsed>
1

$$$$
CHEMBL4618_lig198
                    3D
 Schrodinger Suite 2021-1.
 44 45  0  0  1  0            999 V2000
    8.7451   40.8600   68.0844 C   0  0  0  0  0  0
    9.4326   39.9563   67.2780 C   0  0  0  0  0  0
   10.5209   40.3844   66.5288 C   0  0  0  0  0  0
   10.9133   41.7092   66.5559 C   0  0  0  0  0  0
   10.1359   42.6462   67.2332 C   0  0  0  0  0  0
    9.0499   42.2245   68.0025 C   0  0  0  0  0  0
   12.1268   42.0040   65.9396 N   0  0  0  0  0  0
   12.3591   43.0191   65.0933 C   0  0  0  0  0  0
   11.4972   43.8159   64.7408 O   0  0  0  0  0  0
   13.7589   43.1313   64.4800 C   0  0  0  0  0  0
   14.8914   42.5080   65.3284 C   0  0  0  0  0  0
   16.2851   42.5746   64.6507 C   0  0  1  0  0  0
   17.4618   42.8199   65.6321 C   0  0  0  0  0  0
   16.5510   41.4160   63.7854 N   0  0  0  0  0  0
   18.6193   43.2662   65.1402 N   0  0  0  0  0  0
   17.3222   42.6183   66.8306 O   0  0  0  0  0  0
    7.7494   40.3761   69.1366 C   0  0  0  0  0  0
    8.0681   39.0133   69.7499 C   0  0  0  0  0  0
    7.7159   37.8458   69.0789 C   0  0  0  0  0  0
    7.9591   36.6150   69.6691 C   0  0  0  0  0  0
    8.5213   36.5326   70.9378 C   0  0  0  0  0  0
    8.8833   37.6908   71.6122 C   0  0  0  0  0  0
    8.6602   38.9235   71.0091 C   0  0  0  0  0  0
    9.1974   38.9062   67.2644 H   0  0  0  0  0  0
   11.0708   39.6722   65.9406 H   0  0  0  0  0  0
   10.4110   43.6887   67.2118 H   0  0  0  0  0  0
    8.4950   42.9481   68.5787 H   0  0  0  0  0  0
   12.8318   41.2869   66.0010 H   0  0  0  0  0  0
   13.9599   44.1948   64.3399 H   0  0  0  0  0  0
   13.7212   42.6642   63.4990 H   0  0  0  0  0  0
   14.6642   41.4609   65.5426 H   0  0  0  0  0  0
   14.8959   43.0284   66.2924 H   0  0  0  0  0  0
   16.3066   43.4167   63.9818 H   0  0  0  0  0  0
   15.8133   41.4166   63.0696 H   0  0  0  0  0  0
   17.3434   41.7229   63.2180 H   0  0  0  0  0  0
   19.4002   43.4124   65.7553 H   0  0  0  0  0  0
   18.7278   43.4185   64.1314 H   0  0  0  0  0  0
    7.7217   41.1174   69.9370 H   0  0  0  0  0  0
    6.7362   40.3728   68.7397 H   0  0  0  0  0  0
    7.2651   37.8980   68.0988 H   0  0  0  0  0  0
    7.7201   35.7182   69.1324 H   0  0  0  0  0  0
    8.6850   35.5667   71.3941 H   0  0  0  0  0  0
    9.3403   37.6365   72.5929 H   0  0  0  0  0  0
    8.9152   39.8159   71.5398 H   0  0  0  0  0  0
  1  6  1  0  0  0
  1  2  2  0  0  0
  1 17  1  0  0  0
  2  3  1  0  0  0
  2 24  1  0  0  0
  3  4  2  0  0  0
  3 25  1  0  0  0
  4  7  1  0  0  0
  4  5  1  0  0  0
  5  6  2  0  0  0
  5 26  1  0  0  0
  6 27  1  0  0  0
  7  8  1  0  0  0
  7 28  1  0  0  0
  8  9  2  0  0  0
  8 10  1  0  0  0
 10 11  1  0  0  0
 10 29  1  0  0  0
 10 30  1  0  0  0
 11 12  1  0  0  0
 11 31  1  0  0  0
 11 32  1  0  0  0
 12 13  1  0  0  0
 12 14  1  0  0  0
 12 33  1  0  0  0
 13 15  1  0  0  0
 13 16  2  0  0  0
 14 34  1  0  0  0
 14 35  1  0  0  0
 15 36  1  0  0  0
 15 37  1  0  0  0
 17 18  1  0  0  0
 17 38  1  0  0  0
 17 39  1  0  0  0
 18 19  2  0  0  0
 18 23  1  0  0  0
 19 20  1  0  0  0
 19 40  1  0  0  0
 20 21  2  0  0  0
 20 41  1  0  0  0
 21 22  1  0  0  0
 21 42  1  0  0  0
 22 23  2  0  0  0
 22 43  1  0  0  0
 23 44  1  0  0  0
M  END
> <s_m_entry_id>
6663

> <s_m_entry_name>
dock_pv.93

> <s_m_Source_Path>
/home/csk/Desktop/cluster/DUD-E-result/lkha4

> <s_m_Source_File>
dock_pv.maegz

> <i_m_Source_File_Index>
93

> <chembl_id>
CHEMBL478379

> <chembl_pref_name>
None

> <i_lp_mmshare_version>
53161

> <i_f3d_flags>
0

> <r_lp_tautomer_probability>
1

> <s_lp_Force_Field>
OPLS_2005

> <r_lp_Energy>
15.20065

> <b_lp_Chiralities_Consistent>
1

> <s_lp_Variant>
CHEMBL4618_lig198-1

> <s_i_glide_gridfile>
glide-grid_3chp

> <i_i_glide_lignum>
226

> <i_i_glide_rotatable_bonds>
8

> <r_i_docking_score>
-10.1675454678208

> <r_i_glide_ligand_efficiency>
-0.442067194253078

> <r_i_glide_ligand_efficiency_sa>
-1.257180295298

> <r_i_glide_ligand_efficiency_ln>
-2.45860468832415

> <r_i_glide_gscore>
-10.1675454678208

> <r_i_glide_lipo>
-4.10759380130981

> <r_i_glide_hbond>
-0.518119359267615

> <r_i_glide_metal>
0

> <r_i_glide_rewards>
-1.77803651814744

> <r_i_glide_evdw>
-33.7465972900391

> <r_i_glide_ecoul>
-21.4354934692383

> <r_i_glide_erotb>
1.33885809579176

> <r_i_glide_esite>
-0.2

> <r_i_glide_emodel>
-84.0030209649475

> <r_i_glide_energy>
-55.1820907592773

> <r_i_glide_einternal>
9.70532703399658

> <i_i_glide_confnum>
87

> <i_i_glide_posenum>
136

> <r_i_glide_eff_state_penalty>
0

> <s_user_duplicate_titles>
CHEMBL4618_lig198,507011

> <s_m_subgroup_title>
dock_pv

> <s_m_subgroupid>
dock_pv

> <b_m_subgroup_collapsed>
1

$$$$
CHEMBL4618_lig194
                    3D
 Schrodinger Suite 2021-1.
 50 51  0  0  1  0            999 V2000
    8.4641   40.0607   68.4791 C   0  0  0  0  0  0
    9.2771   39.4902   67.4933 C   0  0  0  0  0  0
   10.1210   40.2841   66.7400 C   0  0  0  0  0  0
   10.1557   41.6540   66.9468 C   0  0  0  0  0  0
    9.2615   42.2568   67.8362 C   0  0  0  0  0  0
    8.4156   41.4520   68.6024 C   0  0  0  0  0  0
   11.1735   42.3533   66.2983 N   0  0  0  0  0  0
   10.9995   43.3537   65.4227 C   0  0  0  0  0  0
    9.8968   43.8160   65.1408 O   0  0  0  0  0  0
   12.2333   43.8594   64.6537 C   0  0  0  0  0  0
   13.6431   43.5855   65.2583 C   0  0  0  0  0  0
   14.5177   42.6404   64.3900 C   0  0  1  0  0  0
   15.9697   42.5007   64.9292 C   0  0  0  0  0  0
   13.8964   41.3068   64.3399 N   0  0  0  0  0  0
   16.5505   43.7146   65.1400 O   0  0  0  0  0  0
   16.5211   41.4160   65.1400 O   0  0  0  0  0  0
    7.7210   39.3069   69.3642 O   0  0  0  0  0  0
    7.9470   37.8981   69.3956 C   0  0  0  0  0  0
    7.1172   37.2530   70.4994 C   0  0  0  0  0  0
    7.6558   37.3918   71.9445 C   0  0  0  0  0  0
    8.6900   36.3824   72.4573 C   0  0  0  0  0  0
    9.0507   35.2347   71.7494 C   0  0  0  0  0  0
    9.9720   34.3334   72.2857 C   0  0  0  0  0  0
   10.5240   34.5682   73.5400 C   0  0  0  0  0  0
   10.1595   35.6949   74.2667 C   0  0  0  0  0  0
    9.2386   36.5847   73.7254 C   0  0  0  0  0  0
    9.3205   38.4247   67.3295 H   0  0  0  0  0  0
   10.7855   39.8160   66.0264 H   0  0  0  0  0  0
    9.2569   43.3285   67.9700 H   0  0  0  0  0  0
    7.7570   41.9025   69.3312 H   0  0  0  0  0  0
   12.0938   41.9456   66.3588 H   0  0  0  0  0  0
   12.1294   44.9273   64.4710 H   0  0  0  0  0  0
   12.1650   43.4150   63.6608 H   0  0  0  0  0  0
   13.5903   43.1999   66.2782 H   0  0  0  0  0  0
   14.1242   44.5575   65.3678 H   0  0  0  0  0  0
   14.5716   43.0450   63.3795 H   0  0  0  0  0  0
   12.8896   41.3766   64.3712 H   0  0  0  0  0  0
   14.1211   40.8811   63.4402 H   0  0  0  0  0  0
   16.1213   44.3619   64.5633 H   0  0  0  0  0  0
    7.6411   37.4664   68.4402 H   0  0  0  0  0  0
    9.0016   37.6655   69.5469 H   0  0  0  0  0  0
    6.1212   37.6876   70.4743 H   0  0  0  0  0  0
    6.9632   36.2160   70.2252 H   0  0  0  0  0  0
    8.0220   38.4084   72.1034 H   0  0  0  0  0  0
    6.8042   37.2652   72.6084 H   0  0  0  0  0  0
    8.6147   35.0163   70.7880 H   0  0  0  0  0  0
   10.2435   33.4439   71.7364 H   0  0  0  0  0  0
   11.2261   33.8619   73.9599 H   0  0  0  0  0  0
   10.5667   35.8641   75.2534 H   0  0  0  0  0  0
    8.9210   37.4160   74.3219 H   0  0  0  0  0  0
  1  2  2  0  0  0
  1 17  1  0  0  0
  1  6  1  0  0  0
  2  3  1  0  0  0
  2 27  1  0  0  0
  3  4  2  0  0  0
  3 28  1  0  0  0
  4  7  1  0  0  0
  4  5  1  0  0  0
  5  6  2  0  0  0
  5 29  1  0  0  0
  6 30  1  0  0  0
  7  8  1  0  0  0
  7 31  1  0  0  0
  8  9  2  0  0  0
  8 10  1  0  0  0
 10 11  1  0  0  0
 10 32  1  0  0  0
 10 33  1  0  0  0
 11 12  1  0  0  0
 11 34  1  0  0  0
 11 35  1  0  0  0
 12 13  1  0  0  0
 12 14  1  0  0  0
 12 36  1  0  0  0
 13 15  1  0  0  0
 13 16  2  0  0  0
 14 37  1  0  0  0
 14 38  1  0  0  0
 15 39  1  0  0  0
 17 18  1  0  0  0
 18 19  1  0  0  0
 18 40  1  0  0  0
 18 41  1  0  0  0
 19 20  1  0  0  0
 19 42  1  0  0  0
 19 43  1  0  0  0
 20 21  1  0  0  0
 20 44  1  0  0  0
 20 45  1  0  0  0
 21 22  2  0  0  0
 21 26  1  0  0  0
 22 23  1  0  0  0
 22 46  1  0  0  0
 23 24  2  0  0  0
 23 47  1  0  0  0
 24 25  1  0  0  0
 24 48  1  0  0  0
 25 26  2  0  0  0
 25 49  1  0  0  0
 26 50  1  0  0  0
M  END
> <s_m_entry_id>
6664

> <s_m_entry_name>
dock_pv.94

> <s_m_Source_Path>
/home/csk/Desktop/cluster/DUD-E-result/lkha4

> <s_m_Source_File>
dock_pv.maegz

> <i_m_Source_File_Index>
94

> <chembl_id>
CHEMBL477513

> <chembl_pref_name>
None

> <i_lp_mmshare_version>
53161

> <i_f3d_flags>
0

> <r_lp_tautomer_probability>
1

> <s_lp_Force_Field>
OPLS_2005

> <r_lp_Energy>
18.515268

> <b_lp_Chiralities_Consistent>
1

> <s_lp_Variant>
CHEMBL4618_lig194-1

> <s_i_glide_gridfile>
glide-grid_3chp

> <i_i_glide_lignum>
222

> <i_i_glide_rotatable_bonds>
12

> <r_i_docking_score>
-10.1667782513887

> <r_i_glide_ligand_efficiency>
-0.39102993274572

> <r_i_glide_ligand_efficiency_sa>
-1.15842463713071

> <r_i_glide_ligand_efficiency_ln>
-2.38763451241824

> <r_i_glide_gscore>
-10.1667782513887

> <r_i_glide_lipo>
-5.31992545389232

> <r_i_glide_hbond>
-0.572449348547693

> <r_i_glide_metal>
0

> <r_i_glide_rewards>
-0.688989497080931

> <r_i_glide_evdw>
-46.8349533081055

> <r_i_glide_ecoul>
-17.6649971008301

> <r_i_glide_erotb>
1.50608327866201

> <r_i_glide_esite>
-0.1

> <r_i_glide_emodel>
-101.021280007383

> <r_i_glide_energy>
-64.4999504089355

> <r_i_glide_einternal>
14.2803916931152

> <i_i_glide_confnum>
27

> <i_i_glide_posenum>
302

> <r_i_glide_eff_state_penalty>
0

> <s_user_duplicate_titles>
CHEMBL4618_lig194,507015

> <s_m_subgroup_title>
dock_pv

> <s_m_subgroupid>
dock_pv

> <b_m_subgroup_collapsed>
1

$$$$
CHEMBL4618_lig200
                    3D
 Schrodinger Suite 2021-1.
 41 42  0  0  1  0            999 V2000
    8.1188   39.8247   68.6477 C   0  0  0  0  0  0
    9.0331   39.3338   67.7790 N   0  0  0  0  0  0
    9.7210   40.2164   67.0165 C   0  0  0  0  0  0
    9.5571   41.6089   67.0931 C   0  0  0  0  0  0
    8.5641   42.0922   67.9537 C   0  0  0  0  0  0
    7.8343   41.1925   68.7400 C   0  0  0  0  0  0
   10.3238   42.5167   66.3268 N   0  0  0  0  0  0
   11.6219   42.3553   65.9727 C   0  0  0  0  0  0
   12.3060   41.4033   66.3401 O   0  0  0  0  0  0
   12.2691   43.4192   65.0660 C   0  0  0  0  0  0
   13.8272   43.4788   65.1591 C   0  0  0  0  0  0
   14.6624   42.5603   64.2041 C   0  0  1  0  0  0
   16.1125   42.3682   64.7398 C   0  0  0  0  0  0
   14.0895   41.2300   63.9492 N   0  0  0  0  0  0
   16.9213   43.4163   64.7414 N   0  0  0  0  0  0
   16.5214   41.2864   65.1458 O   0  0  0  0  0  0
    7.4208   38.8922   69.3844 O   0  0  0  0  0  0
    8.0857   38.0699   70.2717 C   0  0  0  0  0  0
    7.9268   36.6863   70.2046 C   0  0  0  0  0  0
    8.5211   35.8614   71.1632 C   0  0  0  0  0  0
    9.2731   36.4188   72.1886 C   0  0  0  0  0  0
    9.4376   37.7952   72.2613 C   0  0  0  0  0  0
    8.8429   38.6158   71.3036 C   0  0  0  0  0  0
   10.4376   39.7732   66.3401 H   0  0  0  0  0  0
    8.3619   43.1515   68.0288 H   0  0  0  0  0  0
    7.0706   41.5528   69.4127 H   0  0  0  0  0  0
    9.8776   43.3931   66.1032 H   0  0  0  0  0  0
   11.8648   44.3809   65.3795 H   0  0  0  0  0  0
   11.9532   43.2575   64.0356 H   0  0  0  0  0  0
   14.1211   43.3124   66.1989 H   0  0  0  0  0  0
   14.1218   44.5081   64.9529 H   0  0  0  0  0  0
   14.7231   43.0161   63.2190 H   0  0  0  0  0  0
   13.1557   41.1233   64.3234 H   0  0  0  0  0  0
   14.1186   41.0159   62.9430 H   0  0  0  0  0  0
   17.8927   43.3085   64.9870 H   0  0  0  0  0  0
   16.6204   44.2211   64.1993 H   0  0  0  0  0  0
    7.3246   36.2503   69.4256 H   0  0  0  0  0  0
    8.3886   34.7911   71.1400 H   0  0  0  0  0  0
    9.7224   35.7802   72.9357 H   0  0  0  0  0  0
   10.0053   38.2120   73.0778 H   0  0  0  0  0  0
    8.9211   39.6876   71.3796 H   0  0  0  0  0  0
  1  6  1  0  0  0
  1  2  2  0  0  0
  1 17  1  0  0  0
  2  3  1  0  0  0
  3  4  2  0  0  0
  3 24  1  0  0  0
  4  7  1  0  0  0
  4  5  1  0  0  0
  5  6  2  0  0  0
  5 25  1  0  0  0
  6 26  1  0  0  0
  7  8  1  0  0  0
  7 27  1  0  0  0
  8  9  2  0  0  0
  8 10  1  0  0  0
 10 11  1  0  0  0
 10 28  1  0  0  0
 10 29  1  0  0  0
 11 12  1  0  0  0
 11 30  1  0  0  0
 11 31  1  0  0  0
 12 13  1  0  0  0
 12 14  1  0  0  0
 12 32  1  0  0  0
 13 15  1  0  0  0
 13 16  2  0  0  0
 14 33  1  0  0  0
 14 34  1  0  0  0
 15 35  1  0  0  0
 15 36  1  0  0  0
 17 18  1  0  0  0
 18 19  2  0  0  0
 18 23  1  0  0  0
 19 20  1  0  0  0
 19 37  1  0  0  0
 20 21  2  0  0  0
 20 38  1  0  0  0
 21 22  1  0  0  0
 21 39  1  0  0  0
 22 23  2  0  0  0
 22 40  1  0  0  0
 23 41  1  0  0  0
M  END
> <s_m_entry_id>
6665

> <s_m_entry_name>
dock_pv.95

> <s_m_Source_Path>
/home/csk/Desktop/cluster/DUD-E-result/lkha4

> <s_m_Source_File>
dock_pv.maegz

> <i_m_Source_File_Index>
95

> <chembl_id>
CHEMBL478551

> <chembl_pref_name>
None

> <i_lp_mmshare_version>
53161

> <i_f3d_flags>
0

> <r_lp_tautomer_probability>
1

> <s_lp_Force_Field>
OPLS_2005

> <r_lp_Energy>
10.680342

> <b_lp_Chiralities_Consistent>
1

> <s_lp_Variant>
CHEMBL4618_lig200-1

> <s_i_glide_gridfile>
glide-grid_3chp

> <i_i_glide_lignum>
228

> <i_i_glide_rotatable_bonds>
8

> <r_i_docking_score>
-10.1644211234536

> <r_i_glide_ligand_efficiency>
-0.441931353193636

> <r_i_glide_ligand_efficiency_sa>
-1.25679398139494

> <r_i_glide_ligand_efficiency_ln>
-2.45784919352617

> <r_i_glide_gscore>
-10.1644211234536

> <r_i_glide_lipo>
-4.02288047466243

> <r_i_glide_hbond>
-0.760256245384225

> <r_i_glide_metal>
0

> <r_i_glide_rewards>
-1.70350184361255

> <r_i_glide_evdw>
-39.4869804382324

> <r_i_glide_ecoul>
-18.8013534545898

> <r_i_glide_erotb>
1.31676948030568

> <r_i_glide_esite>
-0.2

> <r_i_glide_emodel>
-93.4960305348734

> <r_i_glide_energy>
-58.2883338928223

> <r_i_glide_einternal>
5.53663158416748

> <i_i_glide_confnum>
53

> <i_i_glide_posenum>
204

> <r_i_glide_eff_state_penalty>
0

> <s_user_duplicate_titles>
CHEMBL4618_lig200

> <s_m_subgroup_title>
dock_pv

> <s_m_subgroupid>
dock_pv

> <b_m_subgroup_collapsed>
1

$$$$
CHEMBL4618_lig163
                    3D
 Schrodinger Suite 2021-1.
 53 55  0  0  1  0            999 V2000
   10.0928   35.5320   73.2667 C   0  0  0  0  0  0
   10.5210   34.3197   73.0046 N   0  0  0  0  0  0
   10.5210   36.1222   74.8515 S   0  0  0  0  0  0
   17.0317   43.0225   65.1391 C   0  0  0  0  0  0
   15.5418   43.1743   65.4262 C   0  0  0  0  0  0
    9.3208   36.3637   72.2943 C   0  0  0  0  0  0
   11.2246   33.8240   74.0007 C   0  0  0  0  0  0
   11.3210   34.6160   75.1398 C   0  0  0  0  0  0
   17.8585   43.8361   65.5401 O   0  0  0  0  0  0
    7.3210   38.6570   69.4672 O   0  0  0  0  0  0
    9.4002   37.7540   72.3400 C   0  0  0  0  0  0
    8.5520   35.7660   71.2946 C   0  0  0  0  0  0
   14.5841   42.6155   64.3360 C   0  0  0  0  0  0
   13.2097   42.4432   64.8020 N   0  0  2  0  0  0
    8.0052   37.9244   70.3920 C   0  0  0  0  0  0
    8.0137   39.4942   68.6440 C   0  0  0  0  0  0
   17.3210   41.9566   64.3400 O   0  0  0  0  0  0
    9.3381   41.1895   66.9054 C   0  0  0  0  0  0
    8.7418   38.5365   71.3981 C   0  0  0  0  0  0
    7.9072   36.5445   70.3400 C   0  0  0  0  0  0
    8.7900   38.9604   67.6224 C   0  0  0  0  0  0
    7.8642   40.8724   68.7774 C   0  0  0  0  0  0
    9.4394   39.8154   66.7481 C   0  0  0  0  0  0
    8.5375   41.7282   67.9200 C   0  0  0  0  0  0
   11.1358   43.8389   65.1477 C   0  0  0  0  0  0
   10.0440   41.9268   65.9956 O   0  0  0  0  0  0
   12.6546   43.7022   65.3069 C   0  0  0  0  0  0
   10.2642   43.2854   66.2663 C   0  0  0  0  0  0
   13.0719   41.3094   65.7147 C   0  0  0  0  0  0
   15.3889   42.6161   66.3400 H   0  0  0  0  0  0
   15.2893   44.1989   65.6970 H   0  0  0  0  0  0
   11.6338   32.8307   73.9068 H   0  0  0  0  0  0
   11.7825   34.3930   76.0906 H   0  0  0  0  0  0
    9.9861   38.2160   73.1154 H   0  0  0  0  0  0
    8.4810   34.6897   71.2358 H   0  0  0  0  0  0
   14.5212   43.3021   63.4913 H   0  0  0  0  0  0
   14.9263   41.6690   63.9146 H   0  0  0  0  0  0
   18.0990   42.2161   63.8175 H   0  0  0  0  0  0
    8.7861   39.6130   71.4448 H   0  0  0  0  0  0
    7.3222   36.0742   69.5655 H   0  0  0  0  0  0
    8.8805   37.8904   67.5035 H   0  0  0  0  0  0
    7.2233   41.2823   69.5400 H   0  0  0  0  0  0
   10.0422   39.4111   65.9480 H   0  0  0  0  0  0
    8.4088   42.7931   68.0441 H   0  0  0  0  0  0
   10.9234   44.8948   65.1400 H   0  0  0  0  0  0
   10.8139   43.4163   64.1951 H   0  0  0  0  0  0
   12.9303   43.8158   66.3567 H   0  0  0  0  0  0
   13.1098   44.5509   64.7912 H   0  0  0  0  0  0
   10.7377   43.4159   67.2412 H   0  0  0  0  0  0
    9.3097   43.8159   66.2714 H   0  0  0  0  0  0
   12.0629   40.9114   65.6985 H   0  0  0  0  0  0
   13.7165   40.4844   65.4152 H   0  0  0  0  0  0
   13.3210   41.5773   66.7400 H   0  0  0  0  0  0
  1  2  2  0  0  0
  1  3  1  0  0  0
  1  6  1  0  0  0
  2  7  1  0  0  0
  3  8  1  0  0  0
  4  5  1  0  0  0
  4  9  2  0  0  0
  4 17  1  0  0  0
  5 13  1  0  0  0
  5 30  1  0  0  0
  5 31  1  0  0  0
  6 11  1  0  0  0
  6 12  2  0  0  0
  7  8  2  0  0  0
  7 32  1  0  0  0
  8 33  1  0  0  0
 10 15  1  0  0  0
 10 16  1  0  0  0
 11 19  2  0  0  0
 11 34  1  0  0  0
 12 20  1  0  0  0
 12 35  1  0  0  0
 13 14  1  0  0  0
 13 36  1  0  0  0
 13 37  1  0  0  0
 14 27  1  0  0  0
 14 29  1  0  0  0
 15 20  2  0  0  0
 15 19  1  0  0  0
 16 21  2  0  0  0
 16 22  1  0  0  0
 17 38  1  0  0  0
 18 24  1  0  0  0
 18 26  1  0  0  0
 18 23  2  0  0  0
 19 39  1  0  0  0
 20 40  1  0  0  0
 21 23  1  0  0  0
 21 41  1  0  0  0
 22 24  2  0  0  0
 22 42  1  0  0  0
 23 43  1  0  0  0
 24 44  1  0  0  0
 25 28  1  0  0  0
 25 27  1  0  0  0
 25 45  1  0  0  0
 25 46  1  0  0  0
 26 28  1  0  0  0
 27 47  1  0  0  0
 27 48  1  0  0  0
 28 49  1  0  0  0
 28 50  1  0  0  0
 29 51  1  0  0  0
 29 52  1  0  0  0
 29 53  1  0  0  0
M  END
> <s_m_entry_id>
6666

> <s_m_entry_name>
dock_pv.96

> <s_m_Source_Path>
/home/csk/Desktop/cluster/DUD-E-result/lkha4

> <s_m_Source_File>
dock_pv.maegz

> <i_m_Source_File_Index>
96

> <chembl_id>
CHEMBL419220

> <chembl_pref_name>
None

> <i_lp_mmshare_version>
53161

> <i_f3d_flags>
0

> <r_lp_tautomer_probability>
1

> <s_lp_Force_Field>
OPLS_2005

> <r_lp_Energy>
27.426332

> <b_lp_Chiralities_Consistent>
1

> <s_lp_Variant>
CHEMBL4618_lig163-1

> <s_i_glide_gridfile>
glide-grid_3chp

> <i_i_glide_lignum>
189

> <i_i_glide_rotatable_bonds>
12

> <r_i_docking_score>
-10.1569982322137

> <r_i_glide_ligand_efficiency>
-0.350241318352196

> <r_i_glide_ligand_efficiency_sa>
-1.07605229421605

> <r_i_glide_ligand_efficiency_ln>
-2.32569503592459

> <r_i_glide_gscore>
-10.1569982322137

> <r_i_glide_lipo>
-5.67278797430354

> <r_i_glide_hbond>
0

> <r_i_glide_metal>
0

> <r_i_glide_rewards>
-1.34847981261797

> <r_i_glide_evdw>
-54.5648765563965

> <r_i_glide_ecoul>
-10.5484457015991

> <r_i_glide_erotb>
1.27478023776752

> <r_i_glide_esite>
-0.1

> <r_i_glide_emodel>
-94.8964899029575

> <r_i_glide_energy>
-65.1133222579956

> <r_i_glide_einternal>
16.7565650939941

> <i_i_glide_confnum>
51

> <i_i_glide_posenum>
375

> <r_i_glide_eff_state_penalty>
0

> <s_user_duplicate_titles>
CHEMBL4618_lig163,192699

> <s_m_subgroup_title>
dock_pv

> <s_m_subgroupid>
dock_pv

> <b_m_subgroup_collapsed>
1

$$$$
CHEMBL4618_lig454
                    3D
 Schrodinger Suite 2021-1.
 46 50  0  0  1  0            999 V2000
    7.9652   36.9717   69.5277 O   0  0  0  0  0  0
    9.0025   37.8416   71.9398 S   0  0  0  0  0  0
    8.5068   36.6429   70.7669 C   0  0  0  0  0  0
    8.7366   35.4161   71.1400 N   0  0  0  0  0  0
    9.5061   35.3352   72.2560 C   0  0  0  0  0  0
    9.7031   36.5603   72.9271 C   0  0  0  0  0  0
   10.1207   34.1656   72.7351 C   0  0  0  0  0  0
   10.8312   34.2241   73.9347 C   0  0  0  0  0  0
   10.9210   35.4150   74.6504 C   0  0  0  0  0  0
   10.3922   36.6041   74.1485 C   0  0  0  0  0  0
    8.9958   39.3999   66.9218 C   0  0  0  0  0  0
    8.6807   38.2160   67.6050 C   0  0  0  0  0  0
    8.1298   38.1940   68.8872 C   0  0  0  0  0  0
    7.7211   39.4004   69.4361 C   0  0  0  0  0  0
    8.8924   42.0278   67.2374 C   0  0  0  0  0  0
    8.7082   40.6286   67.5334 C   0  0  0  0  0  0
    8.0335   40.5856   68.7678 C   0  0  0  0  0  0
    7.7215   41.8313   69.1936 O   0  0  0  0  0  0
    8.2371   42.6782   68.2697 C   0  0  0  0  0  0
    9.5844   42.6929   66.0661 C   0  0  0  0  0  0
   11.0504   42.7772   66.1480 N   0  0  0  0  0  0
   11.7018   41.4591   66.2507 C   0  0  0  0  0  0
   13.2282   41.4900   66.0170 C   0  0  0  0  0  0
   13.6517   42.2571   64.7628 C   0  0  0  0  0  0
   13.0457   43.6564   64.8434 C   0  0  0  0  0  0
   11.5176   43.6066   65.0204 C   0  0  0  0  0  0
   10.0140   33.2301   72.2069 H   0  0  0  0  0  0
   11.2876   33.3276   74.3341 H   0  0  0  0  0  0
   11.4471   35.4201   75.5957 H   0  0  0  0  0  0
   10.5261   37.5233   74.6896 H   0  0  0  0  0  0
    9.4696   39.3560   65.9514 H   0  0  0  0  0  0
    8.9210   37.2746   67.1422 H   0  0  0  0  0  0
    7.1701   39.4156   70.3431 H   0  0  0  0  0  0
    8.0577   43.7263   68.4678 H   0  0  0  0  0  0
    9.2199   43.7211   66.0058 H   0  0  0  0  0  0
    9.2935   42.2161   65.1399 H   0  0  0  0  0  0
   11.2613   40.7706   65.5391 H   0  0  0  0  0  0
   11.4694   41.0308   67.2244 H   0  0  0  0  0  0
   13.6053   40.4694   65.9583 H   0  0  0  0  0  0
   13.7011   41.9365   66.8886 H   0  0  0  0  0  0
   14.7383   42.3208   64.6974 H   0  0  0  0  0  0
   13.3214   41.7431   63.8596 H   0  0  0  0  0  0
   13.4907   44.2185   65.6636 H   0  0  0  0  0  0
   13.2928   44.2161   63.9402 H   0  0  0  0  0  0
   11.0872   43.2210   64.0956 H   0  0  0  0  0  0
   11.1241   44.6156   65.1399 H   0  0  0  0  0  0
  1  3  1  0  0  0
  1 13  1  0  0  0
  2  3  1  0  0  0
  2  6  1  0  0  0
  3  4  2  0  0  0
  4  5  1  0  0  0
  5  6  1  0  0  0
  5  7  2  0  0  0
  6 10  2  0  0  0
  7  8  1  0  0  0
  7 27  1  0  0  0
  8  9  2  0  0  0
  8 28  1  0  0  0
  9 10  1  0  0  0
  9 29  1  0  0  0
 10 30  1  0  0  0
 11 16  2  0  0  0
 11 12  1  0  0  0
 11 31  1  0  0  0
 12 13  2  0  0  0
 12 32  1  0  0  0
 13 14  1  0  0  0
 14 17  2  0  0  0
 14 33  1  0  0  0
 15 16  1  0  0  0
 15 19  2  0  0  0
 15 20  1  0  0  0
 16 17  1  0  0  0
 17 18  1  0  0  0
 18 19  1  0  0  0
 19 34  1  0  0  0
 20 21  1  0  0  0
 20 35  1  0  0  0
 20 36  1  0  0  0
 21 22  1  0  0  0
 21 26  1  0  0  0
 22 23  1  0  0  0
 22 37  1  0  0  0
 22 38  1  0  0  0
 23 24  1  0  0  0
 23 39  1  0  0  0
 23 40  1  0  0  0
 24 25  1  0  0  0
 24 41  1  0  0  0
 24 42  1  0  0  0
 25 26  1  0  0  0
 25 43  1  0  0  0
 25 44  1  0  0  0
 26 45  1  0  0  0
 26 46  1  0  0  0
M  END
> <s_m_entry_id>
6667

> <s_m_entry_name>
dock_pv.97

> <s_m_Source_Path>
/home/csk/Desktop/cluster/DUD-E-result/lkha4

> <s_m_Source_File>
dock_pv.maegz

> <i_m_Source_File_Index>
97

> <chembl_id>
CHEMBL2313560

> <chembl_pref_name>
None

> <i_lp_mmshare_version>
53161

> <i_f3d_flags>
0

> <r_lp_tautomer_probability>
1

> <s_lp_Force_Field>
OPLS_2005

> <r_lp_Energy>
24.987132

> <b_lp_Chiralities_Consistent>
1

> <s_lp_Variant>
CHEMBL4618_lig454-1

> <s_i_glide_gridfile>
glide-grid_3chp

> <i_i_glide_lignum>
530

> <i_i_glide_rotatable_bonds>
4

> <r_i_docking_score>
-10.1242264582621

> <r_i_glide_ligand_efficiency>
-0.389393325317773

> <r_i_glide_ligand_efficiency_sa>
-1.15357619406515

> <r_i_glide_ligand_efficiency_ln>
-2.37764136342628

> <r_i_glide_gscore>
-10.1242264582621

> <r_i_glide_lipo>
-6.18971575333401

> <r_i_glide_hbond>
0

> <r_i_glide_metal>
0

> <r_i_glide_rewards>
-1.82412477272727

> <r_i_glide_evdw>
-46.8534660339355

> <r_i_glide_ecoul>
-2.31093502044678

> <r_i_glide_erotb>
0.578927622562972

> <r_i_glide_esite>
0

> <r_i_glide_emodel>
-70.203255463763

> <r_i_glide_energy>
-49.1644010543823

> <r_i_glide_einternal>
3.46370840072632

> <i_i_glide_confnum>
116

> <i_i_glide_posenum>
145

> <r_i_glide_eff_state_penalty>
0

> <s_user_duplicate_titles>
CHEMBL4618_lig454

> <s_m_subgroup_title>
dock_pv

> <s_m_subgroupid>
dock_pv

> <b_m_subgroup_collapsed>
1

$$$$
CHEMBL4618_lig173
                    3D
 Schrodinger Suite 2021-1.
 44 45  0  0  1  0            999 V2000
   10.5210   35.5787   74.3110 C   0  0  0  0  0  0
   10.7755   34.3738   73.6611 C   0  0  0  0  0  0
   10.1210   34.0627   72.4724 C   0  0  0  0  0  0
    9.1995   34.9611   71.9400 C   0  0  0  0  0  0
    8.9592   36.1865   72.5603 C   0  0  0  0  0  0
    9.6239   36.4848   73.7520 C   0  0  0  0  0  0
    7.9599   37.1832   71.9732 C   0  0  0  0  0  0
    7.8038   36.9964   70.5544 O   0  0  0  0  0  0
    8.0546   38.0159   69.6528 C   0  0  0  0  0  0
    8.1376   37.6727   68.3064 C   0  0  0  0  0  0
    8.5210   38.6160   67.3486 C   0  0  0  0  0  0
    8.7683   39.9384   67.7240 C   0  0  0  0  0  0
    8.5210   40.3170   69.0457 C   0  0  0  0  0  0
    8.2242   39.3560   69.9962 C   0  0  0  0  0  0
    9.2633   40.8182   66.7400 N   0  0  0  0  0  0
    9.7885   42.0541   66.8993 C   0  0  0  0  0  0
   10.2043   42.8255   65.6252 C   0  0  1  0  0  0
    9.9515   42.6160   67.9771 O   0  0  0  0  0  0
    9.3210   44.0086   65.5400 N   0  0  0  0  0  0
   11.7008   43.2420   65.6474 C   0  0  0  0  0  0
   12.7098   42.0596   65.5875 C   0  0  0  0  0  0
   13.9955   42.3416   64.7945 C   0  0  0  0  0  0
   13.7629   43.0160   63.6343 O   0  0  0  0  0  0
   15.1139   41.9561   65.1400 O   0  0  0  0  0  0
   11.0178   35.8088   75.2429 H   0  0  0  0  0  0
   11.4696   33.6658   74.0920 H   0  0  0  0  0  0
   10.3013   33.1150   71.9862 H   0  0  0  0  0  0
    8.6499   34.6976   71.0515 H   0  0  0  0  0  0
    9.4381   37.4160   74.2562 H   0  0  0  0  0  0
    8.2748   38.1744   72.2859 H   0  0  0  0  0  0
    6.9900   37.0160   72.4410 H   0  0  0  0  0  0
    7.9870   36.6451   68.0152 H   0  0  0  0  0  0
    8.6657   38.2963   66.3266 H   0  0  0  0  0  0
    8.6123   41.3353   69.3857 H   0  0  0  0  0  0
    8.1210   39.7025   71.0058 H   0  0  0  0  0  0
    9.2553   40.4491   65.8029 H   0  0  0  0  0  0
   10.0584   42.2160   64.7400 H   0  0  0  0  0  0
    8.3391   43.7994   65.3613 H   0  0  0  0  0  0
    9.3426   44.5074   66.4259 H   0  0  0  0  0  0
   11.9082   43.8160   66.5507 H   0  0  0  0  0  0
   11.8663   43.9476   64.8332 H   0  0  0  0  0  0
   12.2425   41.1849   65.1400 H   0  0  0  0  0  0
   12.9774   41.7536   66.5990 H   0  0  0  0  0  0
   14.5727   43.1850   63.1400 H   0  0  0  0  0  0
  1  6  1  0  0  0
  1  2  2  0  0  0
  1 25  1  0  0  0
  2  3  1  0  0  0
  2 26  1  0  0  0
  3  4  2  0  0  0
  3 27  1  0  0  0
  4  5  1  0  0  0
  4 28  1  0  0  0
  5  7  1  0  0  0
  5  6  2  0  0  0
  6 29  1  0  0  0
  7  8  1  0  0  0
  7 30  1  0  0  0
  7 31  1  0  0  0
  8  9  1  0  0  0
  9 14  1  0  0  0
  9 10  2  0  0  0
 10 11  1  0  0  0
 10 32  1  0  0  0
 11 12  2  0  0  0
 11 33  1  0  0  0
 12 13  1  0  0  0
 12 15  1  0  0  0
 13 14  2  0  0  0
 13 34  1  0  0  0
 14 35  1  0  0  0
 15 16  1  0  0  0
 15 36  1  0  0  0
 16 17  1  0  0  0
 16 18  2  0  0  0
 17 19  1  0  0  0
 17 20  1  0  0  0
 17 37  1  0  0  0
 19 38  1  0  0  0
 19 39  1  0  0  0
 20 21  1  0  0  0
 20 40  1  0  0  0
 20 41  1  0  0  0
 21 22  1  0  0  0
 21 42  1  0  0  0
 21 43  1  0  0  0
 22 23  1  0  0  0
 22 24  2  0  0  0
 23 44  1  0  0  0
M  END
> <s_m_entry_id>
6668

> <s_m_entry_name>
dock_pv.98

> <s_m_Source_Path>
/home/csk/Desktop/cluster/DUD-E-result/lkha4

> <s_m_Source_File>
dock_pv.maegz

> <i_m_Source_File_Index>
98

> <chembl_id>
CHEMBL478550

> <chembl_pref_name>
None

> <i_lp_mmshare_version>
53161

> <i_f3d_flags>
0

> <r_lp_tautomer_probability>
1

> <s_lp_Force_Field>
OPLS_2005

> <r_lp_Energy>
21.028732

> <b_lp_Chiralities_Consistent>
1

> <s_lp_Variant>
CHEMBL4618_lig173-1

> <s_i_glide_gridfile>
glide-grid_3chp

> <i_i_glide_lignum>
199

> <i_i_glide_rotatable_bonds>
10

> <r_i_docking_score>
-10.1010479896583

> <r_i_glide_ligand_efficiency>
-0.420876999569096

> <r_i_glide_ligand_efficiency_sa>
-1.21401934227553

> <r_i_glide_ligand_efficiency_ln>
-2.41764429081497

> <r_i_glide_gscore>
-10.1010479896583

> <r_i_glide_lipo>
-4.90457226529548

> <r_i_glide_hbond>
-0.744467706411318

> <r_i_glide_metal>
0

> <r_i_glide_rewards>
-1.66515398128542

> <r_i_glide_evdw>
-44.6374778747559

> <r_i_glide_ecoul>
-14.1507406234741

> <r_i_glide_erotb>
1.56763095059282

> <r_i_glide_esite>
0

> <r_i_glide_emodel>
-86.6188540097019

> <r_i_glide_energy>
-58.78821849823

> <r_i_glide_einternal>
8.90458297729492

> <i_i_glide_confnum>
12

> <i_i_glide_posenum>
245

> <r_i_glide_eff_state_penalty>
0

> <s_user_duplicate_titles>
CHEMBL4618_lig173,507008

> <s_m_subgroup_title>
dock_pv

> <s_m_subgroupid>
dock_pv

> <b_m_subgroup_collapsed>
1

$$$$
CHEMBL4618_lig441
                    3D
 Schrodinger Suite 2021-1.
 51 56  0  0  1  0            999 V2000
    7.4809   37.9709   68.9808 O   0  0  0  0  0  0
    8.9210   38.5402   71.2139 S   0  0  0  0  0  0
    8.0928   37.4748   70.1035 C   0  0  0  0  0  0
    8.1210   36.2160   70.3972 N   0  0  0  0  0  0
    8.8931   35.9744   71.4895 C   0  0  0  0  0  0
    9.3734   37.1269   72.1564 C   0  0  0  0  0  0
    9.2637   34.7015   71.9419 C   0  0  0  0  0  0
   10.0588   34.6032   73.0864 C   0  0  0  0  0  0
   10.4467   35.7384   73.7918 C   0  0  0  0  0  0
   10.1210   37.0160   73.3369 C   0  0  0  0  0  0
    9.5229   40.0118   66.7400 C   0  0  0  0  0  0
    8.9210   38.9255   67.3736 C   0  0  0  0  0  0
    7.9907   39.0945   68.3853 C   0  0  0  0  0  0
    7.5931   40.3728   68.7644 C   0  0  0  0  0  0
    9.2876   42.6294   66.4998 C   0  0  0  0  0  0
    9.0786   41.3086   67.0325 C   0  0  0  0  0  0
    8.1213   41.4480   68.0539 C   0  0  0  0  0  0
    7.7481   42.7371   68.1906 O   0  0  0  0  0  0
    8.3939   43.4160   67.2066 C   0  0  0  0  0  0
   10.1531   43.0417   65.3287 C   0  0  0  0  0  0
   11.5569   43.3984   65.5874 N   0  0  2  0  0  0
   12.3501   43.3440   64.3403 C   0  0  0  0  0  0
   14.3983   42.8896   65.5141 N   0  0  0  0  0  0
   13.6541   43.1247   66.7526 C   0  0  0  0  0  0
   12.3047   42.4618   66.4291 C   0  0  2  0  0  0
   15.7389   43.0160   65.4071 C   0  0  0  0  0  0
   16.4331   43.4193   66.3400 O   0  0  0  0  0  0
   16.4465   42.6389   64.1105 C   0  0  0  0  0  0
   12.7657   41.3143   65.5473 C   0  0  0  0  0  0
   13.4486   42.2696   64.5816 C   0  0  1  0  0  0
   11.7550   42.1647   67.3219 H   0  0  0  0  0  0
   13.8901   41.8435   63.6796 H   0  0  0  0  0  0
    8.9210   33.8153   71.4292 H   0  0  0  0  0  0
   10.3434   33.6277   73.4565 H   0  0  0  0  0  0
   11.0332   35.6239   74.6925 H   0  0  0  0  0  0
   10.4858   37.8852   73.8625 H   0  0  0  0  0  0
   10.2328   39.8274   65.9516 H   0  0  0  0  0  0
    9.2086   37.9216   67.0974 H   0  0  0  0  0  0
    6.8669   40.5206   69.5399 H   0  0  0  0  0  0
    8.1210   44.4606   67.1399 H   0  0  0  0  0  0
    9.7094   43.9020   64.8287 H   0  0  0  0  0  0
   10.1210   42.2160   64.6428 H   0  0  0  0  0  0
   12.7677   44.3087   64.0466 H   0  0  0  0  0  0
   11.7253   43.0184   63.5206 H   0  0  0  0  0  0
   13.5979   44.1621   67.0552 H   0  0  0  0  0  0
   14.1210   42.5509   67.5367 H   0  0  0  0  0  0
   16.9682   41.6915   64.1973 H   0  0  0  0  0  0
   15.8004   42.6160   63.2333 H   0  0  0  0  0  0
   17.1999   43.4052   63.9400 H   0  0  0  0  0  0
   11.9480   40.7396   65.1400 H   0  0  0  0  0  0
   13.4458   40.6160   66.0388 H   0  0  0  0  0  0
  1  3  1  0  0  0
  1 13  1  0  0  0
  2  3  1  0  0  0
  2  6  1  0  0  0
  3  4  2  0  0  0
  4  5  1  0  0  0
  5  6  1  0  0  0
  5  7  2  0  0  0
  6 10  2  0  0  0
  7  8  1  0  0  0
  7 33  1  0  0  0
  8  9  2  0  0  0
  8 34  1  0  0  0
  9 10  1  0  0  0
  9 35  1  0  0  0
 10 36  1  0  0  0
 11 16  2  0  0  0
 11 12  1  0  0  0
 11 37  1  0  0  0
 12 13  2  0  0  0
 12 38  1  0  0  0
 13 14  1  0  0  0
 14 17  2  0  0  0
 14 39  1  0  0  0
 15 16  1  0  0  0
 15 19  2  0  0  0
 15 20  1  0  0  0
 16 17  1  0  0  0
 17 18  1  0  0  0
 18 19  1  0  0  0
 19 40  1  0  0  0
 20 21  1  0  0  0
 20 41  1  0  0  0
 20 42  1  0  0  0
 21 22  1  0  0  0
 21 25  1  0  0  0
 22 30  1  0  0  0
 22 43  1  0  0  0
 22 44  1  0  0  0
 23 30  1  0  0  0
 23 24  1  0  0  0
 23 26  1  0  0  0
 24 25  1  0  0  0
 24 45  1  0  0  0
 24 46  1  0  0  0
 25 29  1  0  0  0
 25 31  1  0  0  0
 26 27  2  0  0  0
 26 28  1  0  0  0
 28 47  1  0  0  0
 28 48  1  0  0  0
 28 49  1  0  0  0
 29 30  1  0  0  0
 29 50  1  0  0  0
 29 51  1  0  0  0
 30 32  1  0  0  0
M  END
> <s_m_entry_id>
6669

> <s_m_entry_name>
dock_pv.99

> <s_m_Source_Path>
/home/csk/Desktop/cluster/DUD-E-result/lkha4

> <s_m_Source_File>
dock_pv.maegz

> <i_m_Source_File_Index>
99

> <chembl_id>
CHEMBL2313264

> <chembl_pref_name>
None

> <i_lp_mmshare_version>
53161

> <i_f3d_flags>
0

> <r_lp_tautomer_probability>
1

> <s_lp_Force_Field>
OPLS_2005

> <r_lp_Energy>
79.741663

> <b_lp_Chiralities_Consistent>
1

> <s_lp_Variant>
CHEMBL4618_lig441-1

> <s_i_glide_gridfile>
glide-grid_3chp

> <i_i_glide_lignum>
517

> <i_i_glide_rotatable_bonds>
5

> <r_i_docking_score>
-10.0664846715042

> <r_i_glide_ligand_efficiency>
-0.335549489050141

> <r_i_glide_ligand_efficiency_sa>
-1.04263027855074

> <r_i_glide_ligand_efficiency_ln>
-2.28721500050119

> <r_i_glide_gscore>
-10.0664846715042

> <r_i_glide_lipo>
-6.00505829843526

> <r_i_glide_hbond>
-0.0851731869573357

> <r_i_glide_metal>
0

> <r_i_glide_rewards>
-1.44703874033662

> <r_i_glide_evdw>
-44.6434364318848

> <r_i_glide_ecoul>
-4.25287199020386

> <r_i_glide_erotb>
0.449690704519892

> <r_i_glide_esite>
-0.10880253017008

> <r_i_glide_emodel>
-67.1339639378238

> <r_i_glide_energy>
-48.8963084220886

> <r_i_glide_einternal>
10.2440490722656

> <i_i_glide_confnum>
7

> <i_i_glide_posenum>
104

> <r_i_glide_eff_state_penalty>
0

> <s_user_duplicate_titles>
CHEMBL4618_lig441

> <s_m_subgroup_title>
dock_pv

> <s_m_subgroupid>
dock_pv

> <b_m_subgroup_collapsed>
1

$$$$
CHEMBL4618_lig509 
                    3D
 Schrodinger Suite 2021-1.
 48 51  0  0  1  0            999 V2000
    7.6184   38.3030   68.6543 O   0  0  0  0  0  0
    8.1625   39.4716   68.1509 C   0  0  0  0  0  0
    9.1117   39.3653   67.1403 C   0  0  0  0  0  0
    9.8525   40.4747   66.7413 C   0  0  0  0  0  0
    9.6089   41.7240   67.3177 C   0  0  0  0  0  0
    8.5695   41.8527   68.2494 C   0  0  0  0  0  0
    7.8454   40.7346   68.6619 C   0  0  0  0  0  0
   10.5208   42.9325   67.0716 C   0  0  0  0  0  0
   11.2677   43.0162   65.7291 C   0  0  0  0  0  0
   12.5789   42.7047   65.6963 N   0  0  0  0  0  0
   10.6609   43.4160   64.7400 O   0  0  0  0  0  0
   13.4184   42.8528   64.4953 C   0  0  0  0  0  0
   14.8201   42.1988   64.5749 C   0  0  0  0  0  0
   15.8951   42.9108   65.4065 C   0  0  0  0  0  0
   15.5640   43.8160   66.4160 C   0  0  0  0  0  0
   16.5616   44.4656   67.1393 C   0  0  0  0  0  0
   17.8999   44.2172   66.8537 C   0  0  0  0  0  0
   18.2460   43.3110   65.8561 C   0  0  0  0  0  0
   17.2453   42.6606   65.1378 C   0  0  0  0  0  0
    8.0991   37.7772   69.8402 C   0  0  0  0  0  0
   18.8647   44.8731   67.5398 F   0  0  0  0  0  0
    8.0088   36.5263   70.1964 N   0  0  0  0  0  0
    8.9210   38.8112   70.9777 S   0  0  0  0  0  0
    9.2993   37.4160   71.9444 C   0  0  0  0  0  0
    8.7037   36.2785   71.3493 C   0  0  0  0  0  0
    8.9215   35.0213   71.9377 C   0  0  0  0  0  0
    9.7210   34.9363   73.0811 C   0  0  0  0  0  0
   10.2595   36.0726   73.6731 C   0  0  0  0  0  0
   10.0722   37.3307   73.1084 C   0  0  0  0  0  0
    9.3210   38.3945   66.7168 H   0  0  0  0  0  0
   10.6410   40.3388   66.0152 H   0  0  0  0  0  0
    8.3528   42.8117   68.6995 H   0  0  0  0  0  0
    7.0896   40.8355   69.4251 H   0  0  0  0  0  0
   11.2261   43.0158   67.8983 H   0  0  0  0  0  0
    9.8903   43.8160   67.1250 H   0  0  0  0  0  0
   13.0260   42.3721   66.5365 H   0  0  0  0  0  0
   13.5572   43.9242   64.3319 H   0  0  0  0  0  0
   12.9206   42.5158   63.5849 H   0  0  0  0  0  0
   15.1918   42.1457   63.5482 H   0  0  0  0  0  0
   14.7185   41.1616   64.8964 H   0  0  0  0  0  0
   14.5363   44.0409   66.6546 H   0  0  0  0  0  0
   16.2948   45.1589   67.9223 H   0  0  0  0  0  0
   19.2851   43.1339   65.6175 H   0  0  0  0  0  0
   17.5335   42.0110   64.3246 H   0  0  0  0  0  0
    8.5194   34.1247   71.4966 H   0  0  0  0  0  0
    9.9051   33.9707   73.5320 H   0  0  0  0  0  0
   10.8527   35.9715   74.5710 H   0  0  0  0  0  0
   10.5196   38.2121   73.5430 H   0  0  0  0  0  0
  1  2  1  0  0  0
  1 20  1  0  0  0
  2  3  2  0  0  0
  2  7  1  0  0  0
  3  4  1  0  0  0
  3 30  1  0  0  0
  4  5  2  0  0  0
  4 31  1  0  0  0
  5  6  1  0  0  0
  5  8  1  0  0  0
  6  7  2  0  0  0
  6 32  1  0  0  0
  7 33  1  0  0  0
  8  9  1  0  0  0
  8 34  1  0  0  0
  8 35  1  0  0  0
  9 10  1  0  0  0
  9 11  2  0  0  0
 10 12  1  0  0  0
 10 36  1  0  0  0
 12 13  1  0  0  0
 12 37  1  0  0  0
 12 38  1  0  0  0
 13 14  1  0  0  0
 13 39  1  0  0  0
 13 40  1  0  0  0
 14 15  2  0  0  0
 14 19  1  0  0  0
 15 16  1  0  0  0
 15 41  1  0  0  0
 16 17  2  0  0  0
 16 42  1  0  0  0
 17 18  1  0  0  0
 17 21  1  0  0  0
 18 19  2  0  0  0
 18 43  1  0  0  0
 19 44  1  0  0  0
 20 22  2  0  0  0
 20 23  1  0  0  0
 22 25  1  0  0  0
 23 24  1  0  0  0
 24 25  2  0  0  0
 24 29  1  0  0  0
 25 26  1  0  0  0
 26 27  2  0  0  0
 26 45  1  0  0  0
 27 28  1  0  0  0
 27 46  1  0  0  0
 28 29  2  0  0  0
 28 47  1  0  0  0
 29 48  1  0  0  0
M  END
> <s_m_entry_id>
6670

> <s_m_entry_name>
dock_pv.100

> <s_m_Source_Path>
/home/csk/Desktop/cluster/DUD-E-result/lkha4

> <s_m_Source_File>
dock_pv.maegz

> <i_m_Source_File_Index>
100

> <chembl_id>
CHEMBL4471473

> <chembl_pref_name>
None

> <i_lp_mmshare_version>
53161

> <i_f3d_flags>
0

> <r_lp_tautomer_probability>
1

> <s_lp_Force_Field>
OPLS_2005

> <r_lp_Energy>
18.884565

> <b_lp_Chiralities_Consistent>
1

> <s_lp_Variant>
CHEMBL4618_lig509 -1

> <s_i_glide_gridfile>
glide-grid_3chp

> <i_i_glide_lignum>
609

> <i_i_glide_rotatable_bonds>
8

> <r_i_docking_score>
-10.0586374753784

> <r_i_glide_ligand_efficiency>
-0.346849568116497

> <r_i_glide_ligand_efficiency_sa>
-1.06563176291008

> <r_i_glide_ligand_efficiency_ln>
-2.30317291682289

> <r_i_glide_gscore>
-10.0586374753784

> <r_i_glide_lipo>
-5.37694138115821

> <r_i_glide_hbond>
-0.036776088286768

> <r_i_glide_metal>
0

> <r_i_glide_rewards>
-1.53767186403354

> <r_i_glide_evdw>
-55.0593338012695

> <r_i_glide_ecoul>
-7.59650468826294

> <r_i_glide_erotb>
0.833057615882142

> <r_i_glide_esite>
-0.0478633644791084

> <r_i_glide_emodel>
-84.6354175402298

> <r_i_glide_energy>
-62.6558384895325

> <r_i_glide_einternal>
12.9000663757324

> <i_i_glide_confnum>
53

> <i_i_glide_posenum>
244

> <r_i_glide_eff_state_penalty>
0

> <s_user_duplicate_titles>
CHEMBL4618_lig509 

> <s_m_subgroup_title>
dock_pv

> <s_m_subgroupid>
dock_pv

> <b_m_subgroup_collapsed>
1

$$$$
CHEMBL4618_lig280
                    3D
 Schrodinger Suite 2021-1.
 49 52  0  0  1  0            999 V2000
   10.4404   35.2870   73.9360 C   0  0  0  0  0  0
   10.1216   34.2362   73.0789 C   0  0  0  0  0  0
    9.3407   34.4471   71.9400 C   0  0  0  0  0  0
    9.9962   36.5832   73.6809 C   0  0  0  0  0  0
    9.2383   36.7955   72.5218 C   0  0  0  0  0  0
    8.9170   35.7484   71.6311 C   0  0  0  0  0  0
    8.2194   36.1278   70.5160 N   0  0  0  0  0  0
    8.0002   37.4046   70.4988 C   0  0  0  0  0  0
    8.5210   38.2557   71.9104 S   0  0  0  0  0  0
    7.3218   38.0968   69.5216 O   0  0  0  0  0  0
    8.0209   38.9873   68.7313 C   0  0  0  0  0  0
    8.5732   38.5453   67.5369 C   0  0  0  0  0  0
    9.3211   39.4161   66.7482 C   0  0  0  0  0  0
    9.5571   40.7336   67.1390 C   0  0  0  0  0  0
    8.9202   41.2036   68.2922 C   0  0  0  0  0  0
    8.1543   40.3364   69.0686 C   0  0  0  0  0  0
   10.4198   41.4852   66.3538 O   0  0  0  0  0  0
   10.8705   42.7564   66.8345 C   0  0  0  0  0  0
   11.9088   43.4690   65.9275 C   0  0  0  0  0  0
   13.2331   42.8299   65.8372 N   0  0  1  0  0  0
   13.1898   41.7651   64.8316 C   0  0  0  0  0  0
   14.5493   41.0997   64.6110 C   0  0  0  0  0  0
   15.6495   42.0865   64.2339 C   0  0  0  0  0  0
   15.6879   43.1677   65.3281 C   0  0  0  0  0  0
   14.2934   43.8137   65.5382 C   0  0  0  0  0  0
   16.9139   41.4278   63.9401 N   0  0  0  0  0  0
   11.0279   35.0854   74.8212 H   0  0  0  0  0  0
   10.4666   33.2378   73.3143 H   0  0  0  0  0  0
    9.0713   33.6203   71.2986 H   0  0  0  0  0  0
   10.2297   37.3987   74.3508 H   0  0  0  0  0  0
    8.4642   37.5121   67.2444 H   0  0  0  0  0  0
    9.7909   39.0281   65.8635 H   0  0  0  0  0  0
    9.0241   42.2278   68.6151 H   0  0  0  0  0  0
    7.6886   40.7337   69.9399 H   0  0  0  0  0  0
   11.2873   42.6594   67.8363 H   0  0  0  0  0  0
   10.0013   43.4095   66.9190 H   0  0  0  0  0  0
   12.0452   44.4638   66.3385 H   0  0  0  0  0  0
   11.4848   43.6306   64.9355 H   0  0  0  0  0  0
   12.8650   42.2109   63.8892 H   0  0  0  0  0  0
   12.4603   41.0113   65.1313 H   0  0  0  0  0  0
   14.4417   40.3315   63.8447 H   0  0  0  0  0  0
   14.8156   40.6160   65.5401 H   0  0  0  0  0  0
   15.3336   42.5786   63.3117 H   0  0  0  0  0  0
   16.0409   42.7768   66.2806 H   0  0  0  0  0  0
   16.4040   43.9425   65.0554 H   0  0  0  0  0  0
   14.0129   44.3681   64.6416 H   0  0  0  0  0  0
   14.3518   44.5493   66.3407 H   0  0  0  0  0  0
   16.8348   41.3013   62.9267 H   0  0  0  0  0  0
   17.6173   42.1683   63.9632 H   0  0  0  0  0  0
  1  2  2  0  0  0
  1  4  1  0  0  0
  1 27  1  0  0  0
  2  3  1  0  0  0
  2 28  1  0  0  0
  3  6  2  0  0  0
  3 29  1  0  0  0
  4  5  2  0  0  0
  4 30  1  0  0  0
  5  9  1  0  0  0
  5  6  1  0  0  0
  6  7  1  0  0  0
  7  8  2  0  0  0
  8  9  1  0  0  0
  8 10  1  0  0  0
 10 11  1  0  0  0
 11 16  1  0  0  0
 11 12  2  0  0  0
 12 13  1  0  0  0
 12 31  1  0  0  0
 13 14  2  0  0  0
 13 32  1  0  0  0
 14 15  1  0  0  0
 14 17  1  0  0  0
 15 16  2  0  0  0
 15 33  1  0  0  0
 16 34  1  0  0  0
 17 18  1  0  0  0
 18 19  1  0  0  0
 18 35  1  0  0  0
 18 36  1  0  0  0
 19 20  1  0  0  0
 19 37  1  0  0  0
 19 38  1  0  0  0
 20 21  1  0  0  0
 20 25  1  0  0  0
 21 22  1  0  0  0
 21 39  1  0  0  0
 21 40  1  0  0  0
 22 23  1  0  0  0
 22 41  1  0  0  0
 22 42  1  0  0  0
 23 24  1  0  0  0
 23 26  1  0  0  0
 23 43  1  0  0  0
 24 25  1  0  0  0
 24 44  1  0  0  0
 24 45  1  0  0  0
 25 46  1  0  0  0
 25 47  1  0  0  0
 26 48  1  0  0  0
 26 49  1  0  0  0
M  END
> <s_m_entry_id>
6671

> <s_m_entry_name>
dock_pv.101

> <s_m_Source_Path>
/home/csk/Desktop/cluster/DUD-E-result/lkha4

> <s_m_Source_File>
dock_pv.maegz

> <i_m_Source_File_Index>
101

> <chembl_id>
CHEMBL480327

> <chembl_pref_name>
None

> <i_lp_mmshare_version>
53161

> <i_f3d_flags>
0

> <r_lp_tautomer_probability>
1

> <s_lp_Force_Field>
OPLS_2005

> <r_lp_Energy>
28.728207

> <b_lp_Chiralities_Consistent>
1

> <s_lp_Variant>
CHEMBL4618_lig280-1

> <s_i_glide_gridfile>
glide-grid_3chp

> <i_i_glide_lignum>
318

> <i_i_glide_rotatable_bonds>
6

> <r_i_docking_score>
-10.0546273220094

> <r_i_glide_ligand_efficiency>
-0.386716435461902

> <r_i_glide_ligand_efficiency_sa>
-1.14564591840019

> <r_i_glide_ligand_efficiency_ln>
-2.36129623465073

> <r_i_glide_gscore>
-10.0546273220094

> <r_i_glide_lipo>
-5.31499124093692

> <r_i_glide_hbond>
-0.0449109080291727

> <r_i_glide_metal>
0

> <r_i_glide_rewards>
-1.48767548659612

> <r_i_glide_evdw>
-39.8863143920898

> <r_i_glide_ecoul>
-13.7344560623169

> <r_i_glide_erotb>
0.84743444250479

> <r_i_glide_esite>
0

> <r_i_glide_emodel>
-76.636790854781

> <r_i_glide_energy>
-53.6207704544067

> <r_i_glide_einternal>
11.8785429000854

> <i_i_glide_confnum>
16

> <i_i_glide_posenum>
357

> <r_i_glide_eff_state_penalty>
0

> <s_user_duplicate_titles>
CHEMBL4618_lig280,466734

> <s_m_subgroup_title>
dock_pv

> <s_m_subgroupid>
dock_pv

> <b_m_subgroup_collapsed>
1

$$$$
CHEMBL4618_lig285
                    3D
 Schrodinger Suite 2021-1.
 51 54  0  0  1  0            999 V2000
   10.9388   34.1782   73.9850 C   0  0  0  0  0  0
   10.9209   35.3515   74.7450 C   0  0  0  0  0  0
   10.2891   36.5107   74.2850 C   0  0  0  0  0  0
   10.2821   34.0916   72.7581 C   0  0  0  0  0  0
    9.6141   35.2420   72.3400 C   0  0  0  0  0  0
    9.6094   36.4523   73.0596 C   0  0  0  0  0  0
    8.8880   37.3940   72.3737 N   0  0  0  0  0  0
    8.4952   36.7175   71.3161 C   0  0  0  0  0  0
    8.8692   35.4160   71.2229 O   0  0  0  0  0  0
    7.6269   37.1207   70.3405 O   0  0  0  0  0  0
    8.0153   38.1210   69.4891 C   0  0  0  0  0  0
    8.1488   37.8374   68.1383 C   0  0  0  0  0  0
    8.5211   38.8379   67.2419 C   0  0  0  0  0  0
    8.7047   40.1463   67.6882 C   0  0  0  0  0  0
    8.5210   40.4349   69.0464 C   0  0  0  0  0  0
    8.2225   39.4160   69.9402 C   0  0  0  0  0  0
    9.0582   41.0843   66.7417 O   0  0  0  0  0  0
    9.1560   42.4567   67.1173 C   0  0  0  0  0  0
    9.7979   43.2608   65.9746 C   0  0  0  0  0  0
   11.1492   42.8297   65.5692 N   0  0  1  0  0  0
   11.6671   43.6163   64.4454 C   0  0  0  0  0  0
   13.0523   43.1518   63.9422 C   0  0  0  0  0  0
   14.1123   43.0105   65.0490 C   0  0  0  0  0  0
   13.4850   42.3263   66.2809 C   0  0  0  0  0  0
   12.0940   42.8270   66.6846 C   0  0  0  0  0  0
   15.4286   42.3645   64.5344 C   0  0  0  0  0  0
   16.4319   42.2016   65.5288 O   0  0  0  0  0  0
   11.4474   33.3061   74.3746 H   0  0  0  0  0  0
   11.4225   35.3636   75.7044 H   0  0  0  0  0  0
   10.3138   37.4160   74.8678 H   0  0  0  0  0  0
   10.2618   33.1790   72.1796 H   0  0  0  0  0  0
    7.9891   36.8259   67.8165 H   0  0  0  0  0  0
    8.6555   38.6058   66.1952 H   0  0  0  0  0  0
    8.6224   41.4334   69.4383 H   0  0  0  0  0  0
    8.1210   39.6310   70.9913 H   0  0  0  0  0  0
    9.7278   42.6061   68.0325 H   0  0  0  0  0  0
    8.1543   42.8448   67.3108 H   0  0  0  0  0  0
    9.8003   44.3080   66.2504 H   0  0  0  0  0  0
    9.1142   43.1802   65.1398 H   0  0  0  0  0  0
   11.7137   44.6634   64.7400 H   0  0  0  0  0  0
   10.9547   43.5324   63.6253 H   0  0  0  0  0  0
   13.4216   43.8116   63.1552 H   0  0  0  0  0  0
   12.9211   42.1962   63.4406 H   0  0  0  0  0  0
   14.3223   44.0340   65.3634 H   0  0  0  0  0  0
   13.4143   41.2476   66.1280 H   0  0  0  0  0  0
   14.1210   42.4786   67.1400 H   0  0  0  0  0  0
   12.1542   43.8160   67.1327 H   0  0  0  0  0  0
   11.7194   42.1604   67.4581 H   0  0  0  0  0  0
   15.8515   42.9664   63.7288 H   0  0  0  0  0  0
   15.2137   41.3845   64.1066 H   0  0  0  0  0  0
   16.9471   43.0159   65.5501 H   0  0  0  0  0  0
  1  2  2  0  0  0
  1  4  1  0  0  0
  1 28  1  0  0  0
  2  3  1  0  0  0
  2 29  1  0  0  0
  3  6  2  0  0  0
  3 30  1  0  0  0
  4  5  2  0  0  0
  4 31  1  0  0  0
  5  9  1  0  0  0
  5  6  1  0  0  0
  6  7  1  0  0  0
  7  8  2  0  0  0
  8  9  1  0  0  0
  8 10  1  0  0  0
 10 11  1  0  0  0
 11 16  1  0  0  0
 11 12  2  0  0  0
 12 13  1  0  0  0
 12 32  1  0  0  0
 13 14  2  0  0  0
 13 33  1  0  0  0
 14 15  1  0  0  0
 14 17  1  0  0  0
 15 16  2  0  0  0
 15 34  1  0  0  0
 16 35  1  0  0  0
 17 18  1  0  0  0
 18 19  1  0  0  0
 18 36  1  0  0  0
 18 37  1  0  0  0
 19 20  1  0  0  0
 19 38  1  0  0  0
 19 39  1  0  0  0
 20 21  1  0  0  0
 20 25  1  0  0  0
 21 22  1  0  0  0
 21 40  1  0  0  0
 21 41  1  0  0  0
 22 23  1  0  0  0
 22 42  1  0  0  0
 22 43  1  0  0  0
 23 24  1  0  0  0
 23 26  1  0  0  0
 23 44  1  0  0  0
 24 25  1  0  0  0
 24 45  1  0  0  0
 24 46  1  0  0  0
 25 47  1  0  0  0
 25 48  1  0  0  0
 26 27  1  0  0  0
 26 49  1  0  0  0
 26 50  1  0  0  0
 27 51  1  0  0  0
M  END
> <s_m_entry_id>
6672

> <s_m_entry_name>
dock_pv.102

> <s_m_Source_Path>
/home/csk/Desktop/cluster/DUD-E-result/lkha4

> <s_m_Source_File>
dock_pv.maegz

> <i_m_Source_File_Index>
102

> <chembl_id>
CHEMBL481351

> <chembl_pref_name>
None

> <i_lp_mmshare_version>
53161

> <i_f3d_flags>
0

> <r_lp_tautomer_probability>
1

> <s_lp_Force_Field>
OPLS_2005

> <r_lp_Energy>
31.943262

> <b_lp_Chiralities_Consistent>
1

> <s_lp_Variant>
CHEMBL4618_lig285-1

> <s_i_glide_gridfile>
glide-grid_3chp

> <i_i_glide_lignum>
323

> <i_i_glide_rotatable_bonds>
8

> <r_i_docking_score>
-10.0434787675376

> <r_i_glide_ligand_efficiency>
-0.371980695093985

> <r_i_glide_ligand_efficiency_sa>
-1.11594208405597

> <r_i_glide_ligand_efficiency_ln>
-2.33795627739451

> <r_i_glide_gscore>
-10.0434787675376

> <r_i_glide_lipo>
-5.31427258042684

> <r_i_glide_hbond>
-0.32

> <r_i_glide_metal>
0

> <r_i_glide_rewards>
-1.53528070633175

> <r_i_glide_evdw>
-48.1688003540039

> <r_i_glide_ecoul>
-9.72816276550293

> <r_i_glide_erotb>
0.993738951746631

> <r_i_glide_esite>
0

> <r_i_glide_emodel>
-89.952896758328

> <r_i_glide_energy>
-57.8969631195068

> <r_i_glide_einternal>
11.7381505966187

> <i_i_glide_confnum>
41

> <i_i_glide_posenum>
277

> <r_i_glide_eff_state_penalty>
0

> <s_user_duplicate_titles>
CHEMBL4618_lig285,467639

> <s_m_subgroup_title>
dock_pv

> <s_m_subgroupid>
dock_pv

> <b_m_subgroup_collapsed>
1

$$$$
CHEMBL4618_lig35
                    3D
 Schrodinger Suite 2021-1.
 48 50  0  0  1  0            999 V2000
   16.3065   41.4160   64.5352 N   0  0  0  0  0  0
   11.2807   42.8458   66.0087 N   0  0  1  0  0  0
   15.1708   41.6476   64.5697 C   0  0  0  0  0  0
   11.7204   41.4499   66.1770 C   0  0  0  0  0  0
   11.8369   43.5612   64.8448 C   0  0  0  0  0  0
   13.7235   41.9047   64.6433 C   0  0  0  0  0  0
    8.0708   37.8778   69.6373 C   0  0  0  0  0  0
    7.7219   36.7909   70.6562 C   0  0  0  0  0  0
    8.6160   39.9406   67.7976 C   0  0  0  0  0  0
    8.2220   37.5962   68.2835 C   0  0  0  0  0  0
    8.1285   39.2000   70.0425 C   0  0  0  0  0  0
    8.3856   40.2297   69.1434 C   0  0  0  0  0  0
    8.5210   38.6149   67.3740 C   0  0  0  0  0  0
   13.2235   41.2768   65.9403 C   0  0  0  0  0  0
   13.3654   43.3930   64.6908 C   0  0  0  0  0  0
    8.7654   36.4039   71.7148 C   0  0  0  0  0  0
    8.9300   40.8924   66.8474 O   0  0  0  0  0  0
    9.8173   43.0194   66.0807 C   0  0  0  0  0  0
    9.1059   42.2626   67.2264 C   0  0  0  0  0  0
    9.3668   37.3696   72.5279 C   0  0  0  0  0  0
    9.0632   35.0545   71.9399 C   0  0  0  0  0  0
   10.2437   36.9947   73.5405 C   0  0  0  0  0  0
    9.9554   34.6755   72.9394 C   0  0  0  0  0  0
   10.5208   35.6479   73.7549 C   0  0  0  0  0  0
   11.1577   40.7780   65.5397 H   0  0  0  0  0  0
   11.4740   41.1248   67.1869 H   0  0  0  0  0  0
   11.3392   43.2114   63.9408 H   0  0  0  0  0  0
   11.5930   44.6163   64.9377 H   0  0  0  0  0  0
   13.2440   41.4359   63.7880 H   0  0  0  0  0  0
    6.8570   37.1526   71.2082 H   0  0  0  0  0  0
    7.3880   35.9017   70.1204 H   0  0  0  0  0  0
    8.1470   36.5793   67.9402 H   0  0  0  0  0  0
    7.9791   39.4160   71.0822 H   0  0  0  0  0  0
    8.4092   41.2404   69.5190 H   0  0  0  0  0  0
    8.6814   38.3739   66.3334 H   0  0  0  0  0  0
   13.4741   40.2169   65.9484 H   0  0  0  0  0  0
   13.7207   41.7479   66.7824 H   0  0  0  0  0  0
   13.8601   43.9076   65.5157 H   0  0  0  0  0  0
   13.7069   43.8845   63.7787 H   0  0  0  0  0  0
    9.5962   44.0824   66.1860 H   0  0  0  0  0  0
    9.3691   42.7031   65.1400 H   0  0  0  0  0  0
    9.6922   42.3705   68.1404 H   0  0  0  0  0  0
    8.1252   42.7052   67.4101 H   0  0  0  0  0  0
    9.1453   38.4144   72.4195 H   0  0  0  0  0  0
    8.5898   34.2895   71.3430 H   0  0  0  0  0  0
   10.6999   37.7443   74.1686 H   0  0  0  0  0  0
   10.1757   33.6303   73.1054 H   0  0  0  0  0  0
   11.1911   35.3565   74.5507 H   0  0  0  0  0  0
  1  3  3  0  0  0
  2  5  1  0  0  0
  2 18  1  0  0  0
  2  4  1  0  0  0
  3  6  1  0  0  0
  4 14  1  0  0  0
  4 25  1  0  0  0
  4 26  1  0  0  0
  5 15  1  0  0  0
  5 27  1  0  0  0
  5 28  1  0  0  0
  6 14  1  0  0  0
  6 15  1  0  0  0
  6 29  1  0  0  0
  7 10  2  0  0  0
  7  8  1  0  0  0
  7 11  1  0  0  0
  8 16  1  0  0  0
  8 30  1  0  0  0
  8 31  1  0  0  0
  9 17  1  0  0  0
  9 12  1  0  0  0
  9 13  2  0  0  0
 10 13  1  0  0  0
 10 32  1  0  0  0
 11 12  2  0  0  0
 11 33  1  0  0  0
 12 34  1  0  0  0
 13 35  1  0  0  0
 14 36  1  0  0  0
 14 37  1  0  0  0
 15 38  1  0  0  0
 15 39  1  0  0  0
 16 20  2  0  0  0
 16 21  1  0  0  0
 17 19  1  0  0  0
 18 19  1  0  0  0
 18 40  1  0  0  0
 18 41  1  0  0  0
 19 42  1  0  0  0
 19 43  1  0  0  0
 20 22  1  0  0  0
 20 44  1  0  0  0
 21 23  2  0  0  0
 21 45  1  0  0  0
 22 24  2  0  0  0
 22 46  1  0  0  0
 23 24  1  0  0  0
 23 47  1  0  0  0
 24 48  1  0  0  0
M  END
> <s_m_entry_id>
6673

> <s_m_entry_name>
dock_pv.103

> <s_m_Source_Path>
/home/csk/Desktop/cluster/DUD-E-result/lkha4

> <s_m_Source_File>
dock_pv.maegz

> <i_m_Source_File_Index>
103

> <chembl_id>
CHEMBL115603

> <chembl_pref_name>
None

> <i_lp_mmshare_version>
53161

> <i_f3d_flags>
0

> <r_lp_tautomer_probability>
1

> <s_lp_Force_Field>
OPLS_2005

> <r_lp_Energy>
24.864961

> <b_lp_Chiralities_Consistent>
1

> <s_lp_Variant>
CHEMBL4618_lig35-1

> <s_i_glide_gridfile>
glide-grid_3chp

> <i_i_glide_lignum>
48

> <i_i_glide_rotatable_bonds>
6

> <r_i_docking_score>
-10.0264060498031

> <r_i_glide_ligand_efficiency>
-0.417766918741798

> <r_i_glide_ligand_efficiency_sa>
-1.20504831681145

> <r_i_glide_ligand_efficiency_ln>
-2.39977904951219

> <r_i_glide_gscore>
-10.0264060498031

> <r_i_glide_lipo>
-5.79834764830032

> <r_i_glide_hbond>
-0.0378462059649012

> <r_i_glide_metal>
0

> <r_i_glide_rewards>
-2.12433558603959

> <r_i_glide_evdw>
-42.9604721069336

> <r_i_glide_ecoul>
-6.06019830703735

> <r_i_glide_erotb>
1.09117674190394

> <r_i_glide_esite>
-0.1

> <r_i_glide_emodel>
-72.6034112457522

> <r_i_glide_energy>
-49.0206704139709

> <r_i_glide_einternal>
10.8361692428589

> <i_i_glide_confnum>
160

> <i_i_glide_posenum>
199

> <r_i_glide_eff_state_penalty>
0

> <s_user_duplicate_titles>
CHEMBL4618_lig35,188987

> <s_m_subgroup_title>
dock_pv

> <s_m_subgroupid>
dock_pv

> <b_m_subgroup_collapsed>
1

$$$$
CHEMBL4618_lig230
                    3D
 Schrodinger Suite 2021-1.
 69 72  0  0  1  0            999 V2000
   20.1911   41.8050   71.3245 C   0  0  0  0  0  0
   19.0890   42.5271   72.0988 C   0  0  0  0  0  0
   19.4373   43.4308   73.1038 C   0  0  0  0  0  0
   18.4506   44.1616   73.7590 C   0  0  0  0  0  0
   17.0987   43.9853   73.4279 C   0  0  0  0  0  0
   16.7547   43.0485   72.4413 C   0  0  0  0  0  0
   17.7438   42.3228   71.7817 C   0  0  0  0  0  0
   16.0205   44.7833   74.1233 C   0  0  0  0  0  0
   16.4690   45.7545   74.9655 O   0  0  0  0  0  0
   14.8223   44.5852   73.9403 O   0  0  0  0  0  0
   20.1351   42.0648   69.8798 N   0  0  1  0  0  0
   11.3565   42.6184   65.6857 C   0  0  0  0  0  0
   12.2736   41.5940   65.9399 C   0  0  0  0  0  0
   13.6242   41.7806   65.6710 C   0  0  0  0  0  0
   14.1000   43.0205   65.2290 C   0  0  0  0  0  0
   13.1780   44.0085   64.9028 C   0  0  0  0  0  0
   11.8222   43.8111   65.1403 C   0  0  0  0  0  0
   15.4583   43.3890   65.1400 N   0  0  0  0  0  0
   16.5581   42.6161   65.0878 C   0  0  0  0  0  0
   17.9178   43.3050   64.8707 C   0  0  0  0  0  0
   16.5252   41.3928   65.1400 O   0  0  0  0  0  0
    9.9910   42.5126   65.8625 O   0  0  0  0  0  0
    9.4223   41.7076   66.8238 C   0  0  0  0  0  0
    8.6572   42.3224   67.8133 C   0  0  0  0  0  0
    8.0033   41.5504   68.7680 C   0  0  0  0  0  0
    8.1213   40.1630   68.7401 C   0  0  0  0  0  0
    8.8656   39.5375   67.7431 C   0  0  0  0  0  0
    9.4995   40.3101   66.7747 C   0  0  0  0  0  0
   18.5495   43.8976   66.0529 N   0  0  2  0  0  0
   19.6345   44.7725   65.5813 C   0  0  0  0  0  0
   19.0430   42.9884   67.1199 C   0  0  2  0  0  0
   19.0345   43.7905   68.4551 C   0  0  0  0  0  0
   20.1261   43.4731   69.4839 C   0  0  0  0  0  0
   20.3893   42.2572   66.7724 C   0  0  0  0  0  0
   20.8086   41.0467   67.6410 C   0  0  0  0  0  0
   21.1213   41.2851   69.1312 C   0  0  0  0  0  0
   20.0856   40.7347   71.5107 H   0  0  0  0  0  0
   21.1707   42.0950   71.7097 H   0  0  0  0  0  0
   20.4738   43.5840   73.3677 H   0  0  0  0  0  0
   18.7546   44.8628   74.5243 H   0  0  0  0  0  0
   15.7214   42.8829   72.1645 H   0  0  0  0  0  0
   17.4687   41.6221   71.0052 H   0  0  0  0  0  0
   15.7173   46.1984   75.3606 H   0  0  0  0  0  0
   11.9683   40.6365   66.3209 H   0  0  0  0  0  0
   14.2679   40.9452   65.8764 H   0  0  0  0  0  0
   13.5090   44.9631   64.5199 H   0  0  0  0  0  0
   11.1303   44.6141   64.9574 H   0  0  0  0  0  0
   15.6153   44.3618   64.9203 H   0  0  0  0  0  0
   18.5922   42.5896   64.3988 H   0  0  0  0  0  0
   17.7170   44.1010   64.1523 H   0  0  0  0  0  0
    8.5546   43.3983   67.8275 H   0  0  0  0  0  0
    7.4014   42.0262   69.5283 H   0  0  0  0  0  0
    7.6151   39.5702   69.4885 H   0  0  0  0  0  0
    8.9364   38.4598   67.7072 H   0  0  0  0  0  0
   10.0308   39.8148   65.9756 H   0  0  0  0  0  0
   19.3207   45.4160   64.7654 H   0  0  0  0  0  0
   20.0401   45.4070   66.3687 H   0  0  0  0  0  0
   20.4508   44.1880   65.1609 H   0  0  0  0  0  0
   18.2877   42.2161   67.2483 H   0  0  0  0  0  0
   19.1211   44.8595   68.2656 H   0  0  0  0  0  0
   18.0541   43.7082   68.9270 H   0  0  0  0  0  0
   19.9584   44.1277   70.3391 H   0  0  0  0  0  0
   21.0930   43.7539   69.0622 H   0  0  0  0  0  0
   20.3376   41.8936   65.7463 H   0  0  0  0  0  0
   21.2152   42.9681   66.7986 H   0  0  0  0  0  0
   20.1210   40.2165   67.5395 H   0  0  0  0  0  0
   21.7236   40.6459   67.1999 H   0  0  0  0  0  0
   21.1327   40.2838   69.5671 H   0  0  0  0  0  0
   22.1262   41.6881   69.2721 H   0  0  0  0  0  0
  1  2  1  0  0  0
  1 11  1  0  0  0
  1 37  1  0  0  0
  1 38  1  0  0  0
  2  7  1  0  0  0
  2  3  2  0  0  0
  3  4  1  0  0  0
  3 39  1  0  0  0
  4  5  2  0  0  0
  4 40  1  0  0  0
  5  6  1  0  0  0
  5  8  1  0  0  0
  6  7  2  0  0  0
  6 41  1  0  0  0
  7 42  1  0  0  0
  8  9  1  0  0  0
  8 10  2  0  0  0
  9 43  1  0  0  0
 11 36  1  0  0  0
 11 33  1  0  0  0
 12 22  1  0  0  0
 12 17  1  0  0  0
 12 13  2  0  0  0
 13 14  1  0  0  0
 13 44  1  0  0  0
 14 15  2  0  0  0
 14 45  1  0  0  0
 15 16  1  0  0  0
 15 18  1  0  0  0
 16 17  2  0  0  0
 16 46  1  0  0  0
 17 47  1  0  0  0
 18 19  1  0  0  0
 18 48  1  0  0  0
 19 20  1  0  0  0
 19 21  2  0  0  0
 20 29  1  0  0  0
 20 49  1  0  0  0
 20 50  1  0  0  0
 22 23  1  0  0  0
 23 28  1  0  0  0
 23 24  2  0  0  0
 24 25  1  0  0  0
 24 51  1  0  0  0
 25 26  2  0  0  0
 25 52  1  0  0  0
 26 27  1  0  0  0
 26 53  1  0  0  0
 27 28  2  0  0  0
 27 54  1  0  0  0
 28 55  1  0  0  0
 29 30  1  0  0  0
 29 31  1  0  0  0
 30 56  1  0  0  0
 30 57  1  0  0  0
 30 58  1  0  0  0
 31 32  1  0  0  0
 31 34  1  0  0  0
 31 59  1  0  0  0
 32 33  1  0  0  0
 32 60  1  0  0  0
 32 61  1  0  0  0
 33 62  1  0  0  0
 33 63  1  0  0  0
 34 35  1  0  0  0
 34 64  1  0  0  0
 34 65  1  0  0  0
 35 36  1  0  0  0
 35 66  1  0  0  0
 35 67  1  0  0  0
 36 68  1  0  0  0
 36 69  1  0  0  0
M  END
> <s_m_entry_id>
6674

> <s_m_entry_name>
dock_pv.104

> <s_m_Source_Path>
/home/csk/Desktop/cluster/DUD-E-result/lkha4

> <s_m_Source_File>
dock_pv.maegz

> <i_m_Source_File_Index>
104

> <chembl_id>
CHEMBL517525

> <chembl_pref_name>
None

> <i_lp_mmshare_version>
53161

> <i_f3d_flags>
0

> <r_lp_tautomer_probability>
1

> <s_lp_Force_Field>
OPLS_2005

> <r_lp_Energy>
58.874673

> <b_lp_Chiralities_Consistent>
1

> <s_lp_Variant>
CHEMBL4618_lig230-1

> <s_i_glide_gridfile>
glide-grid_3chp

> <i_i_glide_lignum>
263

> <i_i_glide_rotatable_bonds>
11

> <r_i_docking_score>
-10.0188977035519

> <r_i_glide_ligand_efficiency>
-0.278302713987553

> <r_i_glide_ligand_efficiency_sa>
-0.918935313659153

> <r_i_glide_ligand_efficiency_ln>
-2.18585279957992

> <r_i_glide_gscore>
-10.0188977035519

> <r_i_glide_lipo>
-5.13264163793383

> <r_i_glide_hbond>
-0.474273906299398

> <r_i_glide_metal>
0

> <r_i_glide_rewards>
-0.510086726159903

> <r_i_glide_evdw>
-55.449462890625

> <r_i_glide_ecoul>
-11.9764852523804

> <r_i_glide_erotb>
0.855139299360906

> <r_i_glide_esite>
-0.188088800131356

> <r_i_glide_emodel>
-94.9494466016437

> <r_i_glide_energy>
-67.4259481430054

> <r_i_glide_einternal>
12.7905931472778

> <i_i_glide_confnum>
7

> <i_i_glide_posenum>
310

> <r_i_glide_eff_state_penalty>
0

> <s_user_duplicate_titles>
CHEMBL4618_lig230,467113

> <s_m_subgroup_title>
dock_pv

> <s_m_subgroupid>
dock_pv

> <b_m_subgroup_collapsed>
1

$$$$
CHEMBL4618_lig396
                    3D
 Schrodinger Suite 2021-1.
 47 51  0  0  1  0            999 V2000
   13.2138   43.5877   66.3400 C   0  0  0  0  0  0
   12.3485   42.4070   66.3535 N   0  0  2  0  0  0
   12.7785   41.8517   65.0770 C   0  0  1  0  0  0
   14.0343   43.5961   65.0401 C   0  0  2  0  0  0
   13.0030   43.0160   64.1133 C   0  0  0  0  0  0
   14.1642   41.2514   65.1099 C   0  0  0  0  0  0
   14.9650   42.4719   65.1400 N   0  0  0  0  0  0
    9.7210   35.0160   73.0813 C   0  0  0  0  0  0
    8.9210   35.0318   71.9400 C   0  0  0  0  0  0
    9.9970   37.4267   73.0063 N   0  0  0  0  0  0
   10.2075   36.2177   73.5874 C   0  0  0  0  0  0
    9.2266   37.4567   71.9133 C   0  0  0  0  0  0
    8.6636   36.2801   71.3535 C   0  0  0  0  0  0
    7.7210   36.7215   69.9400 S   0  0  0  0  0  0
    8.1568   38.3756   70.2271 C   0  0  0  0  0  0
    8.9210   38.6152   71.2562 N   0  0  0  0  0  0
    7.5798   39.3024   69.3969 O   0  0  0  0  0  0
    8.3767   40.1220   68.6377 C   0  0  0  0  0  0
    9.3200   39.5920   67.7579 C   0  0  0  0  0  0
   10.1210   40.4396   66.9988 C   0  0  0  0  0  0
    9.9959   41.8218   67.1203 C   0  0  0  0  0  0
    8.9898   42.3474   67.9401 C   0  0  0  0  0  0
    8.1825   41.5004   68.6973 C   0  0  0  0  0  0
   10.9069   42.7681   66.3400 C   0  0  0  0  0  0
   16.3073   42.4787   65.1486 C   0  0  0  0  0  0
   17.0773   43.7853   65.3155 C   0  0  0  0  0  0
   16.9210   41.4160   65.1400 O   0  0  0  0  0  0
   13.8302   43.6885   67.2301 H   0  0  0  0  0  0
   12.5877   44.4734   66.2894 H   0  0  0  0  0  0
   12.1210   41.0740   64.7409 H   0  0  0  0  0  0
   14.4824   44.5479   64.7559 H   0  0  0  0  0  0
   13.4034   42.7241   63.1399 H   0  0  0  0  0  0
   12.1352   43.6577   63.9580 H   0  0  0  0  0  0
   14.3771   40.7340   64.1715 H   0  0  0  0  0  0
   14.2832   40.5648   65.9400 H   0  0  0  0  0  0
    9.9417   34.0834   73.5799 H   0  0  0  0  0  0
    8.5095   34.1176   71.5400 H   0  0  0  0  0  0
   10.8131   36.2259   74.4818 H   0  0  0  0  0  0
    9.4353   38.5217   67.6706 H   0  0  0  0  0  0
   10.8587   40.0145   66.3353 H   0  0  0  0  0  0
    8.8348   43.4145   68.0060 H   0  0  0  0  0  0
    7.4148   41.9105   69.3380 H   0  0  0  0  0  0
   10.7623   43.7533   66.7830 H   0  0  0  0  0  0
   10.5147   42.8514   65.3253 H   0  0  0  0  0  0
   17.3301   44.1937   64.3400 H   0  0  0  0  0  0
   16.5037   44.5267   65.8694 H   0  0  0  0  0  0
   18.0082   43.6071   65.8534 H   0  0  0  0  0  0
  1  2  1  0  0  0
  1  4  1  0  0  0
  1 28  1  0  0  0
  1 29  1  0  0  0
  2  3  1  0  0  0
  2 24  1  0  0  0
  3  5  1  0  0  0
  3  6  1  0  0  0
  3 30  1  0  0  0
  4  5  1  0  0  0
  4  7  1  0  0  0
  4 31  1  0  0  0
  5 32  1  0  0  0
  5 33  1  0  0  0
  6  7  1  0  0  0
  6 34  1  0  0  0
  6 35  1  0  0  0
  7 25  1  0  0  0
  8  9  2  0  0  0
  8 11  1  0  0  0
  8 36  1  0  0  0
  9 13  1  0  0  0
  9 37  1  0  0  0
 10 12  1  0  0  0
 10 11  2  0  0  0
 11 38  1  0  0  0
 12 13  2  0  0  0
 12 16  1  0  0  0
 13 14  1  0  0  0
 14 15  1  0  0  0
 15 16  2  0  0  0
 15 17  1  0  0  0
 17 18  1  0  0  0
 18 19  2  0  0  0
 18 23  1  0  0  0
 19 20  1  0  0  0
 19 39  1  0  0  0
 20 21  2  0  0  0
 20 40  1  0  0  0
 21 22  1  0  0  0
 21 24  1  0  0  0
 22 23  2  0  0  0
 22 41  1  0  0  0
 23 42  1  0  0  0
 24 43  1  0  0  0
 24 44  1  0  0  0
 25 26  1  0  0  0
 25 27  2  0  0  0
 26 45  1  0  0  0
 26 46  1  0  0  0
 26 47  1  0  0  0
M  END
> <s_m_entry_id>
6675

> <s_m_entry_name>
dock_pv.105

> <s_m_Source_Path>
/home/csk/Desktop/cluster/DUD-E-result/lkha4

> <s_m_Source_File>
dock_pv.maegz

> <i_m_Source_File_Index>
105

> <chembl_id>
CHEMBL2207750

> <chembl_pref_name>
None

> <i_lp_mmshare_version>
53161

> <i_f3d_flags>
0

> <r_lp_tautomer_probability>
1

> <s_lp_Force_Field>
OPLS_2005

> <r_lp_Energy>
82.667667

> <b_lp_Chiralities_Consistent>
1

> <s_lp_Variant>
CHEMBL4618_lig396-1

> <s_i_glide_gridfile>
glide-grid_3chp

> <i_i_glide_lignum>
458

> <i_i_glide_rotatable_bonds>
5

> <r_i_docking_score>
-10.0128249030176

> <r_i_glide_ligand_efficiency>
-0.370845366778429

> <r_i_glide_ligand_efficiency_sa>
-1.11253609911304

> <r_i_glide_ligand_efficiency_ln>
-2.33082056310271

> <r_i_glide_gscore>
-10.0128249030176

> <r_i_glide_lipo>
-4.7622697012761

> <r_i_glide_hbond>
-0.32

> <r_i_glide_metal>
0

> <r_i_glide_rewards>
-1.71476229697564

> <r_i_glide_evdw>
-37.2050895690918

> <r_i_glide_ecoul>
-11.2835474014282

> <r_i_glide_erotb>
0.536106206897227

> <r_i_glide_esite>
-0.199112522994251

> <r_i_glide_emodel>
-67.5458917657311

> <r_i_glide_energy>
-48.48863697052

> <r_i_glide_einternal>
12.6163902282715

> <i_i_glide_confnum>
1

> <i_i_glide_posenum>
325

> <r_i_glide_eff_state_penalty>
0

> <s_user_duplicate_titles>
CHEMBL4618_lig396

> <s_m_subgroup_title>
dock_pv

> <s_m_subgroupid>
dock_pv

> <b_m_subgroup_collapsed>
1

$$$$
CHEMBL4618_lig17
                    3D
 Schrodinger Suite 2021-1.
 57 60  0  0  1  0            999 V2000
   11.0687   41.7457   66.8003 N   0  0  1  0  0  0
   11.8114   41.4117   65.5760 C   0  0  1  0  0  0
   12.4195   43.4818   65.8524 C   0  0  2  0  0  0
   13.7729   42.7454   66.0488 C   0  0  1  0  0  0
   11.4173   43.1640   66.9888 C   0  0  0  0  0  0
   11.7771   42.6933   64.7417 C   0  0  0  0  0  0
   13.3132   41.2795   65.8700 C   0  0  0  0  0  0
   16.2667   42.6161   65.1515 C   0  0  0  0  0  0
   14.8598   43.2260   65.0395 C   0  0  0  0  0  0
   16.4904   41.4162   64.9594 O   0  0  0  0  0  0
    8.3005   36.9406   70.9237 C   0  0  0  0  0  0
    9.6110   41.5464   66.6472 C   0  0  0  0  0  0
    8.1212   35.8939   72.0150 C   0  0  0  0  0  0
    8.4747   38.8840   68.9036 C   0  0  0  0  0  0
   17.1832   43.5280   65.5335 O   0  0  0  0  0  0
    8.0280   36.6156   69.5959 C   0  0  0  0  0  0
    8.6189   38.2555   71.2479 C   0  0  0  0  0  0
    8.6987   39.2172   70.2434 C   0  0  0  0  0  0
    8.1224   37.5766   68.5970 C   0  0  0  0  0  0
    9.3205   35.5318   72.8858 C   0  0  0  0  0  0
    8.5736   39.7309   67.8177 O   0  0  0  0  0  0
    8.8320   41.1325   67.9237 C   0  0  0  0  0  0
   18.5527   43.1660   65.6604 C   0  0  0  0  0  0
   10.0626   34.3807   72.6090 C   0  0  0  0  0  0
    9.5519   36.2299   74.0748 C   0  0  0  0  0  0
   10.9837   33.9088   73.5400 C   0  0  0  0  0  0
   10.5211   35.7953   74.9747 C   0  0  0  0  0  0
   11.2212   34.6194   74.7116 C   0  0  0  0  0  0
   11.4555   40.4843   65.1400 H   0  0  0  0  0  0
   12.5165   44.5431   65.6314 H   0  0  0  0  0  0
   14.1337   42.9191   67.0617 H   0  0  0  0  0  0
   11.9070   43.3479   67.9392 H   0  0  0  0  0  0
   10.5495   43.8158   66.8907 H   0  0  0  0  0  0
   10.7725   43.0329   64.4833 H   0  0  0  0  0  0
   12.3852   42.6697   63.8351 H   0  0  0  0  0  0
   13.8175   40.7943   65.0334 H   0  0  0  0  0  0
   13.4544   40.6530   66.7402 H   0  0  0  0  0  0
   14.9522   44.3057   65.1393 H   0  0  0  0  0  0
   14.5332   43.0599   64.0146 H   0  0  0  0  0  0
    9.1315   42.4052   66.1752 H   0  0  0  0  0  0
    9.4667   40.7346   65.9398 H   0  0  0  0  0  0
    7.3204   36.2575   72.6589 H   0  0  0  0  0  0
    7.7211   34.9764   71.5803 H   0  0  0  0  0  0
    7.7233   35.6245   69.3163 H   0  0  0  0  0  0
    8.7844   38.5407   72.2753 H   0  0  0  0  0  0
    8.9210   40.2160   70.5307 H   0  0  0  0  0  0
    7.9291   37.3124   67.5692 H   0  0  0  0  0  0
    9.3204   41.4478   68.8387 H   0  0  0  0  0  0
    7.8612   41.6319   67.9267 H   0  0  0  0  0  0
   19.1509   44.0503   65.8816 H   0  0  0  0  0  0
   18.9381   42.7236   64.7422 H   0  0  0  0  0  0
   18.6919   42.4468   66.4695 H   0  0  0  0  0  0
    9.8698   33.8089   71.7133 H   0  0  0  0  0  0
    8.9485   37.0858   74.3297 H   0  0  0  0  0  0
   11.5329   33.0019   73.3444 H   0  0  0  0  0  0
   10.6918   36.3350   75.8944 H   0  0  0  0  0  0
   11.9390   34.2494   75.4305 H   0  0  0  0  0  0
  1  2  1  0  0  0
  1  5  1  0  0  0
  1 12  1  0  0  0
  2  6  1  0  0  0
  2  7  1  0  0  0
  2 29  1  0  0  0
  3  5  1  0  0  0
  3  4  1  0  0  0
  3  6  1  0  0  0
  3 30  1  0  0  0
  4  9  1  0  0  0
  4  7  1  0  0  0
  4 31  1  0  0  0
  5 32  1  0  0  0
  5 33  1  0  0  0
  6 34  1  0  0  0
  6 35  1  0  0  0
  7 36  1  0  0  0
  7 37  1  0  0  0
  8  9  1  0  0  0
  8 10  2  0  0  0
  8 15  1  0  0  0
  9 38  1  0  0  0
  9 39  1  0  0  0
 11 16  2  0  0  0
 11 13  1  0  0  0
 11 17  1  0  0  0
 12 22  1  0  0  0
 12 40  1  0  0  0
 12 41  1  0  0  0
 13 20  1  0  0  0
 13 42  1  0  0  0
 13 43  1  0  0  0
 14 21  1  0  0  0
 14 18  1  0  0  0
 14 19  2  0  0  0
 15 23  1  0  0  0
 16 19  1  0  0  0
 16 44  1  0  0  0
 17 18  2  0  0  0
 17 45  1  0  0  0
 18 46  1  0  0  0
 19 47  1  0  0  0
 20 24  1  0  0  0
 20 25  2  0  0  0
 21 22  1  0  0  0
 22 48  1  0  0  0
 22 49  1  0  0  0
 23 50  1  0  0  0
 23 51  1  0  0  0
 23 52  1  0  0  0
 24 26  2  0  0  0
 24 53  1  0  0  0
 25 27  1  0  0  0
 25 54  1  0  0  0
 26 28  1  0  0  0
 26 55  1  0  0  0
 27 28  2  0  0  0
 27 56  1  0  0  0
 28 57  1  0  0  0
M  END
> <s_m_entry_id>
6676

> <s_m_entry_name>
dock_pv.106

> <s_m_Source_Path>
/home/csk/Desktop/cluster/DUD-E-result/lkha4

> <s_m_Source_File>
dock_pv.maegz

> <i_m_Source_File_Index>
106

> <chembl_id>
CHEMBL116174

> <chembl_pref_name>
None

> <i_lp_mmshare_version>
53161

> <i_f3d_flags>
0

> <r_lp_tautomer_probability>
1

> <s_lp_Force_Field>
OPLS_2005

> <r_lp_Energy>
66.21093

> <b_lp_Chiralities_Consistent>
1

> <s_lp_Variant>
CHEMBL4618_lig17-2

> <s_i_glide_gridfile>
glide-grid_3chp

> <i_i_glide_lignum>
19

> <i_i_glide_rotatable_bonds>
9

> <r_i_docking_score>
-10.0061977210771

> <r_i_glide_ligand_efficiency>
-0.357364204324183

> <r_i_glide_ligand_efficiency_sa>
-1.0851682005886

> <r_i_glide_ligand_efficiency_ln>
-2.30972422875587

> <r_i_glide_gscore>
-10.0061977210771

> <r_i_glide_lipo>
-5.54744981106038

> <r_i_glide_hbond>
-0.32

> <r_i_glide_metal>
0

> <r_i_glide_rewards>
-1.72139826199047

> <r_i_glide_evdw>
-42.3341522216797

> <r_i_glide_ecoul>
-8.51854705810547

> <r_i_glide_erotb>
1.07714002177352

> <r_i_glide_esite>
-0.1

> <r_i_glide_emodel>
-73.4418466312462

> <r_i_glide_energy>
-50.8526992797852

> <r_i_glide_einternal>
7.2518572807312

> <i_i_glide_confnum>
26

> <i_i_glide_posenum>
371

> <r_i_glide_eff_state_penalty>
0

> <s_user_duplicate_titles>
CHEMBL4618_lig17,187650

> <s_m_subgroup_title>
dock_pv

> <s_m_subgroupid>
dock_pv

> <b_m_subgroup_collapsed>
1

$$$$
CHEMBL4618_lig157
                    3D
 Schrodinger Suite 2021-1.
 46 47  0  0  1  0            999 V2000
    9.4855   37.4818   72.3815 S   0  0  0  0  0  0
   16.2751   41.8115   64.2738 C   0  0  0  0  0  0
    8.6341   36.3510   71.3771 C   0  0  0  0  0  0
   15.0048   42.6218   64.1599 C   0  0  0  0  0  0
   10.1205   36.2578   73.4168 C   0  0  0  0  0  0
    8.9210   35.0679   71.8520 C   0  0  0  0  0  0
    9.7514   35.0097   72.9735 C   0  0  0  0  0  0
   16.9183   41.6627   65.3089 O   0  0  0  0  0  0
    7.7212   36.7692   70.2240 C   0  0  0  0  0  0
   13.7745   41.9097   64.7594 C   0  0  0  0  0  0
   12.7983   42.8499   65.3185 N   0  0  2  0  0  0
    8.1206   37.9726   69.3647 C   0  0  0  0  0  0
   16.5211   41.0967   63.1402 O   0  0  0  0  0  0
    8.7114   40.1739   67.7296 C   0  0  0  0  0  0
    8.1643   39.2555   69.9023 C   0  0  0  0  0  0
    8.3444   37.8144   67.9992 C   0  0  0  0  0  0
    8.4406   40.3514   69.0928 C   0  0  0  0  0  0
    8.6293   38.9010   67.1828 C   0  0  0  0  0  0
   10.5985   43.0262   66.4988 C   0  0  0  0  0  0
    9.0777   41.1875   66.8731 O   0  0  0  0  0  0
   11.6810   42.1027   65.9181 C   0  0  0  0  0  0
    9.5972   42.3778   67.4448 C   0  0  0  0  0  0
   12.3566   43.8468   64.3374 C   0  0  0  0  0  0
   15.2373   43.4836   64.7862 H   0  0  0  0  0  0
   14.8203   43.0159   63.1590 H   0  0  0  0  0  0
   10.7333   36.5146   74.2664 H   0  0  0  0  0  0
    8.5208   34.1759   71.3980 H   0  0  0  0  0  0
   10.0479   34.0888   73.4555 H   0  0  0  0  0  0
    6.7449   37.0277   70.6299 H   0  0  0  0  0  0
    7.5486   35.9115   69.5748 H   0  0  0  0  0  0
   13.3213   41.2865   63.9878 H   0  0  0  0  0  0
   14.0823   41.2192   65.5479 H   0  0  0  0  0  0
   15.9048   41.2574   62.4075 H   0  0  0  0  0  0
    7.9770   39.4116   70.9511 H   0  0  0  0  0  0
    8.3344   36.8356   67.5666 H   0  0  0  0  0  0
    8.4441   41.3336   69.5373 H   0  0  0  0  0  0
    8.8269   38.7484   66.1312 H   0  0  0  0  0  0
   11.1062   43.8173   67.0285 H   0  0  0  0  0  0
   10.0172   43.4658   65.6878 H   0  0  0  0  0  0
   11.2209   41.4518   65.1793 H   0  0  0  0  0  0
   12.0470   41.4390   66.7035 H   0  0  0  0  0  0
   10.1311   42.1858   68.3693 H   0  0  0  0  0  0
    8.7820   43.0634   67.6807 H   0  0  0  0  0  0
   11.7534   44.6157   64.8174 H   0  0  0  0  0  0
   13.1907   44.3801   63.8820 H   0  0  0  0  0  0
   11.7650   43.3974   63.5412 H   0  0  0  0  0  0
  1  3  1  0  0  0
  1  5  1  0  0  0
  2  4  1  0  0  0
  2  8  2  0  0  0
  2 13  1  0  0  0
  3  6  2  0  0  0
  3  9  1  0  0  0
  4 10  1  0  0  0
  4 24  1  0  0  0
  4 25  1  0  0  0
  5  7  2  0  0  0
  5 26  1  0  0  0
  6  7  1  0  0  0
  6 27  1  0  0  0
  7 28  1  0  0  0
  9 12  1  0  0  0
  9 29  1  0  0  0
  9 30  1  0  0  0
 10 11  1  0  0  0
 10 31  1  0  0  0
 10 32  1  0  0  0
 11 21  1  0  0  0
 11 23  1  0  0  0
 12 15  2  0  0  0
 12 16  1  0  0  0
 13 33  1  0  0  0
 14 18  1  0  0  0
 14 20  1  0  0  0
 14 17  2  0  0  0
 15 17  1  0  0  0
 15 34  1  0  0  0
 16 18  2  0  0  0
 16 35  1  0  0  0
 17 36  1  0  0  0
 18 37  1  0  0  0
 19 22  1  0  0  0
 19 21  1  0  0  0
 19 38  1  0  0  0
 19 39  1  0  0  0
 20 22  1  0  0  0
 21 40  1  0  0  0
 21 41  1  0  0  0
 22 42  1  0  0  0
 22 43  1  0  0  0
 23 44  1  0  0  0
 23 45  1  0  0  0
 23 46  1  0  0  0
M  END
> <s_m_entry_id>
6678

> <s_m_entry_name>
dock_pv.108

> <s_m_Source_Path>
/home/csk/Desktop/cluster/DUD-E-result/lkha4

> <s_m_Source_File>
dock_pv.maegz

> <i_m_Source_File_Index>
108

> <chembl_id>
CHEMBL119545

> <chembl_pref_name>
None

> <i_lp_mmshare_version>
53161

> <i_f3d_flags>
0

> <r_lp_tautomer_probability>
1

> <s_lp_Force_Field>
OPLS_2005

> <r_lp_Energy>
16.569399

> <b_lp_Chiralities_Consistent>
1

> <s_lp_Variant>
CHEMBL4618_lig157-1

> <s_i_glide_gridfile>
glide-grid_3chp

> <i_i_glide_lignum>
183

> <i_i_glide_rotatable_bonds>
11

> <r_i_docking_score>
-9.99469343628763

> <r_i_glide_ligand_efficiency>
-0.434551888534245

> <r_i_glide_ligand_efficiency_sa>
-1.23580776554305

> <r_i_glide_ligand_efficiency_ln>
-2.41680749976386

> <r_i_glide_gscore>
-9.99469343628763

> <r_i_glide_lipo>
-5.15708461717312

> <r_i_glide_hbond>
-0.304

> <r_i_glide_metal>
0

> <r_i_glide_rewards>
-1.88155321465262

> <r_i_glide_evdw>
-37.4308967590332

> <r_i_glide_ecoul>
-15.837664604187

> <r_i_glide_erotb>
1.69513892411781

> <r_i_glide_esite>
-0.1

> <r_i_glide_emodel>
-86.408926891637

> <r_i_glide_energy>
-53.2685613632202

> <r_i_glide_einternal>
12.1149482727051

> <i_i_glide_confnum>
16

> <i_i_glide_posenum>
382

> <r_i_glide_eff_state_penalty>
0

> <s_user_duplicate_titles>
CHEMBL4618_lig157,192428

> <s_m_subgroup_title>
dock_pv

> <s_m_subgroupid>
dock_pv

> <b_m_subgroup_collapsed>
1

$$$$
CHEMBL4618_lig58
                    3D
 Schrodinger Suite 2021-1.
 45 47  0  0  1  0            999 V2000
   15.8251   42.2160   64.3586 S   0  0  2  0  0  0
   18.2742   42.8321   66.6969 N   0  0  0  0  0  0
   16.5275   43.7597   65.1400 C   0  0  0  0  0  0
   14.0760   42.4241   64.8805 C   0  0  0  0  0  0
   16.3693   41.0160   65.1400 O   0  0  0  0  0  0
   17.0287   43.5924   66.5850 C   0  0  0  0  0  0
   13.4873   41.4149   65.6285 C   0  0  0  0  0  0
   13.3210   43.5458   64.5305 C   0  0  0  0  0  0
   11.4129   42.6396   65.7261 C   0  0  0  0  0  0
    9.9273   42.7772   66.0726 C   0  0  0  0  0  0
   12.1830   41.5327   66.0803 C   0  0  0  0  0  0
   12.0059   43.6548   64.9746 C   0  0  0  0  0  0
    9.2456   41.7782   67.0115 C   0  0  0  0  0  0
   19.4033   43.3143   65.9063 C   0  0  0  0  0  0
   18.7974   42.8172   68.0556 C   0  0  0  0  0  0
    9.3662   40.3891   66.8568 C   0  0  0  0  0  0
    8.4025   42.2814   68.0006 C   0  0  0  0  0  0
   20.2010   42.2312   67.9184 C   0  0  0  0  0  0
   20.6497   42.6699   66.5221 C   0  0  0  0  0  0
    8.7304   39.5202   67.7393 C   0  0  0  0  0  0
    7.7210   41.4130   68.8389 C   0  0  0  0  0  0
    7.9146   40.0388   68.7400 C   0  0  0  0  0  0
   15.7653   44.5327   65.1400 H   0  0  0  0  0  0
   17.3208   44.1283   64.4878 H   0  0  0  0  0  0
   16.2556   43.1057   67.1791 H   0  0  0  0  0  0
   17.1732   44.5833   67.0189 H   0  0  0  0  0  0
   14.0531   40.5414   65.9082 H   0  0  0  0  0  0
   13.7210   44.3397   63.9219 H   0  0  0  0  0  0
    9.7861   43.7853   66.4670 H   0  0  0  0  0  0
    9.3665   42.7556   65.1400 H   0  0  0  0  0  0
   11.8005   40.7428   66.6987 H   0  0  0  0  0  0
   11.4384   44.5386   64.7400 H   0  0  0  0  0  0
   19.4650   44.4040   65.8917 H   0  0  0  0  0  0
   19.2715   43.0145   64.8650 H   0  0  0  0  0  0
   18.1434   42.2160   68.6881 H   0  0  0  0  0  0
   18.7934   43.8098   68.5105 H   0  0  0  0  0  0
    9.9462   39.9666   66.0497 H   0  0  0  0  0  0
    8.2374   43.3454   68.1025 H   0  0  0  0  0  0
   20.1743   41.1442   68.0103 H   0  0  0  0  0  0
   20.8660   42.6009   68.6992 H   0  0  0  0  0  0
   21.4731   43.3832   66.5699 H   0  0  0  0  0  0
   20.9859   41.8160   65.9343 H   0  0  0  0  0  0
    8.8495   38.4517   67.6289 H   0  0  0  0  0  0
    7.0259   41.8166   69.5525 H   0  0  0  0  0  0
    7.3908   39.3741   69.4117 H   0  0  0  0  0  0
  1  3  1  0  0  0
  1  4  1  0  0  0
  1  5  2  0  0  0
  2  6  1  0  0  0
  2 14  1  0  0  0
  2 15  1  0  0  0
  3  6  1  0  0  0
  3 23  1  0  0  0
  3 24  1  0  0  0
  4  7  2  0  0  0
  4  8  1  0  0  0
  6 25  1  0  0  0
  6 26  1  0  0  0
  7 11  1  0  0  0
  7 27  1  0  0  0
  8 12  2  0  0  0
  8 28  1  0  0  0
  9 12  1  0  0  0
  9 10  1  0  0  0
  9 11  2  0  0  0
 10 13  1  0  0  0
 10 29  1  0  0  0
 10 30  1  0  0  0
 11 31  1  0  0  0
 12 32  1  0  0  0
 13 16  2  0  0  0
 13 17  1  0  0  0
 14 19  1  0  0  0
 14 33  1  0  0  0
 14 34  1  0  0  0
 15 18  1  0  0  0
 15 35  1  0  0  0
 15 36  1  0  0  0
 16 20  1  0  0  0
 16 37  1  0  0  0
 17 21  2  0  0  0
 17 38  1  0  0  0
 18 19  1  0  0  0
 18 39  1  0  0  0
 18 40  1  0  0  0
 19 41  1  0  0  0
 19 42  1  0  0  0
 20 22  2  0  0  0
 20 43  1  0  0  0
 21 22  1  0  0  0
 21 44  1  0  0  0
 22 45  1  0  0  0
M  END
> <s_m_entry_id>
6679

> <s_m_entry_name>
dock_pv.109

> <s_m_Source_Path>
/home/csk/Desktop/cluster/DUD-E-result/lkha4

> <s_m_Source_File>
dock_pv.maegz

> <i_m_Source_File_Index>
109

> <chembl_id>
CHEMBL354015

> <chembl_pref_name>
None

> <i_lp_mmshare_version>
53161

> <i_f3d_flags>
0

> <r_lp_tautomer_probability>
1

> <s_lp_Force_Field>
OPLS_2005

> <r_lp_Energy>
29.564237

> <b_lp_Chiralities_Consistent>
1

> <s_lp_Variant>
CHEMBL4618_lig58-1

> <s_i_glide_gridfile>
glide-grid_3chp

> <i_i_glide_lignum>
75

> <i_i_glide_rotatable_bonds>
6

> <r_i_docking_score>
-9.98608543394772

> <r_i_glide_ligand_efficiency>
-0.453912974270351

> <r_i_glide_ligand_efficiency_sa>
-1.27188200528981

> <r_i_glide_ligand_efficiency_ln>
-2.44096353137333

> <r_i_glide_gscore>
-9.98608543394772

> <r_i_glide_lipo>
-4.08621183730586

> <r_i_glide_hbond>
-0.283925469137791

> <r_i_glide_metal>
0

> <r_i_glide_rewards>
-2.17187713636364

> <r_i_glide_evdw>
-37.5304908752441

> <r_i_glide_ecoul>
-16.0849990844727

> <r_i_glide_erotb>
0.945203415292672

> <r_i_glide_esite>
-0.1

> <r_i_glide_emodel>
-90.9061127999

> <r_i_glide_energy>
-53.6154899597168

> <r_i_glide_einternal>
6.6774435043335

> <i_i_glide_confnum>
1

> <i_i_glide_posenum>
122

> <r_i_glide_eff_state_penalty>
0

> <s_user_duplicate_titles>
CHEMBL4618_lig58

> <s_m_subgroup_title>
dock_pv

> <s_m_subgroupid>
dock_pv

> <b_m_subgroup_collapsed>
1

$$$$
CHEMBL4618_lig396
                    3D
 Schrodinger Suite 2021-1.
 47 51  0  0  1  0            999 V2000
   12.5112   41.2451   65.6163 C   0  0  0  0  0  0
   11.8185   42.3016   66.3842 N   0  0  1  0  0  0
   12.3563   43.5148   65.7302 C   0  0  2  0  0  0
   13.3216   41.9865   64.5241 C   0  0  1  0  0  0
   12.4565   43.2074   64.2473 C   0  0  0  0  0  0
   13.8528   43.6805   66.0767 C   0  0  0  0  0  0
   14.4374   42.6333   65.2327 N   0  0  0  0  0  0
   10.3742   35.7145   73.7950 C   0  0  0  0  0  0
   10.1213   37.0160   73.3647 C   0  0  0  0  0  0
    9.1045   34.7873   71.9397 N   0  0  0  0  0  0
    9.8831   34.6480   73.0462 C   0  0  0  0  0  0
    8.8550   36.0340   71.5228 C   0  0  0  0  0  0
    9.3685   37.1734   72.1906 C   0  0  0  0  0  0
    8.9208   38.6045   71.2774 S   0  0  0  0  0  0
    8.0960   37.5796   70.1366 C   0  0  0  0  0  0
    8.1209   36.3008   70.4010 N   0  0  0  0  0  0
    7.4615   38.1612   69.0582 O   0  0  0  0  0  0
    8.0863   39.2045   68.4043 C   0  0  0  0  0  0
    7.9337   40.5517   68.7533 C   0  0  0  0  0  0
    8.6815   41.5407   68.1046 C   0  0  0  0  0  0
    9.5928   41.1920   67.0994 C   0  0  0  0  0  0
    9.6924   39.8469   66.7400 C   0  0  0  0  0  0
    8.9210   38.8722   67.3563 C   0  0  0  0  0  0
   10.3378   42.2837   66.3072 C   0  0  0  0  0  0
   15.7535   42.3807   65.0582 C   0  0  0  0  0  0
   16.7669   43.2865   65.7581 C   0  0  0  0  0  0
   16.1749   41.4158   64.4201 O   0  0  0  0  0  0
   11.8112   40.5740   65.1400 H   0  0  0  0  0  0
   13.1512   40.6165   66.2369 H   0  0  0  0  0  0
   11.7821   44.4141   65.9457 H   0  0  0  0  0  0
   13.6507   41.3839   63.6740 H   0  0  0  0  0  0
   11.4888   43.0161   63.7936 H   0  0  0  0  0  0
   12.9590   43.9783   63.6561 H   0  0  0  0  0  0
   14.0685   43.6104   67.1409 H   0  0  0  0  0  0
   14.2314   44.6158   65.6816 H   0  0  0  0  0  0
   10.9605   35.5345   74.6841 H   0  0  0  0  0  0
   10.5211   37.8609   73.9035 H   0  0  0  0  0  0
   10.0883   33.6329   73.3546 H   0  0  0  0  0  0
    7.2532   40.8303   69.5401 H   0  0  0  0  0  0
    8.5426   42.5757   68.3832 H   0  0  0  0  0  0
   10.3302   39.5201   65.9401 H   0  0  0  0  0  0
    9.0138   37.8392   67.0544 H   0  0  0  0  0  0
    9.9736   43.2465   66.6705 H   0  0  0  0  0  0
   10.0110   42.2257   65.2690 H   0  0  0  0  0  0
   16.5286   43.4151   66.8138 H   0  0  0  0  0  0
   17.7717   42.8716   65.6811 H   0  0  0  0  0  0
   16.7763   44.2647   65.2781 H   0  0  0  0  0  0
  1  2  1  0  0  0
  1  4  1  0  0  0
  1 28  1  0  0  0
  1 29  1  0  0  0
  2  3  1  0  0  0
  2 24  1  0  0  0
  3  5  1  0  0  0
  3  6  1  0  0  0
  3 30  1  0  0  0
  4  5  1  0  0  0
  4  7  1  0  0  0
  4 31  1  0  0  0
  5 32  1  0  0  0
  5 33  1  0  0  0
  6  7  1  0  0  0
  6 34  1  0  0  0
  6 35  1  0  0  0
  7 25  1  0  0  0
  8  9  2  0  0  0
  8 11  1  0  0  0
  8 36  1  0  0  0
  9 13  1  0  0  0
  9 37  1  0  0  0
 10 12  1  0  0  0
 10 11  2  0  0  0
 11 38  1  0  0  0
 12 13  2  0  0  0
 12 16  1  0  0  0
 13 14  1  0  0  0
 14 15  1  0  0  0
 15 16  2  0  0  0
 15 17  1  0  0  0
 17 18  1  0  0  0
 18 19  2  0  0  0
 18 23  1  0  0  0
 19 20  1  0  0  0
 19 39  1  0  0  0
 20 21  2  0  0  0
 20 40  1  0  0  0
 21 22  1  0  0  0
 21 24  1  0  0  0
 22 23  2  0  0  0
 22 41  1  0  0  0
 23 42  1  0  0  0
 24 43  1  0  0  0
 24 44  1  0  0  0
 25 26  1  0  0  0
 25 27  2  0  0  0
 26 45  1  0  0  0
 26 46  1  0  0  0
 26 47  1  0  0  0
M  END
> <s_m_entry_id>
6681

> <s_m_entry_name>
dock_pv.111

> <s_m_Source_Path>
/home/csk/Desktop/cluster/DUD-E-result/lkha4

> <s_m_Source_File>
dock_pv.maegz

> <i_m_Source_File_Index>
111

> <chembl_id>
CHEMBL2207750

> <chembl_pref_name>
None

> <i_lp_mmshare_version>
53161

> <i_f3d_flags>
0

> <r_lp_tautomer_probability>
1

> <s_lp_Force_Field>
OPLS_2005

> <r_lp_Energy>
78.176422

> <b_lp_Chiralities_Consistent>
1

> <s_lp_Variant>
CHEMBL4618_lig396-2

> <s_i_glide_gridfile>
glide-grid_3chp

> <i_i_glide_lignum>
459

> <i_i_glide_rotatable_bonds>
5

> <r_i_docking_score>
-9.97096796179463

> <r_i_glide_ligand_efficiency>
-0.369295109696098

> <r_i_glide_ligand_efficiency_sa>
-1.10788532787116

> <r_i_glide_ligand_efficiency_ln>
-2.32107695725161

> <r_i_glide_gscore>
-9.97096796179463

> <r_i_glide_lipo>
-5.25293492031856

> <r_i_glide_hbond>
0

> <r_i_glide_metal>
0

> <r_i_glide_rewards>
-1.70912107613794

> <r_i_glide_evdw>
-49.8794746398926

> <r_i_glide_ecoul>
-6.16022396087646

> <r_i_glide_erotb>
0.536106206897227

> <r_i_glide_esite>
-0.127010846109266

> <r_i_glide_emodel>
-77.9242369078762

> <r_i_glide_energy>
-56.039698600769

> <r_i_glide_einternal>
5.09148836135864

> <i_i_glide_confnum>
18

> <i_i_glide_posenum>
235

> <r_i_glide_eff_state_penalty>
0

> <s_user_duplicate_titles>
CHEMBL4618_lig396

> <s_m_subgroup_title>
dock_pv

> <s_m_subgroupid>
dock_pv

> <b_m_subgroup_collapsed>
1

$$$$
CHEMBL4618_lig15
                    3D
 Schrodinger Suite 2021-1.
 53 55  0  0  1  0            999 V2000
   11.5458   42.6722   65.5079 N   0  0  2  0  0  0
   16.5295   42.6161   65.4551 C   0  0  0  0  0  0
   16.6543   41.4225   65.1364 O   0  0  0  0  0  0
   12.6903   42.6544   66.4044 C   0  0  0  0  0  0
   13.9215   42.3820   65.5115 C   0  0  2  0  0  0
   15.1821   43.1960   65.9145 C   0  0  0  0  0  0
   12.0710   43.4165   64.3728 C   0  0  0  0  0  0
    8.1127   38.1192   69.5460 C   0  0  0  0  0  0
    7.6613   37.0462   70.5470 C   0  0  0  0  0  0
    8.7982   40.1274   67.6823 C   0  0  0  0  0  0
   17.5145   43.5277   65.5397 O   0  0  0  0  0  0
   13.4239   42.7539   64.1059 C   0  0  0  0  0  0
    8.2793   37.8149   68.1983 C   0  0  0  0  0  0
    8.2427   39.4434   69.9400 C   0  0  0  0  0  0
    8.5210   40.4490   69.0172 C   0  0  0  0  0  0
    8.6315   38.8026   67.2744 C   0  0  0  0  0  0
    8.6565   36.5697   71.6124 C   0  0  0  0  0  0
   10.2695   43.1796   66.0243 C   0  0  0  0  0  0
    9.2469   41.0419   66.7405 O   0  0  0  0  0  0
    9.6565   42.3454   67.1738 C   0  0  0  0  0  0
   18.8633   43.1622   65.2840 C   0  0  0  0  0  0
    8.9231   35.2069   71.7710 C   0  0  0  0  0  0
    9.2574   37.4681   72.4967 C   0  0  0  0  0  0
    9.7944   34.7494   72.7542 C   0  0  0  0  0  0
   10.1208   37.0159   73.4945 C   0  0  0  0  0  0
   10.3809   35.6565   73.6265 C   0  0  0  0  0  0
   12.5307   41.8721   67.1396 H   0  0  0  0  0  0
   12.7553   43.5882   66.9648 H   0  0  0  0  0  0
   14.1172   41.3069   65.5439 H   0  0  0  0  0  0
   15.2260   43.2837   66.9989 H   0  0  0  0  0  0
   15.0936   44.2157   65.5399 H   0  0  0  0  0  0
   12.1387   44.4855   64.5874 H   0  0  0  0  0  0
   11.3761   43.3465   63.5405 H   0  0  0  0  0  0
    6.7778   37.4192   71.0670 H   0  0  0  0  0  0
    7.3072   36.1850   69.9793 H   0  0  0  0  0  0
   14.1027   43.4170   63.5681 H   0  0  0  0  0  0
   13.3217   41.8742   63.4676 H   0  0  0  0  0  0
    8.1711   36.7887   67.8919 H   0  0  0  0  0  0
    8.1215   39.7150   70.9728 H   0  0  0  0  0  0
    8.5973   41.4632   69.3742 H   0  0  0  0  0  0
    8.8185   38.5354   66.2450 H   0  0  0  0  0  0
   10.3779   44.2157   66.3395 H   0  0  0  0  0  0
    9.5500   43.1905   65.2062 H   0  0  0  0  0  0
   10.3749   42.2703   67.9887 H   0  0  0  0  0  0
    8.7867   42.8808   67.5595 H   0  0  0  0  0  0
   19.4834   44.0566   65.2178 H   0  0  0  0  0  0
   18.9662   42.6151   64.3465 H   0  0  0  0  0  0
   19.2508   42.5316   66.0844 H   0  0  0  0  0  0
    8.4714   34.4696   71.1401 H   0  0  0  0  0  0
    9.0351   38.5185   72.4407 H   0  0  0  0  0  0
    9.9966   33.6921   72.8542 H   0  0  0  0  0  0
   10.5829   37.7179   74.1705 H   0  0  0  0  0  0
   11.0421   35.3061   74.4059 H   0  0  0  0  0  0
  1  4  1  0  0  0
  1  7  1  0  0  0
  1 18  1  0  0  0
  2  6  1  0  0  0
  2  3  2  0  0  0
  2 11  1  0  0  0
  4  5  1  0  0  0
  4 27  1  0  0  0
  4 28  1  0  0  0
  5  6  1  0  0  0
  5 12  1  0  0  0
  5 29  1  0  0  0
  6 30  1  0  0  0
  6 31  1  0  0  0
  7 12  1  0  0  0
  7 32  1  0  0  0
  7 33  1  0  0  0
  8 13  2  0  0  0
  8  9  1  0  0  0
  8 14  1  0  0  0
  9 17  1  0  0  0
  9 34  1  0  0  0
  9 35  1  0  0  0
 10 19  1  0  0  0
 10 15  1  0  0  0
 10 16  2  0  0  0
 11 21  1  0  0  0
 12 36  1  0  0  0
 12 37  1  0  0  0
 13 16  1  0  0  0
 13 38  1  0  0  0
 14 15  2  0  0  0
 14 39  1  0  0  0
 15 40  1  0  0  0
 16 41  1  0  0  0
 17 22  2  0  0  0
 17 23  1  0  0  0
 18 20  1  0  0  0
 18 42  1  0  0  0
 18 43  1  0  0  0
 19 20  1  0  0  0
 20 44  1  0  0  0
 20 45  1  0  0  0
 21 46  1  0  0  0
 21 47  1  0  0  0
 21 48  1  0  0  0
 22 24  1  0  0  0
 22 49  1  0  0  0
 23 25  2  0  0  0
 23 50  1  0  0  0
 24 26  2  0  0  0
 24 51  1  0  0  0
 25 26  1  0  0  0
 25 52  1  0  0  0
 26 53  1  0  0  0
M  END
> <s_m_entry_id>
6682

> <s_m_entry_name>
dock_pv.112

> <s_m_Source_Path>
/home/csk/Desktop/cluster/DUD-E-result/lkha4

> <s_m_Source_File>
dock_pv.maegz

> <i_m_Source_File_Index>
112

> <chembl_id>
CHEMBL115170

> <chembl_pref_name>
None

> <i_lp_mmshare_version>
53161

> <i_f3d_flags>
0

> <r_lp_tautomer_probability>
1

> <s_lp_Force_Field>
OPLS_2005

> <r_lp_Energy>
36.875402

> <b_lp_Chiralities_Consistent>
1

> <s_lp_Variant>
CHEMBL4618_lig15-1

> <s_i_glide_gridfile>
glide-grid_3chp

> <i_i_glide_lignum>
15

> <i_i_glide_rotatable_bonds>
9

> <r_i_docking_score>
-9.96917881485501

> <r_i_glide_ligand_efficiency>
-0.3834299544175

> <r_i_glide_ligand_efficiency_sa>
-1.13590973123783

> <r_i_glide_ligand_efficiency_ln>
-2.34122893312493

> <r_i_glide_gscore>
-9.96917881485501

> <r_i_glide_lipo>
-5.43869515000599

> <r_i_glide_hbond>
-0.32

> <r_i_glide_metal>
0

> <r_i_glide_rewards>
-1.89672222851115

> <r_i_glide_evdw>
-45.7173271179199

> <r_i_glide_ecoul>
-7.67192029953003

> <r_i_glide_erotb>
1.22289296448763

> <r_i_glide_esite>
-0.1

> <r_i_glide_emodel>
-83.3202878097096

> <r_i_glide_energy>
-53.38924741745

> <r_i_glide_einternal>
2.93351745605469

> <i_i_glide_confnum>
18

> <i_i_glide_posenum>
109

> <r_i_glide_eff_state_penalty>
0

> <s_user_duplicate_titles>
CHEMBL4618_lig15,188543

> <s_m_subgroup_title>
dock_pv

> <s_m_subgroupid>
dock_pv

> <b_m_subgroup_collapsed>
1

$$$$
CHEMBL4618_lig485
                    3D
 Schrodinger Suite 2021-1.
 50 53  0  0  1  0            999 V2000
   16.5212   45.0161   67.8239 N   0  0  0  0  0  0
   17.4916   44.3709   67.0509 C   0  0  0  0  0  0
   18.8277   44.5231   67.4305 C   0  0  0  0  0  0
   19.8431   43.8961   66.7100 C   0  0  0  0  0  0
   19.5255   43.1124   65.6052 C   0  0  0  0  0  0
   18.1952   42.9499   65.2231 C   0  0  0  0  0  0
   17.1626   43.5689   65.9383 C   0  0  0  0  0  0
   15.8138   43.4311   65.5521 N   0  0  0  0  0  0
   15.1850   42.3253   65.0983 C   0  0  0  0  0  0
   15.7580   41.2849   64.7399 O   0  0  0  0  0  0
   13.6888   42.3829   65.2897 C   0  0  0  0  0  0
   12.9505   43.5271   64.9677 C   0  0  0  0  0  0
   11.6146   43.6264   65.3547 C   0  0  0  0  0  0
   10.9952   42.6087   66.0839 C   0  0  0  0  0  0
    9.5435   42.8132   66.5537 C   0  0  0  0  0  0
    9.1934   42.1465   67.8175 N   0  0  0  0  0  0
    8.8078   40.7985   67.8872 C   0  0  0  0  0  0
    8.8011   40.0721   66.7410 N   0  0  0  0  0  0
    8.5209   38.7580   66.8491 C   0  0  0  0  0  0
    8.2819   38.1399   68.0729 C   0  0  0  0  0  0
    8.3626   38.9442   69.2100 C   0  0  0  0  0  0
    8.5529   40.2918   69.1263 N   0  0  0  0  0  0
    8.4684   38.3195   70.5469 C   0  0  0  0  0  0
    9.7113   38.2160   71.1806 C   0  0  0  0  0  0
    9.8457   37.5006   72.3714 C   0  0  0  0  0  0
    8.7125   36.9126   72.9179 C   0  0  0  0  0  0
    7.4944   37.0160   72.3400 N   0  0  0  0  0  0
    7.3851   37.6998   71.1704 C   0  0  0  0  0  0
   11.7179   41.4386   66.3399 C   0  0  0  0  0  0
   13.0409   41.3211   65.9243 C   0  0  0  0  0  0
   15.7511   44.4138   68.0957 H   0  0  0  0  0  0
   16.9058   45.5421   68.5932 H   0  0  0  0  0  0
   19.0867   45.1191   68.2917 H   0  0  0  0  0  0
   20.8759   44.0153   67.0033 H   0  0  0  0  0  0
   20.3078   42.6356   65.0316 H   0  0  0  0  0  0
   17.9843   42.3650   64.3403 H   0  0  0  0  0  0
   15.2159   44.1958   65.8265 H   0  0  0  0  0  0
   13.4150   44.3615   64.4590 H   0  0  0  0  0  0
   11.0752   44.5350   65.1402 H   0  0  0  0  0  0
    9.3540   43.8779   66.6895 H   0  0  0  0  0  0
    8.8704   42.4936   65.7575 H   0  0  0  0  0  0
    9.0633   42.7150   68.6410 H   0  0  0  0  0  0
    8.5341   38.2157   65.9229 H   0  0  0  0  0  0
    8.1464   37.0706   68.1422 H   0  0  0  0  0  0
   10.5796   38.6757   70.7405 H   0  0  0  0  0  0
   10.7990   37.4214   72.8705 H   0  0  0  0  0  0
    8.7634   36.3638   73.8470 H   0  0  0  0  0  0
    6.4013   37.7294   70.7280 H   0  0  0  0  0  0
   11.2808   40.6165   66.8808 H   0  0  0  0  0  0
   13.5881   40.4198   66.1641 H   0  0  0  0  0  0
  1  2  1  0  0  0
  1 31  1  0  0  0
  1 32  1  0  0  0
  2  3  2  0  0  0
  2  7  1  0  0  0
  3  4  1  0  0  0
  3 33  1  0  0  0
  4  5  2  0  0  0
  4 34  1  0  0  0
  5  6  1  0  0  0
  5 35  1  0  0  0
  6  7  2  0  0  0
  6 36  1  0  0  0
  7  8  1  0  0  0
  8  9  1  0  0  0
  8 37  1  0  0  0
  9 10  2  0  0  0
  9 11  1  0  0  0
 11 12  2  0  0  0
 11 30  1  0  0  0
 12 13  1  0  0  0
 12 38  1  0  0  0
 13 14  2  0  0  0
 13 39  1  0  0  0
 14 15  1  0  0  0
 14 29  1  0  0  0
 15 16  1  0  0  0
 15 40  1  0  0  0
 15 41  1  0  0  0
 16 17  1  0  0  0
 16 42  1  0  0  0
 17 18  2  0  0  0
 17 22  1  0  0  0
 18 19  1  0  0  0
 19 20  2  0  0  0
 19 43  1  0  0  0
 20 21  1  0  0  0
 20 44  1  0  0  0
 21 22  2  0  0  0
 21 23  1  0  0  0
 23 24  2  0  0  0
 23 28  1  0  0  0
 24 25  1  0  0  0
 24 45  1  0  0  0
 25 26  2  0  0  0
 25 46  1  0  0  0
 26 27  1  0  0  0
 26 47  1  0  0  0
 27 28  2  0  0  0
 28 48  1  0  0  0
 29 30  2  0  0  0
 29 49  1  0  0  0
 30 50  1  0  0  0
M  END
> <s_m_entry_id>
6683

> <s_m_entry_name>
dock_pv.113

> <s_m_Source_Path>
/home/csk/Desktop/cluster/DUD-E-result/lkha4

> <s_m_Source_File>
dock_pv.maegz

> <i_m_Source_File_Index>
113

> <chembl_id>
CHEMBL272980

> <chembl_pref_name>
MOCETINOSTAT

> <i_lp_mmshare_version>
53161

> <i_f3d_flags>
0

> <r_lp_tautomer_probability>
0.999999987636

> <s_lp_Force_Field>
OPLS_2005

> <r_lp_Energy>
22.26225

> <b_lp_Chiralities_Consistent>
1

> <s_lp_Variant>
CHEMBL4618_lig485-1

> <s_i_glide_gridfile>
glide-grid_3chp

> <i_i_glide_lignum>
585

> <i_i_glide_rotatable_bonds>
7

> <r_i_docking_score>
-9.96355351311855

> <r_i_glide_ligand_efficiency>
-0.332118450437285

> <r_i_glide_ligand_efficiency_sa>
-1.03196924385578

> <r_i_glide_ligand_efficiency_ln>
-2.26382791979116

> <r_i_glide_gscore>
-9.96355351311855

> <r_i_glide_lipo>
-4.70431420352615

> <r_i_glide_hbond>
-0.471452928576147

> <r_i_glide_metal>
0

> <r_i_glide_rewards>
-1.59558787042417

> <r_i_glide_evdw>
-55.1047706604004

> <r_i_glide_ecoul>
-7.41052198410034

> <r_i_glide_erotb>
0.871386893919242

> <r_i_glide_esite>
-0.196768573876251

> <r_i_glide_emodel>
-95.2414819087807

> <r_i_glide_energy>
-62.5152926445007

> <r_i_glide_einternal>
12.7995586395264

> <i_i_glide_confnum>
24

> <i_i_glide_posenum>
64

> <r_i_glide_eff_state_penalty>
0

> <s_user_duplicate_titles>
CHEMBL4618_lig485

> <s_m_subgroup_title>
dock_pv

> <s_m_subgroupid>
dock_pv

> <b_m_subgroup_collapsed>
1

$$$$
CHEMBL4618_lig393
                    3D
 Schrodinger Suite 2021-1.
 44 46  0  0  1  0            999 V2000
    9.2887   37.0034   71.9400 N   0  0  0  0  0  0
    8.9236   35.6047   71.7797 C   0  0  0  0  0  0
   10.0045   34.8685   72.5707 C   0  0  0  0  0  0
   10.2515   35.7923   73.7647 C   0  0  0  0  0  0
    9.5641   37.1032   73.3646 C   0  0  0  0  0  0
    8.2874   37.9582   71.4570 C   0  0  0  0  0  0
    8.2868   38.0381   69.9175 C   0  0  0  0  0  0
    7.5737   39.2135   69.5305 O   0  0  0  0  0  0
    8.1524   40.0676   68.6174 C   0  0  0  0  0  0
    7.9239   41.4332   68.7727 C   0  0  0  0  0  0
    8.6041   42.3586   67.9892 C   0  0  0  0  0  0
    9.5010   41.9281   67.0158 C   0  0  0  0  0  0
    9.6036   40.5539   66.7530 C   0  0  0  0  0  0
    8.9473   39.6277   67.5562 C   0  0  0  0  0  0
   10.2065   42.9055   66.3352 O   0  0  0  0  0  0
   11.4924   42.7377   65.8489 C   0  0  0  0  0  0
   12.3348   41.6796   66.1980 C   0  0  0  0  0  0
   13.5417   41.4905   65.5398 C   0  0  0  0  0  0
   13.9818   42.4203   64.6078 C   0  0  0  0  0  0
   13.2099   43.5475   64.3403 C   0  0  0  0  0  0
   11.9669   43.6944   64.9543 C   0  0  0  0  0  0
   15.1884   42.2161   63.9399 N   0  0  0  0  0  0
    8.9177   35.3622   70.7220 H   0  0  0  0  0  0
    7.9080   35.4096   72.1286 H   0  0  0  0  0  0
   10.8986   34.7377   71.9590 H   0  0  0  0  0  0
    9.7006   33.8683   72.8753 H   0  0  0  0  0  0
    9.8048   35.3919   74.6752 H   0  0  0  0  0  0
   11.3168   35.9292   73.9424 H   0  0  0  0  0  0
    8.6559   37.2813   73.9425 H   0  0  0  0  0  0
   10.2007   37.9700   73.5398 H   0  0  0  0  0  0
    7.2939   37.7007   71.8280 H   0  0  0  0  0  0
    8.5138   38.9494   71.8549 H   0  0  0  0  0  0
    9.3211   38.0382   69.5686 H   0  0  0  0  0  0
    7.8006   37.1649   69.4817 H   0  0  0  0  0  0
    7.2552   41.7859   69.5410 H   0  0  0  0  0  0
    8.4532   43.4152   68.1558 H   0  0  0  0  0  0
   10.2176   40.1846   65.9458 H   0  0  0  0  0  0
    9.0837   38.5734   67.3644 H   0  0  0  0  0  0
   12.0442   40.9740   66.9515 H   0  0  0  0  0  0
   14.1244   40.6160   65.7663 H   0  0  0  0  0  0
   13.5507   44.2872   63.6312 H   0  0  0  0  0  0
   11.3548   44.5525   64.7402 H   0  0  0  0  0  0
   15.0226   41.7196   63.0588 H   0  0  0  0  0  0
   15.6606   43.0948   63.7451 H   0  0  0  0  0  0
  1  2  1  0  0  0
  1  5  1  0  0  0
  1  6  1  0  0  0
  2  3  1  0  0  0
  2 23  1  0  0  0
  2 24  1  0  0  0
  3  4  1  0  0  0
  3 25  1  0  0  0
  3 26  1  0  0  0
  4  5  1  0  0  0
  4 27  1  0  0  0
  4 28  1  0  0  0
  5 29  1  0  0  0
  5 30  1  0  0  0
  6  7  1  0  0  0
  6 31  1  0  0  0
  6 32  1  0  0  0
  7  8  1  0  0  0
  7 33  1  0  0  0
  7 34  1  0  0  0
  8  9  1  0  0  0
  9 10  1  0  0  0
  9 14  2  0  0  0
 10 11  2  0  0  0
 10 35  1  0  0  0
 11 12  1  0  0  0
 11 36  1  0  0  0
 12 13  2  0  0  0
 12 15  1  0  0  0
 13 14  1  0  0  0
 13 37  1  0  0  0
 14 38  1  0  0  0
 15 16  1  0  0  0
 16 17  1  0  0  0
 16 21  2  0  0  0
 17 18  2  0  0  0
 17 39  1  0  0  0
 18 19  1  0  0  0
 18 40  1  0  0  0
 19 20  2  0  0  0
 19 22  1  0  0  0
 20 21  1  0  0  0
 20 41  1  0  0  0
 21 42  1  0  0  0
 22 43  1  0  0  0
 22 44  1  0  0  0
M  END
> <s_m_entry_id>
6684

> <s_m_entry_name>
dock_pv.114

> <s_m_Source_Path>
/home/csk/Desktop/cluster/DUD-E-result/lkha4

> <s_m_Source_File>
dock_pv.maegz

> <i_m_Source_File_Index>
114

> <chembl_id>
CHEMBL1775107

> <chembl_pref_name>
None

> <i_lp_mmshare_version>
53161

> <i_f3d_flags>
0

> <r_lp_tautomer_probability>
1

> <s_lp_Force_Field>
OPLS_2005

> <r_lp_Energy>
40.589445

> <b_lp_Chiralities_Consistent>
1

> <s_lp_Variant>
CHEMBL4618_lig393-1

> <s_i_glide_gridfile>
glide-grid_3chp

> <i_i_glide_lignum>
454

> <i_i_glide_rotatable_bonds>
6

> <r_i_docking_score>
-9.96261192741533

> <r_i_glide_ligand_efficiency>
-0.452845996700697

> <r_i_glide_ligand_efficiency_sa>
-1.26889229217779

> <r_i_glide_ligand_efficiency_ln>
-2.43522575015986

> <r_i_glide_gscore>
-9.96261192741533

> <r_i_glide_lipo>
-5.18673232282312

> <r_i_glide_hbond>
-0.436790248278094

> <r_i_glide_metal>
0

> <r_i_glide_rewards>
-1.89361785833761

> <r_i_glide_evdw>
-45.1562995910645

> <r_i_glide_ecoul>
-7.45472764968872

> <r_i_glide_erotb>
1.03055262903003

> <r_i_glide_esite>
-0.1

> <r_i_glide_emodel>
-72.6651620883764

> <r_i_glide_energy>
-52.6110272407532

> <r_i_glide_einternal>
10.23801612854

> <i_i_glide_confnum>
61

> <i_i_glide_posenum>
30

> <r_i_glide_eff_state_penalty>
0

> <s_user_duplicate_titles>
CHEMBL4618_lig393

> <s_m_subgroup_title>
dock_pv

> <s_m_subgroupid>
dock_pv

> <b_m_subgroup_collapsed>
1

$$$$
CHEMBL4618_lig185
                    3D
 Schrodinger Suite 2021-1.
 44 45  0  0  1  0            999 V2000
    9.2045   37.8053   72.3462 C   0  0  0  0  0  0
    9.1485   36.4271   72.5149 C   0  0  0  0  0  0
    8.6003   35.6288   71.5228 C   0  0  0  0  0  0
    8.1210   36.2248   70.3591 C   0  0  0  0  0  0
    8.1416   37.6068   70.2001 C   0  0  0  0  0  0
    8.6930   38.4061   71.1998 C   0  0  0  0  0  0
    7.5270   38.1852   68.9367 C   0  0  0  0  0  0
    7.4396   39.6159   68.9638 O   0  0  0  0  0  0
    8.3167   40.3767   68.2200 C   0  0  0  0  0  0
    8.1438   41.7633   68.2251 C   0  0  0  0  0  0
    9.0146   42.5895   67.5102 C   0  0  0  0  0  0
   10.0814   42.0349   66.7965 C   0  0  0  0  0  0
   10.1991   40.6424   66.7400 C   0  0  0  0  0  0
    9.3420   39.8273   67.4501 C   0  0  0  0  0  0
   11.0068   42.9033   66.1753 N   0  0  0  0  0  0
   12.2805   42.6074   65.8148 C   0  0  0  0  0  0
   13.1506   43.7609   65.2549 C   0  0  2  0  0  0
   12.8071   41.4992   65.9402 O   0  0  0  0  0  0
   12.6447   44.1831   63.9400 N   0  0  0  0  0  0
   14.6614   43.4269   65.2151 C   0  0  0  0  0  0
   15.0622   42.4862   64.0559 C   0  0  0  0  0  0
   16.4035   41.8160   64.2649 C   0  0  0  0  0  0
   16.8438   41.1955   63.1400 O   0  0  0  0  0  0
   16.9210   41.5779   65.3540 O   0  0  0  0  0  0
    9.6264   38.3874   73.1400 H   0  0  0  0  0  0
    9.5308   35.9776   73.4199 H   0  0  0  0  0  0
    8.5558   34.5556   71.6394 H   0  0  0  0  0  0
    7.7210   35.6260   69.5621 H   0  0  0  0  0  0
    8.7112   39.4817   71.1027 H   0  0  0  0  0  0
    6.5201   37.8089   68.8977 H   0  0  0  0  0  0
    7.9664   37.7407   68.0470 H   0  0  0  0  0  0
    7.3318   42.2019   68.7890 H   0  0  0  0  0  0
    8.8602   43.6574   67.5362 H   0  0  0  0  0  0
   10.9507   40.1478   66.1475 H   0  0  0  0  0  0
    9.5400   38.7716   67.3874 H   0  0  0  0  0  0
   10.7158   43.8630   66.0673 H   0  0  0  0  0  0
   13.0277   44.5868   65.9400 H   0  0  0  0  0  0
   13.2250   44.9515   63.6265 H   0  0  0  0  0  0
   12.8446   43.4508   63.2687 H   0  0  0  0  0  0
   14.9600   43.0157   66.1805 H   0  0  0  0  0  0
   15.2361   44.3466   65.1401 H   0  0  0  0  0  0
   15.0669   43.0160   63.1070 H   0  0  0  0  0  0
   14.3330   41.6848   63.9368 H   0  0  0  0  0  0
   16.3418   41.4160   62.3345 H   0  0  0  0  0  0
  1  6  1  0  0  0
  1  2  2  0  0  0
  1 25  1  0  0  0
  2  3  1  0  0  0
  2 26  1  0  0  0
  3  4  2  0  0  0
  3 27  1  0  0  0
  4  5  1  0  0  0
  4 28  1  0  0  0
  5  7  1  0  0  0
  5  6  2  0  0  0
  6 29  1  0  0  0
  7  8  1  0  0  0
  7 30  1  0  0  0
  7 31  1  0  0  0
  8  9  1  0  0  0
  9 14  1  0  0  0
  9 10  2  0  0  0
 10 11  1  0  0  0
 10 32  1  0  0  0
 11 12  2  0  0  0
 11 33  1  0  0  0
 12 13  1  0  0  0
 12 15  1  0  0  0
 13 14  2  0  0  0
 13 34  1  0  0  0
 14 35  1  0  0  0
 15 16  1  0  0  0
 15 36  1  0  0  0
 16 17  1  0  0  0
 16 18  2  0  0  0
 17 19  1  0  0  0
 17 20  1  0  0  0
 17 37  1  0  0  0
 19 38  1  0  0  0
 19 39  1  0  0  0
 20 21  1  0  0  0
 20 40  1  0  0  0
 20 41  1  0  0  0
 21 22  1  0  0  0
 21 42  1  0  0  0
 21 43  1  0  0  0
 22 23  1  0  0  0
 22 24  2  0  0  0
 23 44  1  0  0  0
M  END
> <s_m_entry_id>
6685

> <s_m_entry_name>
dock_pv.115

> <s_m_Source_Path>
/home/csk/Desktop/cluster/DUD-E-result/lkha4

> <s_m_Source_File>
dock_pv.maegz

> <i_m_Source_File_Index>
115

> <chembl_id>
CHEMBL477478

> <chembl_pref_name>
None

> <i_lp_mmshare_version>
53161

> <i_f3d_flags>
0

> <r_lp_tautomer_probability>
1

> <s_lp_Force_Field>
OPLS_2005

> <r_lp_Energy>
20.202238

> <b_lp_Chiralities_Consistent>
1

> <s_lp_Variant>
CHEMBL4618_lig185-1

> <s_i_glide_gridfile>
glide-grid_3chp

> <i_i_glide_lignum>
212

> <i_i_glide_rotatable_bonds>
10

> <r_i_docking_score>
-9.95044495857135

> <r_i_glide_ligand_efficiency>
-0.414601873273806

> <r_i_glide_ligand_efficiency_sa>
-1.19591874588869

> <r_i_glide_ligand_efficiency_ln>
-2.38159807475307

> <r_i_glide_gscore>
-9.95044495857135

> <r_i_glide_lipo>
-4.29451490833438

> <r_i_glide_hbond>
-0.488880537456009

> <r_i_glide_metal>
0

> <r_i_glide_rewards>
-1.7398514762522

> <r_i_glide_evdw>
-38.218204498291

> <r_i_glide_ecoul>
-19.8927917480469

> <r_i_glide_erotb>
1.56763095059282

> <r_i_glide_esite>
-0.1

> <r_i_glide_emodel>
-96.7016980869585

> <r_i_glide_energy>
-58.1109962463379

> <r_i_glide_einternal>
7.03202629089355

> <i_i_glide_confnum>
88

> <i_i_glide_posenum>
213

> <r_i_glide_eff_state_penalty>
0

> <s_user_duplicate_titles>
CHEMBL4618_lig185

> <s_m_subgroup_title>
dock_pv

> <s_m_subgroupid>
dock_pv

> <b_m_subgroup_collapsed>
1

$$$$
CHEMBL4618_lig431
                    3D
 Schrodinger Suite 2021-1.
 50 55  0  0  1  0            999 V2000
    7.4931   37.9653   68.9157 O   0  0  0  0  0  0
    8.9211   38.5673   71.1404 S   0  0  0  0  0  0
    8.0933   37.4759   70.0497 C   0  0  0  0  0  0
    8.1210   36.2161   70.3653 N   0  0  0  0  0  0
    8.8918   36.0016   71.4657 C   0  0  0  0  0  0
    9.3787   37.1726   72.0926 C   0  0  0  0  0  0
    9.2754   34.7581   71.9897 C   0  0  0  0  0  0
   10.0688   34.7560   73.1413 C   0  0  0  0  0  0
   10.4194   35.9731   73.7281 C   0  0  0  0  0  0
   10.1204   37.1910   73.2005 N   0  0  0  0  0  0
    9.6314   39.9890   66.7401 C   0  0  0  0  0  0
    8.9332   38.9181   67.3085 C   0  0  0  0  0  0
    8.0194   39.0906   68.3329 C   0  0  0  0  0  0
    7.6677   40.3714   68.7400 C   0  0  0  0  0  0
    9.5230   42.6163   66.5761 C   0  0  0  0  0  0
    9.2238   41.2905   67.0487 C   0  0  0  0  0  0
    8.2220   41.4372   68.0324 C   0  0  0  0  0  0
    7.8166   42.7185   68.1127 O   0  0  0  0  0  0
    8.4986   43.3739   67.1400 C   0  0  0  0  0  0
   10.5091   43.0636   65.5101 C   0  0  0  0  0  0
   11.8825   42.5452   65.6085 N   0  0  2  0  0  0
   12.7702   43.3374   66.4684 C   0  0  0  0  0  0
   13.9488   43.8254   65.5776 C   0  0  1  0  0  0
   14.7064   42.6512   65.1079 N   0  0  0  0  0  0
   13.8044   41.8376   64.2987 C   0  0  0  0  0  0
   12.5761   42.7559   64.3316 C   0  0  2  0  0  0
   16.0399   42.4592   65.1401 C   0  0  0  0  0  0
   16.5591   41.4160   64.7382 O   0  0  0  0  0  0
   16.9216   43.5135   65.8063 C   0  0  0  0  0  0
   13.1618   44.1516   64.3316 C   0  0  0  0  0  0
    8.9396   33.8359   71.5401 H   0  0  0  0  0  0
   10.3716   33.8221   73.5934 H   0  0  0  0  0  0
   10.9734   35.9855   74.6542 H   0  0  0  0  0  0
   10.3917   39.8162   65.9935 H   0  0  0  0  0  0
    9.1289   37.9092   66.9964 H   0  0  0  0  0  0
    6.9214   40.5166   69.4865 H   0  0  0  0  0  0
    8.1249   44.3774   66.9824 H   0  0  0  0  0  0
   10.5033   44.1504   65.4148 H   0  0  0  0  0  0
   10.1210   42.7121   64.5669 H   0  0  0  0  0  0
   13.0891   42.8211   67.3703 H   0  0  0  0  0  0
   12.2105   44.2159   66.7564 H   0  0  0  0  0  0
   14.5485   44.6159   66.0180 H   0  0  0  0  0  0
   13.6189   40.8162   64.6349 H   0  0  0  0  0  0
   14.2126   41.8163   63.2881 H   0  0  0  0  0  0
   11.9834   42.6160   63.4497 H   0  0  0  0  0  0
   16.8678   44.4478   65.2474 H   0  0  0  0  0  0
   16.6084   43.6927   66.8350 H   0  0  0  0  0  0
   17.9629   43.1905   65.8139 H   0  0  0  0  0  0
   12.4328   44.9497   64.4608 H   0  0  0  0  0  0
   13.7210   44.3534   63.4232 H   0  0  0  0  0  0
  1  3  1  0  0  0
  1 13  1  0  0  0
  2  3  1  0  0  0
  2  6  1  0  0  0
  3  4  2  0  0  0
  4  5  1  0  0  0
  5  6  1  0  0  0
  5  7  2  0  0  0
  6 10  2  0  0  0
  7  8  1  0  0  0
  7 31  1  0  0  0
  8  9  2  0  0  0
  8 32  1  0  0  0
  9 10  1  0  0  0
  9 33  1  0  0  0
 11 16  2  0  0  0
 11 12  1  0  0  0
 11 34  1  0  0  0
 12 13  2  0  0  0
 12 35  1  0  0  0
 13 14  1  0  0  0
 14 17  2  0  0  0
 14 36  1  0  0  0
 15 16  1  0  0  0
 15 19  2  0  0  0
 15 20  1  0  0  0
 16 17  1  0  0  0
 17 18  1  0  0  0
 18 19  1  0  0  0
 19 37  1  0  0  0
 20 21  1  0  0  0
 20 38  1  0  0  0
 20 39  1  0  0  0
 21 22  1  0  0  0
 21 26  1  0  0  0
 22 23  1  0  0  0
 22 40  1  0  0  0
 22 41  1  0  0  0
 23 24  1  0  0  0
 23 30  1  0  0  0
 23 42  1  0  0  0
 24 25  1  0  0  0
 24 27  1  0  0  0
 25 26  1  0  0  0
 25 43  1  0  0  0
 25 44  1  0  0  0
 26 30  1  0  0  0
 26 45  1  0  0  0
 27 28  2  0  0  0
 27 29  1  0  0  0
 29 46  1  0  0  0
 29 47  1  0  0  0
 29 48  1  0  0  0
 30 49  1  0  0  0
 30 50  1  0  0  0
M  END
> <s_m_entry_id>
6686

> <s_m_entry_name>
dock_pv.116

> <s_m_Source_Path>
/home/csk/Desktop/cluster/DUD-E-result/lkha4

> <s_m_Source_File>
dock_pv.maegz

> <i_m_Source_File_Index>
116

> <chembl_id>
CHEMBL2313557

> <chembl_pref_name>
None

> <i_lp_mmshare_version>
53161

> <i_f3d_flags>
0

> <r_lp_tautomer_probability>
1

> <s_lp_Force_Field>
OPLS_2005

> <r_lp_Energy>
82.568137

> <b_lp_Chiralities_Consistent>
1

> <s_lp_Variant>
CHEMBL4618_lig431-2

> <s_i_glide_gridfile>
glide-grid_3chp

> <i_i_glide_lignum>
499

> <i_i_glide_rotatable_bonds>
5

> <r_i_docking_score>
-9.94733683268019

> <r_i_glide_ligand_efficiency>
-0.331577894422673

> <r_i_glide_ligand_efficiency_sa>
-1.03028961063779

> <r_i_glide_ligand_efficiency_ln>
-2.26014331330068

> <r_i_glide_gscore>
-9.94733683268019

> <r_i_glide_lipo>
-5.48683943147589

> <r_i_glide_hbond>
-0.1552291441282

> <r_i_glide_metal>
0

> <r_i_glide_rewards>
-1.4206348008775

> <r_i_glide_evdw>
-42.0234718322754

> <r_i_glide_ecoul>
-7.03796434402466

> <r_i_glide_erotb>
0.447782355423934

> <r_i_glide_esite>
-0.175547568405072

> <r_i_glide_emodel>
-63.2079649695449

> <r_i_glide_energy>
-49.0614361763

> <r_i_glide_einternal>
7.19261026382446

> <i_i_glide_confnum>
7

> <i_i_glide_posenum>
172

> <r_i_glide_eff_state_penalty>
0

> <s_user_duplicate_titles>
CHEMBL4618_lig431

> <s_m_subgroup_title>
dock_pv

> <s_m_subgroupid>
dock_pv

> <b_m_subgroup_collapsed>
1

$$$$
CHEMBL4618_lig149
                    3D
 Schrodinger Suite 2021-1.
 57 59  0  0  1  0            999 V2000
   18.2167   43.7584   66.6494 C   0  0  0  0  0  0
   17.8773   43.4995   65.1815 C   0  0  0  0  0  0
    9.0171   36.5570   71.9407 C   0  0  0  0  0  0
   18.2806   44.8885   67.1353 O   0  0  0  0  0  0
    7.3257   39.1938   69.1407 O   0  0  0  0  0  0
    9.7236   35.6404   72.8951 C   0  0  0  0  0  0
    9.0482   37.9321   72.1274 C   0  0  0  0  0  0
    8.3820   36.0880   70.7880 C   0  0  0  0  0  0
   16.6738   42.5692   64.8284 C   0  0  0  0  0  0
   15.3685   42.6916   65.5211 N   0  0  2  0  0  0
    7.8974   38.3251   70.0420 C   0  0  0  0  0  0
    8.1603   40.0061   68.4073 C   0  0  0  0  0  0
   18.4802   42.6165   67.3293 O   0  0  0  0  0  0
    9.9168   41.6267   66.9602 C   0  0  0  0  0  0
    8.5191   38.8048   71.1844 C   0  0  0  0  0  0
    7.8170   36.9530   69.8501 C   0  0  0  0  0  0
    9.0096   39.4403   67.4625 C   0  0  0  0  0  0
    8.1240   41.3911   68.5735 C   0  0  0  0  0  0
    9.8780   40.2469   66.7401 C   0  0  0  0  0  0
    9.0025   42.2003   67.8470 C   0  0  0  0  0  0
   12.8131   42.7264   64.9555 C   0  0  0  0  0  0
   10.8000   42.4562   66.2924 O   0  0  0  0  0  0
   14.2731   42.2704   64.6072 C   0  0  0  0  0  0
   12.1637   42.0269   66.1620 C   0  0  0  0  0  0
   10.1219   34.3596   72.4975 C   0  0  0  0  0  0
   10.0959   36.0701   74.1809 C   0  0  0  0  0  0
   15.0750   44.0362   66.0056 C   0  0  0  0  0  0
   10.9196   35.2964   74.9880 C   0  0  0  0  0  0
   10.9216   33.5705   73.3049 C   0  0  0  0  0  0
   11.3376   34.0520   74.5329 C   0  0  0  0  0  0
   17.6721   44.4848   64.7671 H   0  0  0  0  0  0
   18.7967   43.1164   64.7411 H   0  0  0  0  0  0
    9.5088   38.3424   73.0066 H   0  0  0  0  0  0
    8.3348   35.0294   70.6188 H   0  0  0  0  0  0
   16.5472   42.6688   63.7465 H   0  0  0  0  0  0
   17.0116   41.5433   64.9512 H   0  0  0  0  0  0
   18.6944   42.8146   68.2439 H   0  0  0  0  0  0
    8.5480   39.8624   71.3598 H   0  0  0  0  0  0
    7.3401   36.5685   68.9657 H   0  0  0  0  0  0
    9.0059   38.3745   67.2978 H   0  0  0  0  0  0
    7.4366   41.8315   69.2781 H   0  0  0  0  0  0
   10.5153   39.7803   66.0040 H   0  0  0  0  0  0
    8.9834   43.2713   67.9888 H   0  0  0  0  0  0
   12.7459   43.7992   65.1195 H   0  0  0  0  0  0
   12.1990   42.6152   64.0672 H   0  0  0  0  0  0
   14.4686   42.5836   63.5755 H   0  0  0  0  0  0
   14.2903   41.1787   64.6012 H   0  0  0  0  0  0
   12.2747   40.9524   66.0312 H   0  0  0  0  0  0
   12.6915   42.2969   67.0782 H   0  0  0  0  0  0
    9.8574   33.9497   71.5373 H   0  0  0  0  0  0
    9.7756   37.0151   74.5787 H   0  0  0  0  0  0
   14.2540   43.9982   66.7197 H   0  0  0  0  0  0
   15.8669   44.5902   66.4935 H   0  0  0  0  0  0
   14.7583   44.6164   65.1475 H   0  0  0  0  0  0
   11.2359   35.6632   75.9457 H   0  0  0  0  0  0
   11.2531   32.6175   72.9475 H   0  0  0  0  0  0
   11.9914   33.4467   75.1442 H   0  0  0  0  0  0
  1  2  1  0  0  0
  1  4  2  0  0  0
  1 13  1  0  0  0
  2  9  1  0  0  0
  2 31  1  0  0  0
  2 32  1  0  0  0
  3  8  2  0  0  0
  3  6  1  0  0  0
  3  7  1  0  0  0
  5 12  1  0  0  0
  5 11  1  0  0  0
  6 25  2  0  0  0
  6 26  1  0  0  0
  7 15  2  0  0  0
  7 33  1  0  0  0
  8 16  1  0  0  0
  8 34  1  0  0  0
  9 10  1  0  0  0
  9 35  1  0  0  0
  9 36  1  0  0  0
 10 23  1  0  0  0
 10 27  1  0  0  0
 11 15  1  0  0  0
 11 16  2  0  0  0
 12 18  1  0  0  0
 12 17  2  0  0  0
 13 37  1  0  0  0
 14 22  1  0  0  0
 14 19  2  0  0  0
 14 20  1  0  0  0
 15 38  1  0  0  0
 16 39  1  0  0  0
 17 19  1  0  0  0
 17 40  1  0  0  0
 18 20  2  0  0  0
 18 41  1  0  0  0
 19 42  1  0  0  0
 20 43  1  0  0  0
 21 23  1  0  0  0
 21 24  1  0  0  0
 21 44  1  0  0  0
 21 45  1  0  0  0
 22 24  1  0  0  0
 23 46  1  0  0  0
 23 47  1  0  0  0
 24 48  1  0  0  0
 24 49  1  0  0  0
 25 29  1  0  0  0
 25 50  1  0  0  0
 26 28  2  0  0  0
 26 51  1  0  0  0
 27 52  1  0  0  0
 27 53  1  0  0  0
 27 54  1  0  0  0
 28 30  1  0  0  0
 28 55  1  0  0  0
 29 30  2  0  0  0
 29 56  1  0  0  0
 30 57  1  0  0  0
M  END
> <s_m_entry_id>
6687

> <s_m_entry_name>
dock_pv.117

> <s_m_Source_Path>
/home/csk/Desktop/cluster/DUD-E-result/lkha4

> <s_m_Source_File>
dock_pv.maegz

> <i_m_Source_File_Index>
117

> <chembl_id>
CHEMBL119612

> <chembl_pref_name>
None

> <i_lp_mmshare_version>
53161

> <i_f3d_flags>
0

> <r_lp_tautomer_probability>
1

> <s_lp_Force_Field>
OPLS_2005

> <r_lp_Energy>
32.880188

> <b_lp_Chiralities_Consistent>
1

> <s_lp_Variant>
CHEMBL4618_lig149-1

> <s_i_glide_gridfile>
glide-grid_3chp

> <i_i_glide_lignum>
175

> <i_i_glide_rotatable_bonds>
12

> <r_i_docking_score>
-9.94569590011815

> <r_i_glide_ligand_efficiency>
-0.331523196670605

> <r_i_glide_ligand_efficiency_sa>
-1.03011965200476

> <r_i_glide_ligand_efficiency_ln>
-2.25977047554319

> <r_i_glide_gscore>
-9.94569590011815

> <r_i_glide_lipo>
-5.913340574757

> <r_i_glide_hbond>
-0.176282217731077

> <r_i_glide_metal>
0

> <r_i_glide_rewards>
-1.03563220835396

> <r_i_glide_evdw>
-51.7027320861816

> <r_i_glide_ecoul>
-10.3343057632446

> <r_i_glide_erotb>
1.31484156951966

> <r_i_glide_esite>
0

> <r_i_glide_emodel>
-81.4746072557803

> <r_i_glide_energy>
-62.0370378494263

> <r_i_glide_einternal>
19.4726104736328

> <i_i_glide_confnum>
23

> <i_i_glide_posenum>
68

> <r_i_glide_eff_state_penalty>
0

> <s_user_duplicate_titles>
CHEMBL4618_lig149,192870

> <s_m_subgroup_title>
dock_pv

> <s_m_subgroupid>
dock_pv

> <b_m_subgroup_collapsed>
1

$$$$
CHEMBL4618_lig450
                    3D
 Schrodinger Suite 2021-1.
 44 48  0  0  1  0            999 V2000
    7.9182   36.9941   69.5288 O   0  0  0  0  0  0
    8.9662   37.8652   71.9386 S   0  0  0  0  0  0
    8.4478   36.6668   70.7702 C   0  0  0  0  0  0
    8.6552   35.4386   71.1400 N   0  0  0  0  0  0
    9.4360   35.3580   72.2462 C   0  0  0  0  0  0
    9.6797   36.5808   72.9065 C   0  0  0  0  0  0
   10.0191   34.1787   72.7234 C   0  0  0  0  0  0
   10.7652   34.2224   73.9027 C   0  0  0  0  0  0
   10.9209   35.4155   74.6009 C   0  0  0  0  0  0
   10.4060   36.6150   74.1070 C   0  0  0  0  0  0
    8.9634   39.3878   66.9150 C   0  0  0  0  0  0
    8.6619   38.2153   67.6087 C   0  0  0  0  0  0
    8.1127   38.2068   68.8882 C   0  0  0  0  0  0
    7.7213   39.4163   69.4361 C   0  0  0  0  0  0
    8.9391   42.0128   67.2159 C   0  0  0  0  0  0
    8.7235   40.6233   67.5288 C   0  0  0  0  0  0
    8.0612   40.5991   68.7707 C   0  0  0  0  0  0
    7.7796   41.8564   69.1870 O   0  0  0  0  0  0
    8.3080   42.6851   68.2511 C   0  0  0  0  0  0
    9.5553   42.6321   65.9762 C   0  0  0  0  0  0
   11.0010   42.4871   65.7412 N   0  0  0  0  0  0
   11.6539   41.2133   66.0674 C   0  0  0  0  0  0
   13.1061   41.1515   65.5414 C   0  0  0  0  0  0
   13.8439   42.3008   65.9373 O   0  0  0  0  0  0
   13.2494   43.5056   65.4768 C   0  0  0  0  0  0
   11.8242   43.6530   66.0554 C   0  0  0  0  0  0
    9.8320   33.2431   72.2171 H   0  0  0  0  0  0
   11.1976   33.3113   74.2972 H   0  0  0  0  0  0
   11.4758   35.4133   75.5296 H   0  0  0  0  0  0
   10.5805   37.5369   74.6337 H   0  0  0  0  0  0
    9.4093   39.3183   65.9398 H   0  0  0  0  0  0
    8.9191   37.2748   67.1510 H   0  0  0  0  0  0
    7.1652   39.4159   70.3404 H   0  0  0  0  0  0
    8.1191   43.7359   68.4261 H   0  0  0  0  0  0
    9.3211   43.6980   65.9558 H   0  0  0  0  0  0
    9.0214   42.2162   65.1398 H   0  0  0  0  0  0
   11.1091   40.4057   65.5921 H   0  0  0  0  0  0
   11.6096   41.0283   67.1397 H   0  0  0  0  0  0
   13.6014   40.2670   65.9380 H   0  0  0  0  0  0
   13.1339   41.0521   64.4557 H   0  0  0  0  0  0
   13.8795   44.3321   65.7972 H   0  0  0  0  0  0
   13.2346   43.5350   64.3851 H   0  0  0  0  0  0
   11.8326   43.8137   67.1322 H   0  0  0  0  0  0
   11.3706   44.5298   65.5951 H   0  0  0  0  0  0
  1  3  1  0  0  0
  1 13  1  0  0  0
  2  3  1  0  0  0
  2  6  1  0  0  0
  3  4  2  0  0  0
  4  5  1  0  0  0
  5  6  1  0  0  0
  5  7  2  0  0  0
  6 10  2  0  0  0
  7  8  1  0  0  0
  7 27  1  0  0  0
  8  9  2  0  0  0
  8 28  1  0  0  0
  9 10  1  0  0  0
  9 29  1  0  0  0
 10 30  1  0  0  0
 11 16  2  0  0  0
 11 12  1  0  0  0
 11 31  1  0  0  0
 12 13  2  0  0  0
 12 32  1  0  0  0
 13 14  1  0  0  0
 14 17  2  0  0  0
 14 33  1  0  0  0
 15 16  1  0  0  0
 15 19  2  0  0  0
 15 20  1  0  0  0
 16 17  1  0  0  0
 17 18  1  0  0  0
 18 19  1  0  0  0
 19 34  1  0  0  0
 20 21  1  0  0  0
 20 35  1  0  0  0
 20 36  1  0  0  0
 21 22  1  0  0  0
 21 26  1  0  0  0
 22 23  1  0  0  0
 22 37  1  0  0  0
 22 38  1  0  0  0
 23 24  1  0  0  0
 23 39  1  0  0  0
 23 40  1  0  0  0
 24 25  1  0  0  0
 25 26  1  0  0  0
 25 41  1  0  0  0
 25 42  1  0  0  0
 26 43  1  0  0  0
 26 44  1  0  0  0
M  END
> <s_m_entry_id>
6688

> <s_m_entry_name>
dock_pv.118

> <s_m_Source_Path>
/home/csk/Desktop/cluster/DUD-E-result/lkha4

> <s_m_Source_File>
dock_pv.maegz

> <i_m_Source_File_Index>
118

> <chembl_id>
CHEMBL2313564

> <chembl_pref_name>
None

> <i_lp_mmshare_version>
53161

> <i_f3d_flags>
0

> <r_lp_tautomer_probability>
1

> <s_lp_Force_Field>
OPLS_2005

> <r_lp_Energy>
27.29497

> <b_lp_Chiralities_Consistent>
1

> <s_lp_Variant>
CHEMBL4618_lig450-1

> <s_i_glide_gridfile>
glide-grid_3chp

> <i_i_glide_lignum>
526

> <i_i_glide_rotatable_bonds>
4

> <r_i_docking_score>
-9.94156813514696

> <r_i_glide_ligand_efficiency>
-0.38236800519796

> <r_i_glide_ligand_efficiency_sa>
-1.13276371085351

> <r_i_glide_ligand_efficiency_ln>
-2.33474465559353

> <r_i_glide_gscore>
-9.94156813514696

> <r_i_glide_lipo>
-5.83278532655634

> <r_i_glide_hbond>
0

> <r_i_glide_metal>
0

> <r_i_glide_rewards>
-1.81067372727273

> <r_i_glide_evdw>
-42.6417503356934

> <r_i_glide_ecoul>
-4.92931270599365

> <r_i_glide_erotb>
0.573375341365825

> <r_i_glide_esite>
0

> <r_i_glide_emodel>
-64.3907777073455

> <r_i_glide_energy>
-47.571063041687

> <r_i_glide_einternal>
6.77484273910522

> <i_i_glide_confnum>
95

> <i_i_glide_posenum>
208

> <r_i_glide_eff_state_penalty>
0

> <s_user_duplicate_titles>
CHEMBL4618_lig450

> <s_m_subgroup_title>
dock_pv

> <s_m_subgroupid>
dock_pv

> <b_m_subgroup_collapsed>
1

$$$$
CHEMBL4618_lig319
                    3D
 Schrodinger Suite 2021-1.
 65 69  0  0  1  0            999 V2000
    8.4203   37.8703   70.3700 C   0  0  0  0  0  0
    8.5305   39.2465   70.5455 C   0  0  0  0  0  0
    8.4518   40.1102   69.4644 C   0  0  0  0  0  0
    8.2425   39.6064   68.1928 C   0  0  0  0  0  0
    8.0403   38.2373   68.0088 C   0  0  0  0  0  0
    8.1209   37.3699   69.0981 C   0  0  0  0  0  0
    8.1662   40.4719   67.1289 O   0  0  0  0  0  0
    9.2120   41.3096   66.8234 C   0  0  0  0  0  0
    8.9267   42.6117   66.4336 C   0  0  0  0  0  0
    9.9500   43.4159   65.9398 C   0  0  0  0  0  0
   11.2679   42.9544   65.8661 C   0  0  0  0  0  0
   11.5559   41.6662   66.3300 C   0  0  0  0  0  0
   10.5217   40.8425   66.7703 C   0  0  0  0  0  0
   12.2279   43.8155   65.2954 N   0  0  0  0  0  0
    8.7148   36.9865   71.5388 C   0  0  0  0  0  0
    8.9597   37.5739   72.7401 O   0  0  0  0  0  0
    9.3468   36.5552   73.5357 C   0  0  0  0  0  0
    9.3216   35.4154   72.7586 C   0  0  0  0  0  0
    8.8959   35.6850   71.5404 N   0  0  0  0  0  0
   13.6365   43.5067   65.0117 C   0  0  1  0  0  0
   16.8614   42.7134   65.5821 N   0  0  2  0  0  0
   18.3016   43.0291   65.5623 C   0  0  0  0  0  0
   19.0299   43.1522   66.9090 C   0  0  0  0  0  0
   18.3947   43.0157   68.1487 C   0  0  0  0  0  0
   19.1336   42.9940   69.3275 C   0  0  0  0  0  0
   20.5285   43.1187   69.2907 C   0  0  0  0  0  0
   21.1602   43.3220   68.0561 C   0  0  0  0  0  0
   20.4152   43.3349   66.8781 C   0  0  0  0  0  0
   21.3480   43.0162   70.5546 C   0  0  0  0  0  0
   20.7046   42.4556   71.6199 O   0  0  0  0  0  0
   22.5089   43.4158   70.6247 O   0  0  0  0  0  0
   16.4250   42.1865   64.2872 C   0  0  0  0  0  0
   15.0912   41.4198   64.3118 C   0  0  0  0  0  0
   16.0148   43.8150   66.0576 C   0  0  0  0  0  0
   14.5143   43.5194   66.2748 C   0  0  0  0  0  0
   13.8474   42.2976   64.0748 C   0  0  0  0  0  0
    8.7098   39.6634   71.5247 H   0  0  0  0  0  0
    8.5426   41.1764   69.5920 H   0  0  0  0  0  0
    7.8459   37.8506   67.0204 H   0  0  0  0  0  0
    8.0117   36.3066   68.9448 H   0  0  0  0  0  0
    7.9130   42.9829   66.4652 H   0  0  0  0  0  0
    9.6976   44.4057   65.5987 H   0  0  0  0  0  0
   12.5573   41.2692   66.2916 H   0  0  0  0  0  0
   10.7112   39.8168   67.0361 H   0  0  0  0  0  0
   11.9819   44.7941   65.2596 H   0  0  0  0  0  0
    9.6013   36.7895   74.5598 H   0  0  0  0  0  0
    9.5814   34.4144   73.0699 H   0  0  0  0  0  0
   13.9638   44.3749   64.4366 H   0  0  0  0  0  0
   18.4777   43.9252   64.9628 H   0  0  0  0  0  0
   18.8212   42.2183   65.0469 H   0  0  0  0  0  0
   17.3333   42.8432   68.2245 H   0  0  0  0  0  0
   18.6066   42.8382   70.2581 H   0  0  0  0  0  0
   22.2369   43.4147   67.9923 H   0  0  0  0  0  0
   20.9270   43.4402   65.9314 H   0  0  0  0  0  0
   21.3160   42.3594   72.3539 H   0  0  0  0  0  0
   16.3844   43.0110   63.5706 H   0  0  0  0  0  0
   17.1667   41.4901   63.8952 H   0  0  0  0  0  0
   15.1064   40.6470   63.5410 H   0  0  0  0  0  0
   14.9549   40.9170   65.2658 H   0  0  0  0  0  0
   16.3988   44.2437   66.9819 H   0  0  0  0  0  0
   16.1097   44.6088   65.3176 H   0  0  0  0  0  0
   14.3922   42.5607   66.7450 H   0  0  0  0  0  0
   14.1217   44.2156   67.0018 H   0  0  0  0  0  0
   13.8916   42.6754   63.0522 H   0  0  0  0  0  0
   12.9814   41.6464   64.0837 H   0  0  0  0  0  0
  1 15  1  0  0  0
  1  6  1  0  0  0
  1  2  2  0  0  0
  2  3  1  0  0  0
  2 37  1  0  0  0
  3  4  2  0  0  0
  3 38  1  0  0  0
  4  5  1  0  0  0
  4  7  1  0  0  0
  5  6  2  0  0  0
  5 39  1  0  0  0
  6 40  1  0  0  0
  7  8  1  0  0  0
  8 13  1  0  0  0
  8  9  2  0  0  0
  9 10  1  0  0  0
  9 41  1  0  0  0
 10 11  2  0  0  0
 10 42  1  0  0  0
 11 12  1  0  0  0
 11 14  1  0  0  0
 12 13  2  0  0  0
 12 43  1  0  0  0
 13 44  1  0  0  0
 14 20  1  0  0  0
 14 45  1  0  0  0
 15 19  2  0  0  0
 15 16  1  0  0  0
 16 17  1  0  0  0
 17 18  2  0  0  0
 17 46  1  0  0  0
 18 19  1  0  0  0
 18 47  1  0  0  0
 20 35  1  0  0  0
 20 36  1  0  0  0
 20 48  1  0  0  0
 21 22  1  0  0  0
 21 32  1  0  0  0
 21 34  1  0  0  0
 22 23  1  0  0  0
 22 49  1  0  0  0
 22 50  1  0  0  0
 23 24  2  0  0  0
 23 28  1  0  0  0
 24 25  1  0  0  0
 24 51  1  0  0  0
 25 26  2  0  0  0
 25 52  1  0  0  0
 26 27  1  0  0  0
 26 29  1  0  0  0
 27 28  2  0  0  0
 27 53  1  0  0  0
 28 54  1  0  0  0
 29 30  1  0  0  0
 29 31  2  0  0  0
 30 55  1  0  0  0
 32 33  1  0  0  0
 32 56  1  0  0  0
 32 57  1  0  0  0
 33 36  1  0  0  0
 33 58  1  0  0  0
 33 59  1  0  0  0
 34 35  1  0  0  0
 34 60  1  0  0  0
 34 61  1  0  0  0
 35 62  1  0  0  0
 35 63  1  0  0  0
 36 64  1  0  0  0
 36 65  1  0  0  0
M  END
> <s_m_entry_id>
6689

> <s_m_entry_name>
dock_pv.119

> <s_m_Source_Path>
/home/csk/Desktop/cluster/DUD-E-result/lkha4

> <s_m_Source_File>
dock_pv.maegz

> <i_m_Source_File_Index>
119

> <chembl_id>
CHEMBL517694

> <chembl_pref_name>
None

> <i_lp_mmshare_version>
53161

> <i_f3d_flags>
0

> <r_lp_tautomer_probability>
1

> <s_lp_Force_Field>
OPLS_2005

> <r_lp_Energy>
44.465585

> <b_lp_Chiralities_Consistent>
1

> <s_lp_Variant>
CHEMBL4618_lig319-2

> <s_i_glide_gridfile>
glide-grid_3chp

> <i_i_glide_lignum>
358

> <i_i_glide_rotatable_bonds>
9

> <r_i_docking_score>
-9.9251312466272

> <r_i_glide_ligand_efficiency>
-0.275698090184089

> <r_i_glide_ligand_efficiency_sa>
-0.91033503535965

> <r_i_glide_ligand_efficiency_ln>
-2.16539549195587

> <r_i_glide_gscore>
-9.9251312466272

> <r_i_glide_lipo>
-5.20357079409499

> <r_i_glide_hbond>
-0.22982499517011

> <r_i_glide_metal>
0

> <r_i_glide_rewards>
-0.937101802161154

> <r_i_glide_evdw>
-59.620491027832

> <r_i_glide_ecoul>
-8.45460224151611

> <r_i_glide_erotb>
0.694581232418067

> <r_i_glide_esite>
0

> <r_i_glide_emodel>
-85.5516967587801

> <r_i_glide_energy>
-68.0750932693481

> <r_i_glide_einternal>
16.7957820892334

> <i_i_glide_confnum>
7

> <i_i_glide_posenum>
363

> <r_i_glide_eff_state_penalty>
0

> <s_user_duplicate_titles>
CHEMBL4618_lig319

> <s_m_subgroup_title>
dock_pv

> <s_m_subgroupid>
dock_pv

> <b_m_subgroup_collapsed>
1

$$$$
CHEMBL4618_lig144
                    3D
 Schrodinger Suite 2021-1.
 49 50  0  0  1  0            999 V2000
   16.0105   41.8161   64.6314 C   0  0  0  0  0  0
   14.6991   42.5972   64.6864 C   0  0  0  0  0  0
   16.8355   41.8079   65.5400 O   0  0  0  0  0  0
    8.5210   36.7498   71.0036 C   0  0  0  0  0  0
    8.5378   35.4742   71.8496 C   0  0  0  0  0  0
    8.5210   39.0647   69.4183 C   0  0  0  0  0  0
   16.1210   41.0160   63.5400 O   0  0  0  0  0  0
   12.5615   42.5367   65.9400 N   0  0  2  0  0  0
    8.9408   37.9658   71.5317 C   0  0  0  0  0  0
    8.0786   36.7111   69.6729 C   0  0  0  0  0  0
    8.0896   37.8549   68.8712 C   0  0  0  0  0  0
    8.9210   39.0970   70.7400 C   0  0  0  0  0  0
    9.6093   35.2885   72.9382 C   0  0  0  0  0  0
    8.5634   40.2749   68.7658 O   0  0  0  0  0  0
   13.5441   41.7265   65.2262 C   0  0  0  0  0  0
   11.4636   41.6883   66.3930 C   0  0  0  0  0  0
    8.8782   40.3071   67.3855 C   0  0  0  0  0  0
    9.6040   36.0822   74.0933 C   0  0  0  0  0  0
   10.4849   34.1986   72.8660 C   0  0  0  0  0  0
   10.3359   42.4775   67.0845 C   0  0  0  0  0  0
    8.9541   41.7938   66.9662 C   0  0  0  0  0  0
   10.4828   35.8160   75.1399 C   0  0  0  0  0  0
   11.3210   33.8952   73.9400 C   0  0  0  0  0  0
   11.3210   34.7083   75.0685 C   0  0  0  0  0  0
   14.8784   43.4469   65.3475 H   0  0  0  0  0  0
   14.4598   43.0160   63.7081 H   0  0  0  0  0  0
    7.5728   35.4171   72.3400 H   0  0  0  0  0  0
    8.5620   34.6160   71.1783 H   0  0  0  0  0  0
   15.4813   41.1788   62.8174 H   0  0  0  0  0  0
   12.2153   43.2824   65.3526 H   0  0  0  0  0  0
    9.2918   38.0738   72.5420 H   0  0  0  0  0  0
    7.7210   35.7942   69.2412 H   0  0  0  0  0  0
    7.7499   37.7963   67.8485 H   0  0  0  0  0  0
    9.2484   40.0300   71.1400 H   0  0  0  0  0  0
   13.0911   41.1705   64.4045 H   0  0  0  0  0  0
   13.9200   40.9905   65.9400 H   0  0  0  0  0  0
   11.0447   41.1600   65.5400 H   0  0  0  0  0  0
   11.8326   40.9332   67.0839 H   0  0  0  0  0  0
    8.1210   39.7937   66.8001 H   0  0  0  0  0  0
    9.8118   39.7779   67.1938 H   0  0  0  0  0  0
    8.8932   36.8852   74.2137 H   0  0  0  0  0  0
   10.4774   33.5462   72.0050 H   0  0  0  0  0  0
   10.5831   42.6390   68.1331 H   0  0  0  0  0  0
   10.2513   43.4733   66.6470 H   0  0  0  0  0  0
    8.2172   42.3703   67.5293 H   0  0  0  0  0  0
    8.6234   41.8826   65.9400 H   0  0  0  0  0  0
   10.4712   36.4321   76.0272 H   0  0  0  0  0  0
   11.9628   33.0265   73.9005 H   0  0  0  0  0  0
   11.9613   34.4697   75.9045 H   0  0  0  0  0  0
  1  2  1  0  0  0
  1  3  2  0  0  0
  1  7  1  0  0  0
  2 15  1  0  0  0
  2 25  1  0  0  0
  2 26  1  0  0  0
  4  9  1  0  0  0
  4  5  1  0  0  0
  4 10  2  0  0  0
  5 13  1  0  0  0
  5 27  1  0  0  0
  5 28  1  0  0  0
  6 14  1  0  0  0
  6 11  2  0  0  0
  6 12  1  0  0  0
  7 29  1  0  0  0
  8 15  1  0  0  0
  8 16  1  0  0  0
  8 30  1  0  0  0
  9 12  2  0  0  0
  9 31  1  0  0  0
 10 11  1  0  0  0
 10 32  1  0  0  0
 11 33  1  0  0  0
 12 34  1  0  0  0
 13 18  1  0  0  0
 13 19  2  0  0  0
 14 17  1  0  0  0
 15 35  1  0  0  0
 15 36  1  0  0  0
 16 20  1  0  0  0
 16 37  1  0  0  0
 16 38  1  0  0  0
 17 21  1  0  0  0
 17 39  1  0  0  0
 17 40  1  0  0  0
 18 22  2  0  0  0
 18 41  1  0  0  0
 19 23  1  0  0  0
 19 42  1  0  0  0
 20 21  1  0  0  0
 20 43  1  0  0  0
 20 44  1  0  0  0
 21 45  1  0  0  0
 21 46  1  0  0  0
 22 24  1  0  0  0
 22 47  1  0  0  0
 23 24  2  0  0  0
 23 48  1  0  0  0
 24 49  1  0  0  0
M  END
> <s_m_entry_id>
6691

> <s_m_entry_name>
dock_pv.121

> <s_m_Source_Path>
/home/csk/Desktop/cluster/DUD-E-result/lkha4

> <s_m_Source_File>
dock_pv.maegz

> <i_m_Source_File_Index>
121

> <chembl_id>
CHEMBL326507

> <chembl_pref_name>
None

> <i_lp_mmshare_version>
53161

> <i_f3d_flags>
0

> <r_lp_tautomer_probability>
1

> <s_lp_Force_Field>
OPLS_2005

> <r_lp_Energy>
18.614509

> <b_lp_Chiralities_Consistent>
1

> <s_lp_Variant>
CHEMBL4618_lig144-1

> <s_i_glide_gridfile>
glide-grid_3chp

> <i_i_glide_lignum>
170

> <i_i_glide_rotatable_bonds>
12

> <r_i_docking_score>
-9.92004235314293

> <r_i_glide_ligand_efficiency>
-0.413335098047622

> <r_i_glide_ligand_efficiency_sa>
-1.19226473384128

> <r_i_glide_ligand_efficiency_ln>
-2.37432133618939

> <r_i_glide_gscore>
-9.92004235314293

> <r_i_glide_lipo>
-5.0848915939569

> <r_i_glide_hbond>
-0.304

> <r_i_glide_metal>
0

> <r_i_glide_rewards>
-1.8699675056042

> <r_i_glide_evdw>
-43.9621925354004

> <r_i_glide_ecoul>
-15.2589693069458

> <r_i_glide_erotb>
1.92577176923006

> <r_i_glide_esite>
-0.1

> <r_i_glide_emodel>
-88.343006399352

> <r_i_glide_energy>
-59.2211618423462

> <r_i_glide_einternal>
11.1472282409668

> <i_i_glide_confnum>
373

> <i_i_glide_posenum>
256

> <r_i_glide_eff_state_penalty>
0

> <s_user_duplicate_titles>
CHEMBL4618_lig144,192668

> <s_m_subgroup_title>
dock_pv

> <s_m_subgroupid>
dock_pv

> <b_m_subgroup_collapsed>
1

$$$$
CHEMBL4618_lig30
                    3D
 Schrodinger Suite 2021-1.
 63 65  0  0  1  0            999 V2000
   15.6926   42.5947   65.0360 C   0  0  0  0  0  0
   11.2873   42.7287   65.5490 N   0  0  1  0  0  0
   16.6593   43.4932   65.2894 N   0  0  0  0  0  0
   18.8319   43.0093   66.4627 C   0  0  0  0  0  0
   14.2388   43.1149   65.2511 C   0  0  0  0  0  0
   15.9520   41.4160   64.7396 O   0  0  0  0  0  0
   18.2646   43.0216   67.5593 O   0  0  0  0  0  0
   18.1085   43.2926   65.1399 C   0  0  0  0  0  0
   13.3160   42.9788   64.0234 C   0  0  0  0  0  0
   13.5859   42.2626   66.3432 C   0  0  0  0  0  0
   11.8749   43.4663   64.4076 C   0  0  0  0  0  0
   12.1805   42.7566   66.7028 C   0  0  0  0  0  0
    8.0685   38.0907   69.5944 C   0  0  0  0  0  0
    7.6285   37.0333   70.6140 C   0  0  0  0  0  0
    8.7172   40.0774   67.7056 C   0  0  0  0  0  0
   20.1341   42.7309   66.2501 O   0  0  0  0  0  0
    8.1829   37.7709   68.2444 C   0  0  0  0  0  0
    8.2368   39.4144   69.9749 C   0  0  0  0  0  0
    8.5208   40.4066   69.0487 C   0  0  0  0  0  0
    8.5212   38.7519   67.3077 C   0  0  0  0  0  0
    8.6399   36.5586   71.6630 C   0  0  0  0  0  0
    9.1093   40.9869   66.7401 O   0  0  0  0  0  0
    9.9304   43.1727   65.9269 C   0  0  0  0  0  0
    9.2333   42.3761   67.0625 C   0  0  0  0  0  0
   20.9870   42.3343   67.3134 C   0  0  0  0  0  0
    8.9323   35.1982   71.7930 C   0  0  0  0  0  0
    9.2307   37.4574   72.5526 C   0  0  0  0  0  0
   22.4059   42.1520   66.7655 C   0  0  0  0  0  0
    9.8319   34.7481   72.7543 C   0  0  0  0  0  0
   10.1209   37.0113   73.5272 C   0  0  0  0  0  0
   10.4121   35.6561   73.6313 C   0  0  0  0  0  0
   16.3570   44.4395   65.4610 H   0  0  0  0  0  0
   14.2910   44.1625   65.5585 H   0  0  0  0  0  0
   18.5442   44.1834   64.6878 H   0  0  0  0  0  0
   18.3186   42.4759   64.4467 H   0  0  0  0  0  0
   13.6529   43.6314   63.2160 H   0  0  0  0  0  0
   13.2505   41.9500   63.6684 H   0  0  0  0  0  0
   13.5172   41.1970   66.1060 H   0  0  0  0  0  0
   14.1209   42.4452   67.2563 H   0  0  0  0  0  0
   11.9113   44.5208   64.6885 H   0  0  0  0  0  0
   11.2106   43.4143   63.5468 H   0  0  0  0  0  0
   12.2177   43.7688   67.1102 H   0  0  0  0  0  0
   11.7680   42.1149   67.4805 H   0  0  0  0  0  0
    6.7586   37.4190   71.1465 H   0  0  0  0  0  0
    7.2709   36.1668   70.0590 H   0  0  0  0  0  0
    8.0378   36.7474   67.9400 H   0  0  0  0  0  0
    8.1210   39.6925   71.0061 H   0  0  0  0  0  0
    8.6141   41.4183   69.4076 H   0  0  0  0  0  0
    8.6536   38.4838   66.2695 H   0  0  0  0  0  0
    9.9674   44.2160   66.2235 H   0  0  0  0  0  0
    9.2721   43.1373   65.0704 H   0  0  0  0  0  0
    9.7687   42.5375   67.9969 H   0  0  0  0  0  0
    8.2327   42.7815   67.2169 H   0  0  0  0  0  0
   20.6286   41.3978   67.7453 H   0  0  0  0  0  0
   20.9834   43.0876   68.1033 H   0  0  0  0  0  0
    8.5002   34.4675   71.1400 H   0  0  0  0  0  0
    8.9879   38.5060   72.5179 H   0  0  0  0  0  0
   23.0866   41.8035   67.5408 H   0  0  0  0  0  0
   22.8035   43.0848   66.3663 H   0  0  0  0  0  0
   22.4295   41.4161   65.9614 H   0  0  0  0  0  0
   10.0645   33.6956   72.8337 H   0  0  0  0  0  0
   10.5790   37.7111   74.2088 H   0  0  0  0  0  0
   11.0976   35.3066   74.3928 H   0  0  0  0  0  0
  1  3  1  0  0  0
  1  5  1  0  0  0
  1  6  2  0  0  0
  2 12  1  0  0  0
  2 23  1  0  0  0
  2 11  1  0  0  0
  3  8  1  0  0  0
  3 32  1  0  0  0
  4  8  1  0  0  0
  4  7  2  0  0  0
  4 16  1  0  0  0
  5  9  1  0  0  0
  5 10  1  0  0  0
  5 33  1  0  0  0
  8 34  1  0  0  0
  8 35  1  0  0  0
  9 11  1  0  0  0
  9 36  1  0  0  0
  9 37  1  0  0  0
 10 12  1  0  0  0
 10 38  1  0  0  0
 10 39  1  0  0  0
 11 40  1  0  0  0
 11 41  1  0  0  0
 12 42  1  0  0  0
 12 43  1  0  0  0
 13 17  2  0  0  0
 13 14  1  0  0  0
 13 18  1  0  0  0
 14 21  1  0  0  0
 14 44  1  0  0  0
 14 45  1  0  0  0
 15 22  1  0  0  0
 15 19  1  0  0  0
 15 20  2  0  0  0
 16 25  1  0  0  0
 17 20  1  0  0  0
 17 46  1  0  0  0
 18 19  2  0  0  0
 18 47  1  0  0  0
 19 48  1  0  0  0
 20 49  1  0  0  0
 21 26  2  0  0  0
 21 27  1  0  0  0
 22 24  1  0  0  0
 23 24  1  0  0  0
 23 50  1  0  0  0
 23 51  1  0  0  0
 24 52  1  0  0  0
 24 53  1  0  0  0
 25 28  1  0  0  0
 25 54  1  0  0  0
 25 55  1  0  0  0
 26 29  1  0  0  0
 26 56  1  0  0  0
 27 30  2  0  0  0
 27 57  1  0  0  0
 28 58  1  0  0  0
 28 59  1  0  0  0
 28 60  1  0  0  0
 29 31  2  0  0  0
 29 61  1  0  0  0
 30 31  1  0  0  0
 30 62  1  0  0  0
 31 63  1  0  0  0
M  END
> <s_m_entry_id>
6692

> <s_m_entry_name>
dock_pv.122

> <s_m_Source_Path>
/home/csk/Desktop/cluster/DUD-E-result/lkha4

> <s_m_Source_File>
dock_pv.maegz

> <i_m_Source_File_Index>
122

> <chembl_id>
CHEMBL115215

> <chembl_pref_name>
None

> <i_lp_mmshare_version>
53161

> <i_f3d_flags>
0

> <r_lp_tautomer_probability>
1

> <s_lp_Force_Field>
OPLS_2005

> <r_lp_Energy>
25.241273

> <b_lp_Chiralities_Consistent>
1

> <s_lp_Variant>
CHEMBL4618_lig30-1

> <s_i_glide_gridfile>
glide-grid_3chp

> <i_i_glide_lignum>
42

> <i_i_glide_rotatable_bonds>
12

> <r_i_docking_score>
-9.91854644876202

> <r_i_glide_ligand_efficiency>
-0.319953111250388

> <r_i_glide_ligand_efficiency_sa>
-1.0050945122039

> <r_i_glide_ligand_efficiency_ln>
-2.23693619113944

> <r_i_glide_gscore>
-9.91854644876202

> <r_i_glide_lipo>
-5.39820676103029

> <r_i_glide_hbond>
-0.190642156236535

> <r_i_glide_metal>
0

> <r_i_glide_rewards>
-1.41366993197096

> <r_i_glide_evdw>
-54.786075592041

> <r_i_glide_ecoul>
-7.91316223144531

> <r_i_glide_erotb>
1.21025051479462

> <r_i_glide_esite>
-0.2

> <r_i_glide_emodel>
-98.0467136117453

> <r_i_glide_energy>
-62.6992378234863

> <r_i_glide_einternal>
4.19183111190796

> <i_i_glide_confnum>
17

> <i_i_glide_posenum>
13

> <r_i_glide_eff_state_penalty>
0

> <s_user_duplicate_titles>
CHEMBL4618_lig30,187700

> <s_m_subgroup_title>
dock_pv

> <s_m_subgroupid>
dock_pv

> <b_m_subgroup_collapsed>
1

$$$$
CHEMBL4618_lig438
                    3D
 Schrodinger Suite 2021-1.
 50 55  0  0  1  0            999 V2000
    8.2832   39.8216   69.4040 C   0  0  0  0  0  0
    7.9598   38.4814   69.2169 C   0  0  0  0  0  0
    8.1514   37.8961   67.9795 C   0  0  0  0  0  0
    8.7158   38.6160   66.9177 C   0  0  0  0  0  0
    7.4184   37.7382   70.2375 O   0  0  0  0  0  0
    8.5210   35.7454   70.9266 N   0  0  0  0  0  0
    8.2696   37.0095   71.0276 C   0  0  0  0  0  0
    9.0341   37.8160   72.3401 S   0  0  0  0  0  0
    9.7165   36.2974   72.8668 C   0  0  0  0  0  0
    9.3209   35.3095   71.9400 C   0  0  0  0  0  0
   10.5195   35.9765   73.9735 C   0  0  0  0  0  0
   10.9209   34.6413   74.0761 C   0  0  0  0  0  0
   10.5749   33.6752   73.1888 N   0  0  0  0  0  0
    9.7860   34.0037   72.1374 C   0  0  0  0  0  0
    9.3209   41.9242   68.1520 C   0  0  0  0  0  0
    8.8612   40.5782   68.3744 C   0  0  0  0  0  0
    9.1127   39.9192   67.1764 C   0  0  0  0  0  0
    9.8282   40.6963   66.3400 O   0  0  0  0  0  0
    9.9506   41.9180   66.9089 C   0  0  0  0  0  0
   10.6628   42.9303   66.0262 C   0  0  0  0  0  0
   12.0285   42.4962   65.6798 N   0  0  2  0  0  0
   13.0536   43.0158   66.5986 C   0  0  0  0  0  0
   14.0430   43.7878   65.6922 C   0  0  1  0  0  0
   14.7496   42.7456   64.9286 N   0  0  0  0  0  0
   13.7780   42.1535   63.9973 C   0  0  0  0  0  0
   12.5213   42.9759   64.3744 C   0  0  2  0  0  0
   16.0483   42.3980   65.0298 C   0  0  0  0  0  0
   16.5210   41.4160   64.4577 O   0  0  0  0  0  0
   16.9607   43.2185   65.9407 C   0  0  0  0  0  0
   13.1177   44.3324   64.6248 C   0  0  0  0  0  0
    8.1210   40.2204   70.3583 H   0  0  0  0  0  0
    7.8872   36.8550   67.9399 H   0  0  0  0  0  0
    8.9211   38.2160   65.9439 H   0  0  0  0  0  0
   10.8073   36.7195   74.7040 H   0  0  0  0  0  0
   11.5336   34.3145   74.9051 H   0  0  0  0  0  0
    9.4850   33.1894   71.4995 H   0  0  0  0  0  0
    9.2538   42.7708   68.8164 H   0  0  0  0  0  0
   10.6565   43.9246   66.4616 H   0  0  0  0  0  0
   10.0783   43.0193   65.1111 H   0  0  0  0  0  0
   13.5522   42.2162   67.1399 H   0  0  0  0  0  0
   12.6223   43.6827   67.3419 H   0  0  0  0  0  0
   14.6913   44.4889   66.2150 H   0  0  0  0  0  0
   13.6538   41.0722   64.0650 H   0  0  0  0  0  0
   14.1151   42.4199   62.9958 H   0  0  0  0  0  0
   11.7691   43.0160   63.5896 H   0  0  0  0  0  0
   17.0904   44.2170   65.5224 H   0  0  0  0  0  0
   16.5498   43.3068   66.9464 H   0  0  0  0  0  0
   17.9466   42.7577   66.0129 H   0  0  0  0  0  0
   12.3571   45.0160   64.9722 H   0  0  0  0  0  0
   13.6230   44.7679   63.7627 H   0  0  0  0  0  0
  1 16  2  0  0  0
  1  2  1  0  0  0
  1 31  1  0  0  0
  2  3  2  0  0  0
  2  5  1  0  0  0
  3  4  1  0  0  0
  3 32  1  0  0  0
  4 17  2  0  0  0
  4 33  1  0  0  0
  5  7  1  0  0  0
  6  7  2  0  0  0
  6 10  1  0  0  0
  7  8  1  0  0  0
  8  9  1  0  0  0
  9 10  1  0  0  0
  9 11  2  0  0  0
 10 14  2  0  0  0
 11 12  1  0  0  0
 11 34  1  0  0  0
 12 13  2  0  0  0
 12 35  1  0  0  0
 13 14  1  0  0  0
 14 36  1  0  0  0
 15 16  1  0  0  0
 15 19  2  0  0  0
 15 37  1  0  0  0
 16 17  1  0  0  0
 17 18  1  0  0  0
 18 19  1  0  0  0
 19 20  1  0  0  0
 20 21  1  0  0  0
 20 38  1  0  0  0
 20 39  1  0  0  0
 21 22  1  0  0  0
 21 26  1  0  0  0
 22 23  1  0  0  0
 22 40  1  0  0  0
 22 41  1  0  0  0
 23 24  1  0  0  0
 23 30  1  0  0  0
 23 42  1  0  0  0
 24 25  1  0  0  0
 24 27  1  0  0  0
 25 26  1  0  0  0
 25 43  1  0  0  0
 25 44  1  0  0  0
 26 30  1  0  0  0
 26 45  1  0  0  0
 27 28  2  0  0  0
 27 29  1  0  0  0
 29 46  1  0  0  0
 29 47  1  0  0  0
 29 48  1  0  0  0
 30 49  1  0  0  0
 30 50  1  0  0  0
M  END
> <s_m_entry_id>
6693

> <s_m_entry_name>
dock_pv.123

> <s_m_Source_Path>
/home/csk/Desktop/cluster/DUD-E-result/lkha4

> <s_m_Source_File>
dock_pv.maegz

> <i_m_Source_File_Index>
123

> <chembl_id>
CHEMBL2313267

> <chembl_pref_name>
None

> <i_lp_mmshare_version>
53161

> <i_f3d_flags>
0

> <r_lp_tautomer_probability>
1

> <s_lp_Force_Field>
OPLS_2005

> <r_lp_Energy>
84.704796

> <b_lp_Chiralities_Consistent>
1

> <s_lp_Variant>
CHEMBL4618_lig438-2

> <s_i_glide_gridfile>
glide-grid_3chp

> <i_i_glide_lignum>
513

> <i_i_glide_rotatable_bonds>
5

> <r_i_docking_score>
-9.90908714324186

> <r_i_glide_ligand_efficiency>
-0.330302904774729

> <r_i_glide_ligand_efficiency_sa>
-1.02632792136344

> <r_i_glide_ligand_efficiency_ln>
-2.25145256709655

> <r_i_glide_gscore>
-9.90908714324186

> <r_i_glide_lipo>
-5.73361032101569

> <r_i_glide_hbond>
0

> <r_i_glide_metal>
0

> <r_i_glide_rewards>
-1.43843795094001

> <r_i_glide_evdw>
-48.3413696289062

> <r_i_glide_ecoul>
-3.91315245628357

> <r_i_glide_erotb>
0.447782355423934

> <r_i_glide_esite>
-0.180779876822247

> <r_i_glide_emodel>
-67.680119158636

> <r_i_glide_energy>
-52.2545220851898

> <r_i_glide_einternal>
12.7468461990356

> <i_i_glide_confnum>
4

> <i_i_glide_posenum>
117

> <r_i_glide_eff_state_penalty>
0

> <s_user_duplicate_titles>
CHEMBL4618_lig438

> <s_m_subgroup_title>
dock_pv

> <s_m_subgroupid>
dock_pv

> <b_m_subgroup_collapsed>
1

$$$$
CHEMBL4618_lig141
                    3D
 Schrodinger Suite 2021-1.
 50 51  0  0  1  0            999 V2000
   16.7823   42.8027   65.6002 S   0  0  0  0  0  0
   15.1295   43.4160   64.9969 C   0  0  0  0  0  0
   16.9210   41.4160   65.1400 O   0  0  0  0  0  0
   16.9267   43.1481   67.0157 O   0  0  0  0  0  0
   17.7931   43.7828   64.7400 O   0  0  0  0  0  0
   13.9991   42.6906   65.7395 C   0  0  0  0  0  0
   12.6711   43.2120   65.4021 N   0  0  2  0  0  0
    8.0047   38.1053   69.5885 C   0  0  0  0  0  0
    7.5157   37.0978   70.6180 C   0  0  0  0  0  0
    8.7276   40.0567   67.7069 C   0  0  0  0  0  0
    8.2201   39.4160   69.9741 C   0  0  0  0  0  0
    8.1300   37.7679   68.2444 C   0  0  0  0  0  0
    8.5210   40.3986   69.0463 C   0  0  0  0  0  0
    8.5210   38.7322   67.3124 C   0  0  0  0  0  0
    8.5526   36.5638   71.6059 C   0  0  0  0  0  0
   10.2495   42.9723   66.0346 C   0  0  0  0  0  0
    9.1374   40.9537   66.7401 O   0  0  0  0  0  0
   11.6654   42.3619   66.0489 C   0  0  0  0  0  0
    9.3240   42.3320   67.0729 C   0  0  0  0  0  0
   12.4761   43.3039   63.9540 C   0  0  0  0  0  0
    9.0801   37.3607   72.6239 C   0  0  0  0  0  0
    8.9210   35.2242   71.5400 C   0  0  0  0  0  0
    9.8049   34.6679   72.4583 C   0  0  0  0  0  0
    9.9689   36.8103   73.5483 C   0  0  0  0  0  0
   10.3145   35.4643   73.4760 C   0  0  0  0  0  0
   15.1087   44.4915   65.1402 H   0  0  0  0  0  0
   15.1118   43.1619   63.9400 H   0  0  0  0  0  0
   17.9904   43.4278   63.8319 H   0  0  0  0  0  0
   14.0448   41.6209   65.5199 H   0  0  0  0  0  0
   14.1325   42.8251   66.8133 H   0  0  0  0  0  0
    6.7016   37.5485   71.1884 H   0  0  0  0  0  0
    7.0621   36.2682   70.0736 H   0  0  0  0  0  0
    8.1210   39.6895   71.0100 H   0  0  0  0  0  0
    7.9552   36.7487   67.9400 H   0  0  0  0  0  0
    8.6240   41.4083   69.4074 H   0  0  0  0  0  0
    8.6633   38.4545   66.2782 H   0  0  0  0  0  0
   10.2791   44.0571   66.1226 H   0  0  0  0  0  0
    9.7883   42.7709   65.0741 H   0  0  0  0  0  0
   11.6451   41.3839   65.5622 H   0  0  0  0  0  0
   11.9455   42.1619   67.0848 H   0  0  0  0  0  0
    9.7888   42.4813   68.0475 H   0  0  0  0  0  0
    8.3554   42.8348   67.0870 H   0  0  0  0  0  0
   11.4284   43.4161   63.6801 H   0  0  0  0  0  0
   13.0027   44.1729   63.5573 H   0  0  0  0  0  0
   12.8792   42.4234   63.4487 H   0  0  0  0  0  0
    8.7920   38.3960   72.7170 H   0  0  0  0  0  0
    8.5210   34.6160   70.7541 H   0  0  0  0  0  0
   10.0797   33.6251   72.3910 H   0  0  0  0  0  0
   10.3773   37.4160   74.3412 H   0  0  0  0  0  0
   10.9908   35.0401   74.2041 H   0  0  0  0  0  0
  1  2  1  0  0  0
  1  3  2  0  0  0
  1  4  2  0  0  0
  1  5  1  0  0  0
  2  6  1  0  0  0
  2 26  1  0  0  0
  2 27  1  0  0  0
  5 28  1  0  0  0
  6  7  1  0  0  0
  6 29  1  0  0  0
  6 30  1  0  0  0
  7 18  1  0  0  0
  7 20  1  0  0  0
  8 12  2  0  0  0
  8  9  1  0  0  0
  8 11  1  0  0  0
  9 15  1  0  0  0
  9 31  1  0  0  0
  9 32  1  0  0  0
 10 17  1  0  0  0
 10 13  1  0  0  0
 10 14  2  0  0  0
 11 13  2  0  0  0
 11 33  1  0  0  0
 12 14  1  0  0  0
 12 34  1  0  0  0
 13 35  1  0  0  0
 14 36  1  0  0  0
 15 21  2  0  0  0
 15 22  1  0  0  0
 16 18  1  0  0  0
 16 19  1  0  0  0
 16 37  1  0  0  0
 16 38  1  0  0  0
 17 19  1  0  0  0
 18 39  1  0  0  0
 18 40  1  0  0  0
 19 41  1  0  0  0
 19 42  1  0  0  0
 20 43  1  0  0  0
 20 44  1  0  0  0
 20 45  1  0  0  0
 21 24  1  0  0  0
 21 46  1  0  0  0
 22 23  2  0  0  0
 22 47  1  0  0  0
 23 25  1  0  0  0
 23 48  1  0  0  0
 24 25  2  0  0  0
 24 49  1  0  0  0
 25 50  1  0  0  0
M  END
> <s_m_entry_id>
6694

> <s_m_entry_name>
dock_pv.124

> <s_m_Source_Path>
/home/csk/Desktop/cluster/DUD-E-result/lkha4

> <s_m_Source_File>
dock_pv.maegz

> <i_m_Source_File_Index>
124

> <chembl_id>
CHEMBL325224

> <chembl_pref_name>
None

> <i_lp_mmshare_version>
53161

> <i_f3d_flags>
0

> <r_lp_tautomer_probability>
1

> <s_lp_Force_Field>
OPLS_2005

> <r_lp_Energy>
13.640858

> <b_lp_Chiralities_Consistent>
1

> <s_lp_Variant>
CHEMBL4618_lig141-1

> <s_i_glide_gridfile>
glide-grid_3chp

> <i_i_glide_lignum>
167

> <i_i_glide_rotatable_bonds>
11

> <r_i_docking_score>
-9.89962550371776

> <r_i_glide_ligand_efficiency>
-0.395985020148711

> <r_i_glide_ligand_efficiency_sa>
-1.15786722173907

> <r_i_glide_ligand_efficiency_ln>
-2.34650791221783

> <r_i_glide_gscore>
-9.89962550371776

> <r_i_glide_lipo>
-5.10336097553098

> <r_i_glide_hbond>
0

> <r_i_glide_metal>
0

> <r_i_glide_rewards>
-1.83086658451827

> <r_i_glide_evdw>
-41.1183967590332

> <r_i_glide_ecoul>
-14.2277698516846

> <r_i_glide_erotb>
1.45435828232866

> <r_i_glide_esite>
-0.229670910292837

> <r_i_glide_emodel>
-83.97752992231

> <r_i_glide_energy>
-55.3461666107178

> <r_i_glide_einternal>
10.5038871765137

> <i_i_glide_confnum>
154

> <i_i_glide_posenum>
227

> <r_i_glide_eff_state_penalty>
0

> <s_user_duplicate_titles>
CHEMBL4618_lig141,192413

> <s_m_subgroup_title>
dock_pv

> <s_m_subgroupid>
dock_pv

> <b_m_subgroup_collapsed>
1

$$$$
CHEMBL4618_lig172
                    3D
 Schrodinger Suite 2021-1.
 41 42  0  0  1  0            999 V2000
    9.0331   42.6394   67.2414 C   0  0  0  0  0  0
    8.1774   41.8441   68.0081 C   0  0  0  0  0  0
    8.5627   38.4501   71.1623 C   0  0  0  0  0  0
   10.1457   42.0702   66.6182 C   0  0  0  0  0  0
    8.4028   40.4706   68.1301 C   0  0  0  0  0  0
    9.5054   39.9089   67.4878 C   0  0  0  0  0  0
   15.7380   42.5201   65.3383 O   0  0  0  0  0  0
   15.3582   42.0251   64.2799 C   0  0  0  0  0  0
   13.9715   42.2155   63.6317 C   0  0  0  0  0  0
   12.2954   42.6437   65.5878 C   0  0  0  0  0  0
   12.8912   43.1398   64.2486 C   0  0  1  0  0  0
    8.1193   36.2952   70.1998 C   0  0  0  0  0  0
    8.5388   35.6671   71.3693 C   0  0  0  0  0  0
    8.9943   36.4333   72.4297 C   0  0  0  0  0  0
    9.0109   37.8160   72.3189 C   0  0  0  0  0  0
    8.1068   37.6813   70.0933 C   0  0  0  0  0  0
    7.5374   38.2935   68.8203 C   0  0  0  0  0  0
    7.4964   39.7287   68.8622 O   0  0  0  0  0  0
   10.3644   40.6952   66.7399 C   0  0  0  0  0  0
   10.9746   42.8607   65.7970 N   0  0  0  0  0  0
   13.0075   41.9842   66.3402 O   0  0  0  0  0  0
   13.3210   44.5354   64.3399 N   0  0  0  0  0  0
   16.1209   41.1552   63.5401 O   0  0  0  0  0  0
    8.8242   43.6954   67.1408 H   0  0  0  0  0  0
    7.3200   42.2927   68.4907 H   0  0  0  0  0  0
    8.5512   39.5293   71.1127 H   0  0  0  0  0  0
    9.7213   38.8571   67.5491 H   0  0  0  0  0  0
   14.1556   42.6160   62.6437 H   0  0  0  0  0  0
   13.5528   41.2180   63.5034 H   0  0  0  0  0  0
   12.0644   43.1220   63.5401 H   0  0  0  0  0  0
    7.7517   35.7174   69.3690 H   0  0  0  0  0  0
    8.5195   34.5900   71.4471 H   0  0  0  0  0  0
    9.3301   35.9575   73.3396 H   0  0  0  0  0  0
    9.3573   38.4072   73.1400 H   0  0  0  0  0  0
    6.5210   37.9296   68.7363 H   0  0  0  0  0  0
    8.0047   37.8642   67.9356 H   0  0  0  0  0  0
   11.1873   40.2159   66.2311 H   0  0  0  0  0  0
   10.5073   43.5464   65.2263 H   0  0  0  0  0  0
   13.3990   44.8249   65.3072 H   0  0  0  0  0  0
   14.2591   44.6366   63.9445 H   0  0  0  0  0  0
   15.6879   41.0160   62.6651 H   0  0  0  0  0  0
  1  4  2  0  0  0
  1  2  1  0  0  0
  1 24  1  0  0  0
  2  5  2  0  0  0
  2 25  1  0  0  0
  3 16  2  0  0  0
  3 15  1  0  0  0
  3 26  1  0  0  0
  4 20  1  0  0  0
  4 19  1  0  0  0
  5  6  1  0  0  0
  5 18  1  0  0  0
  6 19  2  0  0  0
  6 27  1  0  0  0
  7  8  2  0  0  0
  8 23  1  0  0  0
  8  9  1  0  0  0
  9 11  1  0  0  0
  9 28  1  0  0  0
  9 29  1  0  0  0
 10 11  1  0  0  0
 10 21  2  0  0  0
 10 20  1  0  0  0
 11 22  1  0  0  0
 11 30  1  0  0  0
 12 16  1  0  0  0
 12 13  2  0  0  0
 12 31  1  0  0  0
 13 14  1  0  0  0
 13 32  1  0  0  0
 14 15  2  0  0  0
 14 33  1  0  0  0
 15 34  1  0  0  0
 16 17  1  0  0  0
 17 18  1  0  0  0
 17 35  1  0  0  0
 17 36  1  0  0  0
 19 37  1  0  0  0
 20 38  1  0  0  0
 22 39  1  0  0  0
 22 40  1  0  0  0
 23 41  1  0  0  0
M  END
> <s_m_entry_id>
6695

> <s_m_entry_name>
dock_pv.125

> <s_m_Source_Path>
/home/csk/Desktop/cluster/DUD-E-result/lkha4

> <s_m_Source_File>
dock_pv.maegz

> <i_m_Source_File_Index>
125

> <chembl_id>
CHEMBL477307

> <chembl_pref_name>
None

> <i_lp_mmshare_version>
53161

> <i_f3d_flags>
0

> <r_lp_tautomer_probability>
1

> <s_lp_Force_Field>
OPLS_2005

> <r_lp_Energy>
18.544558

> <b_lp_Chiralities_Consistent>
1

> <s_lp_Variant>
CHEMBL4618_lig172-1

> <s_i_glide_gridfile>
glide-grid_3chp

> <i_i_glide_lignum>
198

> <i_i_glide_rotatable_bonds>
9

> <r_i_docking_score>
-9.89680112323069

> <r_i_glide_ligand_efficiency>
-0.43029570101003

> <r_i_glide_ligand_efficiency_sa>
-1.22370373439554

> <r_i_glide_ligand_efficiency_ln>
-2.39313625082827

> <r_i_glide_gscore>
-9.89680112323069

> <r_i_glide_lipo>
-4.09304378538033

> <r_i_glide_hbond>
-0.533763325165849

> <r_i_glide_metal>
0

> <r_i_glide_rewards>
-1.72887182629861

> <r_i_glide_evdw>
-37.8730010986328

> <r_i_glide_ecoul>
-20.3491954803467

> <r_i_glide_erotb>
1.50490719059773

> <r_i_glide_esite>
-0.1

> <r_i_glide_emodel>
-86.5820059825473

> <r_i_glide_energy>
-58.2221965789795

> <r_i_glide_einternal>
15.4096832275391

> <i_i_glide_confnum>
3

> <i_i_glide_posenum>
4

> <r_i_glide_eff_state_penalty>
0

> <s_user_duplicate_titles>
CHEMBL4618_lig172

> <s_m_subgroup_title>
dock_pv

> <s_m_subgroupid>
dock_pv

> <b_m_subgroup_collapsed>
1

$$$$
CHEMBL4618_lig152
                    3D
 Schrodinger Suite 2021-1.
 46 47  0  0  1  0            999 V2000
   16.1510   41.8160   64.4885 C   0  0  0  0  0  0
   10.1210   35.0787   73.1400 S   0  0  0  0  0  0
   14.7727   42.4190   64.3011 C   0  0  0  0  0  0
    8.5294   36.5761   71.6607 C   0  0  0  0  0  0
    8.9533   35.2661   71.8706 C   0  0  0  0  0  0
   10.0058   36.7678   73.4747 C   0  0  0  0  0  0
    9.1305   37.4160   72.6113 C   0  0  0  0  0  0
   16.7852   41.8084   65.5399 O   0  0  0  0  0  0
    7.5133   36.9955   70.6063 C   0  0  0  0  0  0
   14.2188   43.1679   65.5374 C   0  0  0  0  0  0
   12.7763   43.4193   65.4881 N   0  0  2  0  0  0
    7.9830   38.0152   69.5808 C   0  0  0  0  0  0
   16.5210   41.1076   63.3912 O   0  0  0  0  0  0
    8.7676   39.9308   67.6952 C   0  0  0  0  0  0
    8.1210   37.6647   68.2415 C   0  0  0  0  0  0
    8.2002   39.3305   69.9590 C   0  0  0  0  0  0
    8.5210   38.6160   67.3035 C   0  0  0  0  0  0
    8.5210   40.2968   69.0235 C   0  0  0  0  0  0
   10.4430   42.8188   66.0865 C   0  0  0  0  0  0
    9.2805   40.7926   66.7465 O   0  0  0  0  0  0
   11.9096   42.3270   65.9464 C   0  0  0  0  0  0
    9.6042   42.1199   67.1490 C   0  0  0  0  0  0
   12.3731   43.9721   64.2014 C   0  0  0  0  0  0
   14.7178   43.0160   63.3909 H   0  0  0  0  0  0
   14.1210   41.5629   64.1187 H   0  0  0  0  0  0
    8.6304   34.3947   71.3206 H   0  0  0  0  0  0
   10.5650   37.2039   74.2896 H   0  0  0  0  0  0
    8.9209   38.4712   72.6835 H   0  0  0  0  0  0
    6.6330   37.4160   71.0959 H   0  0  0  0  0  0
    7.1647   36.1217   70.0568 H   0  0  0  0  0  0
   14.4544   42.6487   66.4669 H   0  0  0  0  0  0
   14.7012   44.1447   65.6041 H   0  0  0  0  0  0
   15.9508   41.2628   62.6104 H   0  0  0  0  0  0
    7.9482   36.6443   67.9400 H   0  0  0  0  0  0
    8.1210   39.6154   70.9933 H   0  0  0  0  0  0
    8.6852   38.3235   66.2769 H   0  0  0  0  0  0
    8.6503   41.3080   69.3742 H   0  0  0  0  0  0
   10.4003   43.8953   66.2436 H   0  0  0  0  0  0
    9.9315   42.6547   65.1400 H   0  0  0  0  0  0
   11.9677   41.4927   65.2467 H   0  0  0  0  0  0
   12.2642   41.9462   66.9036 H   0  0  0  0  0  0
   10.1657   42.1472   68.0830 H   0  0  0  0  0  0
    8.6770   42.6744   67.3073 H   0  0  0  0  0  0
   11.3210   44.2160   64.2219 H   0  0  0  0  0  0
   12.9355   44.8756   63.9599 H   0  0  0  0  0  0
   12.5114   43.2454   63.4054 H   0  0  0  0  0  0
  1  3  1  0  0  0
  1  8  2  0  0  0
  1 13  1  0  0  0
  2  5  1  0  0  0
  2  6  1  0  0  0
  3 10  1  0  0  0
  3 24  1  0  0  0
  3 25  1  0  0  0
  4  9  1  0  0  0
  4  5  2  0  0  0
  4  7  1  0  0  0
  5 26  1  0  0  0
  6  7  2  0  0  0
  6 27  1  0  0  0
  7 28  1  0  0  0
  9 12  1  0  0  0
  9 29  1  0  0  0
  9 30  1  0  0  0
 10 11  1  0  0  0
 10 31  1  0  0  0
 10 32  1  0  0  0
 11 21  1  0  0  0
 11 23  1  0  0  0
 12 16  1  0  0  0
 12 15  2  0  0  0
 13 33  1  0  0  0
 14 20  1  0  0  0
 14 17  2  0  0  0
 14 18  1  0  0  0
 15 17  1  0  0  0
 15 34  1  0  0  0
 16 18  2  0  0  0
 16 35  1  0  0  0
 17 36  1  0  0  0
 18 37  1  0  0  0
 19 21  1  0  0  0
 19 22  1  0  0  0
 19 38  1  0  0  0
 19 39  1  0  0  0
 20 22  1  0  0  0
 21 40  1  0  0  0
 21 41  1  0  0  0
 22 42  1  0  0  0
 22 43  1  0  0  0
 23 44  1  0  0  0
 23 45  1  0  0  0
 23 46  1  0  0  0
M  END
> <s_m_entry_id>
6696

> <s_m_entry_name>
dock_pv.126

> <s_m_Source_Path>
/home/csk/Desktop/cluster/DUD-E-result/lkha4

> <s_m_Source_File>
dock_pv.maegz

> <i_m_Source_File_Index>
126

> <chembl_id>
CHEMBL326601

> <chembl_pref_name>
None

> <i_lp_mmshare_version>
53161

> <i_f3d_flags>
0

> <r_lp_tautomer_probability>
1

> <s_lp_Force_Field>
OPLS_2005

> <r_lp_Energy>
16.957656

> <b_lp_Chiralities_Consistent>
1

> <s_lp_Variant>
CHEMBL4618_lig152-1

> <s_i_glide_gridfile>
glide-grid_3chp

> <i_i_glide_lignum>
178

> <i_i_glide_rotatable_bonds>
11

> <r_i_docking_score>
-9.87785680480868

> <r_i_glide_ligand_efficiency>
-0.429472034991682

> <r_i_glide_ligand_efficiency_sa>
-1.22136133780598

> <r_i_glide_ligand_efficiency_ln>
-2.38855534285625

> <r_i_glide_gscore>
-9.87785680480868

> <r_i_glide_lipo>
-4.85260839425474

> <r_i_glide_hbond>
-0.304

> <r_i_glide_metal>
0

> <r_i_glide_rewards>
-2.0355832727821

> <r_i_glide_evdw>
-41.6403846740723

> <r_i_glide_ecoul>
-14.6585655212402

> <r_i_glide_erotb>
1.69513892411781

> <r_i_glide_esite>
-0.1

> <r_i_glide_emodel>
-88.4015304053458

> <r_i_glide_energy>
-56.2989501953125

> <r_i_glide_einternal>
12.784686088562

> <i_i_glide_confnum>
340

> <i_i_glide_posenum>
268

> <r_i_glide_eff_state_penalty>
0

> <s_user_duplicate_titles>
CHEMBL4618_lig152,192881

> <s_m_subgroup_title>
dock_pv

> <s_m_subgroupid>
dock_pv

> <b_m_subgroup_collapsed>
1

$$$$
CHEMBL4618_lig434
                    3D
 Schrodinger Suite 2021-1.
 50 55  0  0  1  0            999 V2000
    8.0715   37.4081   69.0112 O   0  0  0  0  0  0
    8.9210   38.2215   71.5177 S   0  0  0  0  0  0
    8.4222   37.0510   70.3088 C   0  0  0  0  0  0
    8.5210   35.8160   70.6970 N   0  0  0  0  0  0
    9.2006   35.6903   71.8643 C   0  0  0  0  0  0
    9.4687   36.9051   72.5241 C   0  0  0  0  0  0
    9.7210   34.5061   72.4042 C   0  0  0  0  0  0
   10.4221   34.6041   73.6089 C   0  0  0  0  0  0
   10.5360   35.8477   74.2326 C   0  0  0  0  0  0
   10.1078   37.0160   73.6875 N   0  0  0  0  0  0
    7.5268   41.0623   68.7400 C   0  0  0  0  0  0
    7.4782   39.7303   69.1400 C   0  0  0  0  0  0
    8.1631   38.7018   68.5293 C   0  0  0  0  0  0
    8.9210   39.0026   67.4078 C   0  0  0  0  0  0
    8.9211   42.5969   67.1919 C   0  0  0  0  0  0
    8.4689   41.3971   67.7850 C   0  0  0  0  0  0
    9.1814   40.3579   67.1586 C   0  0  0  0  0  0
   10.1271   40.8761   66.3398 O   0  0  0  0  0  0
    9.9889   42.2351   66.3979 C   0  0  0  0  0  0
   10.8587   43.0418   65.4841 C   0  0  0  0  0  0
   12.2348   42.5388   65.3882 N   0  0  2  0  0  0
   13.1481   43.1207   66.3867 C   0  0  0  0  0  0
   14.1906   43.8959   65.5416 C   0  0  1  0  0  0
   14.9845   42.8557   64.8623 N   0  0  0  0  0  0
   14.1339   42.2640   63.8324 C   0  0  0  0  0  0
   12.8215   43.0071   64.1253 C   0  0  2  0  0  0
   16.2393   42.4541   65.1400 C   0  0  0  0  0  0
   16.7197   41.4160   64.6805 O   0  0  0  0  0  0
   17.0693   43.2767   66.1234 C   0  0  0  0  0  0
   13.2909   44.3986   64.4188 C   0  0  0  0  0  0
    9.5976   33.5586   71.9022 H   0  0  0  0  0  0
   10.8614   33.7264   74.0615 H   0  0  0  0  0  0
   11.0387   35.9305   75.1859 H   0  0  0  0  0  0
    6.9220   41.8238   69.1992 H   0  0  0  0  0  0
    6.9210   39.4157   69.9666 H   0  0  0  0  0  0
    9.3210   38.2160   66.8109 H   0  0  0  0  0  0
    8.5353   43.5929   67.3470 H   0  0  0  0  0  0
   10.8337   44.0901   65.7821 H   0  0  0  0  0  0
   10.3954   43.0158   64.5026 H   0  0  0  0  0  0
   13.6053   42.3691   67.0296 H   0  0  0  0  0  0
   12.6199   43.8078   67.0481 H   0  0  0  0  0  0
   14.7771   44.6159   66.1065 H   0  0  0  0  0  0
   14.0584   41.1756   63.8397 H   0  0  0  0  0  0
   14.5433   42.6159   62.8816 H   0  0  0  0  0  0
   12.1418   42.9855   63.2849 H   0  0  0  0  0  0
   17.2528   44.2674   65.7077 H   0  0  0  0  0  0
   16.5602   43.3864   67.0811 H   0  0  0  0  0  0
   18.0361   42.8038   66.2991 H   0  0  0  0  0  0
   12.4668   45.0160   64.7399 H   0  0  0  0  0  0
   13.7210   44.8799   63.5518 H   0  0  0  0  0  0
  1  3  1  0  0  0
  1 13  1  0  0  0
  2  3  1  0  0  0
  2  6  1  0  0  0
  3  4  2  0  0  0
  4  5  1  0  0  0
  5  6  1  0  0  0
  5  7  2  0  0  0
  6 10  2  0  0  0
  7  8  1  0  0  0
  7 31  1  0  0  0
  8  9  2  0  0  0
  8 32  1  0  0  0
  9 10  1  0  0  0
  9 33  1  0  0  0
 11 16  2  0  0  0
 11 12  1  0  0  0
 11 34  1  0  0  0
 12 13  2  0  0  0
 12 35  1  0  0  0
 13 14  1  0  0  0
 14 17  2  0  0  0
 14 36  1  0  0  0
 15 16  1  0  0  0
 15 19  2  0  0  0
 15 37  1  0  0  0
 16 17  1  0  0  0
 17 18  1  0  0  0
 18 19  1  0  0  0
 19 20  1  0  0  0
 20 21  1  0  0  0
 20 38  1  0  0  0
 20 39  1  0  0  0
 21 22  1  0  0  0
 21 26  1  0  0  0
 22 23  1  0  0  0
 22 40  1  0  0  0
 22 41  1  0  0  0
 23 24  1  0  0  0
 23 30  1  0  0  0
 23 42  1  0  0  0
 24 25  1  0  0  0
 24 27  1  0  0  0
 25 26  1  0  0  0
 25 43  1  0  0  0
 25 44  1  0  0  0
 26 30  1  0  0  0
 26 45  1  0  0  0
 27 28  2  0  0  0
 27 29  1  0  0  0
 29 46  1  0  0  0
 29 47  1  0  0  0
 29 48  1  0  0  0
 30 49  1  0  0  0
 30 50  1  0  0  0
M  END
> <s_m_entry_id>
6697

> <s_m_entry_name>
dock_pv.127

> <s_m_Source_Path>
/home/csk/Desktop/cluster/DUD-E-result/lkha4

> <s_m_Source_File>
dock_pv.maegz

> <i_m_Source_File_Index>
127

> <chembl_id>
CHEMBL2313271

> <chembl_pref_name>
None

> <i_lp_mmshare_version>
53161

> <i_f3d_flags>
0

> <r_lp_tautomer_probability>
1

> <s_lp_Force_Field>
OPLS_2005

> <r_lp_Energy>
83.264062

> <b_lp_Chiralities_Consistent>
1

> <s_lp_Variant>
CHEMBL4618_lig434-2

> <s_i_glide_gridfile>
glide-grid_3chp

> <i_i_glide_lignum>
505

> <i_i_glide_rotatable_bonds>
5

> <r_i_docking_score>
-9.87703693745307

> <r_i_glide_ligand_efficiency>
-0.329234564581769

> <r_i_glide_ligand_efficiency_sa>
-1.02300833999222

> <r_i_glide_ligand_efficiency_ln>
-2.24417041112637

> <r_i_glide_gscore>
-9.87703693745307

> <r_i_glide_lipo>
-5.41922852205994

> <r_i_glide_hbond>
-0.0735712637859501

> <r_i_glide_metal>
0

> <r_i_glide_rewards>
-1.42746414148683

> <r_i_glide_evdw>
-46.8524475097656

> <r_i_glide_ecoul>
-5.79654502868652

> <r_i_glide_erotb>
0.447782355423934

> <r_i_glide_esite>
-0.192451235753024

> <r_i_glide_emodel>
-53.397376299921

> <r_i_glide_energy>
-52.6489925384521

> <r_i_glide_einternal>
4.74613189697266

> <i_i_glide_confnum>
2

> <i_i_glide_posenum>
177

> <r_i_glide_eff_state_penalty>
0

> <s_user_duplicate_titles>
CHEMBL4618_lig434

> <s_m_subgroup_title>
dock_pv

> <s_m_subgroupid>
dock_pv

> <b_m_subgroup_collapsed>
1

$$$$
CHEMBL4618_lig272
                    3D
 Schrodinger Suite 2021-1.
 55 59  0  0  1  0            999 V2000
   10.4267   35.7561   73.7715 C   0  0  0  0  0  0
   10.0194   34.6160   73.0858 C   0  0  0  0  0  0
    9.2271   34.7108   71.9400 C   0  0  0  0  0  0
   10.1210   37.0314   73.2960 C   0  0  0  0  0  0
    9.3690   37.1394   72.1169 C   0  0  0  0  0  0
    8.8771   35.9826   71.4681 C   0  0  0  0  0  0
    8.1210   36.2160   70.3655 N   0  0  0  0  0  0
    8.1207   37.4614   70.0382 C   0  0  0  0  0  0
    8.9210   38.5457   71.1524 S   0  0  0  0  0  0
    7.5730   37.9102   68.8660 O   0  0  0  0  0  0
    7.9780   39.1052   68.3400 C   0  0  0  0  0  0
    7.4307   40.3073   68.7725 C   0  0  0  0  0  0
    7.7999   41.5046   68.1845 C   0  0  0  0  0  0
    8.7212   41.4879   67.1401 C   0  0  0  0  0  0
    9.3135   40.2889   66.7400 C   0  0  0  0  0  0
    8.9210   39.0946   67.3239 C   0  0  0  0  0  0
    8.9785   42.7669   66.3754 C   0  0  0  0  0  0
   10.3742   43.3588   66.5289 C   0  0  0  0  0  0
   11.3759   42.7061   65.6861 N   0  0  2  0  0  0
   12.2917   41.8433   66.4307 C   0  0  0  0  0  0
   13.2331   41.1095   65.4589 C   0  0  0  0  0  0
   14.0652   42.0587   64.5700 C   0  0  0  0  0  0
   13.1167   43.0849   63.9400 C   0  0  0  0  0  0
   12.0970   43.7078   64.8998 C   0  0  0  0  0  0
   15.1859   42.6988   65.2686 N   0  0  0  0  0  0
   15.1271   43.7763   66.2233 C   0  0  0  0  0  0
   16.5749   44.1138   66.4939 C   0  0  0  0  0  0
   17.2853   43.1362   65.7670 O   0  0  0  0  0  0
   16.4957   42.3385   65.0217 C   0  0  0  0  0  0
   16.9210   41.4160   64.3400 O   0  0  0  0  0  0
   11.0122   35.6471   74.6734 H   0  0  0  0  0  0
   10.2891   33.6419   73.4704 H   0  0  0  0  0  0
    8.8768   33.8214   71.4386 H   0  0  0  0  0  0
   10.4980   37.9040   73.8082 H   0  0  0  0  0  0
    6.6827   40.2960   69.5400 H   0  0  0  0  0  0
    7.3225   42.4229   68.5000 H   0  0  0  0  0  0
   10.0331   40.2677   65.9400 H   0  0  0  0  0  0
    9.3210   38.1561   66.9765 H   0  0  0  0  0  0
    8.2556   43.5159   66.7064 H   0  0  0  0  0  0
    8.7605   42.6160   65.3216 H   0  0  0  0  0  0
   10.6765   43.4160   67.5762 H   0  0  0  0  0  0
   10.2344   44.3730   66.1818 H   0  0  0  0  0  0
   11.7397   41.1159   67.0229 H   0  0  0  0  0  0
   12.8435   42.4535   67.1400 H   0  0  0  0  0  0
   12.6585   40.4138   64.8476 H   0  0  0  0  0  0
   13.8935   40.4519   66.0110 H   0  0  0  0  0  0
   14.4770   41.4678   63.7476 H   0  0  0  0  0  0
   13.6938   43.8676   63.4471 H   0  0  0  0  0  0
   12.5733   42.6160   63.1400 H   0  0  0  0  0  0
   11.3448   44.2160   64.3098 H   0  0  0  0  0  0
   12.5460   44.4586   65.5458 H   0  0  0  0  0  0
   14.5917   43.5394   67.1399 H   0  0  0  0  0  0
   14.5968   44.6160   65.7952 H   0  0  0  0  0  0
   16.8168   45.1094   66.1229 H   0  0  0  0  0  0
   16.7891   44.0504   67.5615 H   0  0  0  0  0  0
  1  2  2  0  0  0
  1  4  1  0  0  0
  1 31  1  0  0  0
  2  3  1  0  0  0
  2 32  1  0  0  0
  3  6  2  0  0  0
  3 33  1  0  0  0
  4  5  2  0  0  0
  4 34  1  0  0  0
  5  9  1  0  0  0
  5  6  1  0  0  0
  6  7  1  0  0  0
  7  8  2  0  0  0
  8  9  1  0  0  0
  8 10  1  0  0  0
 10 11  1  0  0  0
 11 16  1  0  0  0
 11 12  2  0  0  0
 12 13  1  0  0  0
 12 35  1  0  0  0
 13 14  2  0  0  0
 13 36  1  0  0  0
 14 15  1  0  0  0
 14 17  1  0  0  0
 15 16  2  0  0  0
 15 37  1  0  0  0
 16 38  1  0  0  0
 17 18  1  0  0  0
 17 39  1  0  0  0
 17 40  1  0  0  0
 18 19  1  0  0  0
 18 41  1  0  0  0
 18 42  1  0  0  0
 19 20  1  0  0  0
 19 24  1  0  0  0
 20 21  1  0  0  0
 20 43  1  0  0  0
 20 44  1  0  0  0
 21 22  1  0  0  0
 21 45  1  0  0  0
 21 46  1  0  0  0
 22 23  1  0  0  0
 22 25  1  0  0  0
 22 47  1  0  0  0
 23 24  1  0  0  0
 23 48  1  0  0  0
 23 49  1  0  0  0
 24 50  1  0  0  0
 24 51  1  0  0  0
 25 26  1  0  0  0
 25 29  1  0  0  0
 26 27  1  0  0  0
 26 52  1  0  0  0
 26 53  1  0  0  0
 27 28  1  0  0  0
 27 54  1  0  0  0
 27 55  1  0  0  0
 28 29  1  0  0  0
 29 30  2  0  0  0
M  END
> <s_m_entry_id>
6698

> <s_m_entry_name>
dock_pv.128

> <s_m_Source_Path>
/home/csk/Desktop/cluster/DUD-E-result/lkha4

> <s_m_Source_File>
dock_pv.maegz

> <i_m_Source_File_Index>
128

> <chembl_id>
CHEMBL482056

> <chembl_pref_name>
None

> <i_lp_mmshare_version>
53161

> <i_f3d_flags>
0

> <r_lp_tautomer_probability>
1

> <s_lp_Force_Field>
OPLS_2005

> <r_lp_Energy>
39.84773

> <b_lp_Chiralities_Consistent>
1

> <s_lp_Variant>
CHEMBL4618_lig272-1

> <s_i_glide_gridfile>
glide-grid_3chp

> <i_i_glide_lignum>
310

> <i_i_glide_rotatable_bonds>
6

> <r_i_docking_score>
-9.87278624015425

> <r_i_glide_ligand_efficiency>
-0.329092874671808

> <r_i_glide_ligand_efficiency_sa>
-1.02256807649872

> <r_i_glide_ligand_efficiency_ln>
-2.24320460638502

> <r_i_glide_gscore>
-9.87278624015425

> <r_i_glide_lipo>
-5.6583551774215

> <r_i_glide_hbond>
0

> <r_i_glide_metal>
0

> <r_i_glide_rewards>
-1.42139386363636

> <r_i_glide_evdw>
-47.2053031921387

> <r_i_glide_ecoul>
-5.97161102294922

> <r_i_glide_erotb>
0.662969613952928

> <r_i_glide_esite>
-0.2

> <r_i_glide_emodel>
-77.4793550022126

> <r_i_glide_energy>
-53.1769142150879

> <r_i_glide_einternal>
11.1247987747192

> <i_i_glide_confnum>
72

> <i_i_glide_posenum>
394

> <r_i_glide_eff_state_penalty>
0

> <s_user_duplicate_titles>
CHEMBL4618_lig272,466924

> <s_m_subgroup_title>
dock_pv

> <s_m_subgroupid>
dock_pv

> <b_m_subgroup_collapsed>
1

$$$$
CHEMBL4618_lig432
                    3D
 Schrodinger Suite 2021-1.
 50 55  0  0  1  0            999 V2000
    7.9942   36.9856   69.5229 O   0  0  0  0  0  0
    9.0585   37.8253   71.9400 S   0  0  0  0  0  0
    8.5171   36.6461   70.7671 C   0  0  0  0  0  0
    8.7097   35.4160   71.1400 N   0  0  0  0  0  0
    9.4940   35.3130   72.2414 C   0  0  0  0  0  0
    9.7218   36.5237   72.9238 C   0  0  0  0  0  0
   10.1210   34.1509   72.7209 C   0  0  0  0  0  0
   10.8271   34.1447   73.8785 N   0  0  0  0  0  0
   10.9210   35.2954   74.5837 C   0  0  0  0  0  0
   10.4324   36.5237   74.1374 C   0  0  0  0  0  0
    9.1317   39.3870   66.9397 C   0  0  0  0  0  0
    8.7438   38.2173   67.6043 C   0  0  0  0  0  0
    8.1972   38.2001   68.8808 C   0  0  0  0  0  0
    7.8245   39.4111   69.4235 C   0  0  0  0  0  0
    9.1147   41.9998   67.2575 C   0  0  0  0  0  0
    8.8588   40.6171   67.5401 C   0  0  0  0  0  0
    8.1367   40.5925   68.7490 C   0  0  0  0  0  0
    7.8037   41.8434   69.1400 O   0  0  0  0  0  0
    8.3479   42.6661   68.2078 C   0  0  0  0  0  0
    9.9722   42.6202   66.1713 C   0  0  0  0  0  0
   11.4205   42.5680   66.4712 N   0  0  1  0  0  0
   12.1185   41.4111   65.8787 C   0  0  0  0  0  0
   13.0223   42.0081   64.7439 C   0  0  2  0  0  0
   14.1587   42.6473   65.4289 N   0  0  0  0  0  0
   13.6017   43.7006   66.2769 C   0  0  0  0  0  0
   12.1312   43.6651   65.7982 C   0  0  1  0  0  0
   15.4761   42.5555   65.1399 C   0  0  0  0  0  0
   16.3373   43.1300   65.8059 O   0  0  0  0  0  0
   15.9285   41.6702   63.9810 C   0  0  0  0  0  0
   12.2668   43.2588   64.3398 C   0  0  0  0  0  0
   10.0413   33.2106   72.1973 H   0  0  0  0  0  0
   11.4587   35.2247   75.5195 H   0  0  0  0  0  0
   10.6273   37.4160   74.6990 H   0  0  0  0  0  0
    9.6319   39.3297   65.9880 H   0  0  0  0  0  0
    8.9210   37.2818   67.1400 H   0  0  0  0  0  0
    7.3210   39.3953   70.3400 H   0  0  0  0  0  0
    8.1210   43.7084   68.3706 H   0  0  0  0  0  0
    9.6901   43.6742   66.1294 H   0  0  0  0  0  0
    9.7366   42.2165   65.1865 H   0  0  0  0  0  0
   11.4003   40.6732   65.5327 H   0  0  0  0  0  0
   12.7308   40.8936   66.6153 H   0  0  0  0  0  0
   13.3207   41.3138   63.9585 H   0  0  0  0  0  0
   14.0895   44.6160   65.9525 H   0  0  0  0  0  0
   13.7207   43.5880   67.3530 H   0  0  0  0  0  0
   11.6391   44.6160   65.9393 H   0  0  0  0  0  0
   15.7496   42.2159   63.0544 H   0  0  0  0  0  0
   17.0020   41.4887   64.0290 H   0  0  0  0  0  0
   15.3771   40.7315   63.9363 H   0  0  0  0  0  0
   12.8452   43.9553   63.7260 H   0  0  0  0  0  0
   11.3128   43.0714   63.8531 H   0  0  0  0  0  0
  1  3  1  0  0  0
  1 13  1  0  0  0
  2  3  1  0  0  0
  2  6  1  0  0  0
  3  4  2  0  0  0
  4  5  1  0  0  0
  5  6  1  0  0  0
  5  7  2  0  0  0
  6 10  2  0  0  0
  7  8  1  0  0  0
  7 31  1  0  0  0
  8  9  2  0  0  0
  9 10  1  0  0  0
  9 32  1  0  0  0
 10 33  1  0  0  0
 11 16  2  0  0  0
 11 12  1  0  0  0
 11 34  1  0  0  0
 12 13  2  0  0  0
 12 35  1  0  0  0
 13 14  1  0  0  0
 14 17  2  0  0  0
 14 36  1  0  0  0
 15 16  1  0  0  0
 15 19  2  0  0  0
 15 20  1  0  0  0
 16 17  1  0  0  0
 17 18  1  0  0  0
 18 19  1  0  0  0
 19 37  1  0  0  0
 20 21  1  0  0  0
 20 38  1  0  0  0
 20 39  1  0  0  0
 21 22  1  0  0  0
 21 26  1  0  0  0
 22 23  1  0  0  0
 22 40  1  0  0  0
 22 41  1  0  0  0
 23 24  1  0  0  0
 23 30  1  0  0  0
 23 42  1  0  0  0
 24 25  1  0  0  0
 24 27  1  0  0  0
 25 26  1  0  0  0
 25 43  1  0  0  0
 25 44  1  0  0  0
 26 30  1  0  0  0
 26 45  1  0  0  0
 27 28  2  0  0  0
 27 29  1  0  0  0
 29 46  1  0  0  0
 29 47  1  0  0  0
 29 48  1  0  0  0
 30 49  1  0  0  0
 30 50  1  0  0  0
M  END
> <s_m_entry_id>
6699

> <s_m_entry_name>
dock_pv.129

> <s_m_Source_Path>
/home/csk/Desktop/cluster/DUD-E-result/lkha4

> <s_m_Source_File>
dock_pv.maegz

> <i_m_Source_File_Index>
129

> <chembl_id>
CHEMBL2313273

> <chembl_pref_name>
None

> <i_lp_mmshare_version>
53161

> <i_f3d_flags>
0

> <r_lp_tautomer_probability>
1

> <s_lp_Force_Field>
OPLS_2005

> <r_lp_Energy>
78.569141

> <b_lp_Chiralities_Consistent>
1

> <s_lp_Variant>
CHEMBL4618_lig432-1

> <s_i_glide_gridfile>
glide-grid_3chp

> <i_i_glide_lignum>
500

> <i_i_glide_rotatable_bonds>
5

> <r_i_docking_score>
-9.85959938736073

> <r_i_glide_ligand_efficiency>
-0.328653312912024

> <r_i_glide_ligand_efficiency_sa>
-1.0212022559119

> <r_i_glide_ligand_efficiency_ln>
-2.24020840974807

> <r_i_glide_gscore>
-9.85959938736073

> <r_i_glide_lipo>
-5.70262491430943

> <r_i_glide_hbond>
-0.165462360184481

> <r_i_glide_metal>
0

> <r_i_glide_rewards>
-1.41291704071278

> <r_i_glide_evdw>
-47.2138442993164

> <r_i_glide_ecoul>
-3.77123475074768

> <r_i_glide_erotb>
0.447782355423934

> <r_i_glide_esite>
-0.1

> <r_i_glide_emodel>
-45.754695006415

> <r_i_glide_energy>
-50.9850790500641

> <r_i_glide_einternal>
10.4360628128052

> <i_i_glide_confnum>
13

> <i_i_glide_posenum>
251

> <r_i_glide_eff_state_penalty>
0

> <s_user_duplicate_titles>
CHEMBL4618_lig432

> <s_m_subgroup_title>
dock_pv

> <s_m_subgroupid>
dock_pv

> <b_m_subgroup_collapsed>
1

$$$$
CHEMBL4618_lig286
                    3D
 Schrodinger Suite 2021-1.
 48 51  0  0  1  0            999 V2000
   10.4717   35.6605   73.8085 C   0  0  0  0  0  0
   10.0924   34.5400   73.0726 C   0  0  0  0  0  0
    9.2786   34.6605   71.9411 C   0  0  0  0  0  0
   10.1220   36.9472   73.3971 C   0  0  0  0  0  0
    9.3720   37.0757   72.2220 C   0  0  0  0  0  0
    8.8961   35.9424   71.5230 C   0  0  0  0  0  0
    8.1215   36.2159   70.4360 N   0  0  0  0  0  0
    8.1078   37.4785   70.1636 C   0  0  0  0  0  0
    8.9210   38.5045   71.3198 S   0  0  0  0  0  0
    7.5263   37.9977   69.0309 O   0  0  0  0  0  0
    8.0310   39.1420   68.4625 C   0  0  0  0  0  0
    8.7864   39.0158   67.3108 C   0  0  0  0  0  0
    9.4081   40.1346   66.7833 C   0  0  0  0  0  0
    9.2496   41.4067   67.3700 C   0  0  0  0  0  0
    8.4147   41.5372   68.4694 C   0  0  0  0  0  0
    7.8339   40.4032   69.0193 C   0  0  0  0  0  0
    9.9318   42.5408   66.9626 O   0  0  0  0  0  0
   11.0286   42.2914   66.1039 C   0  0  0  0  0  0
   12.0465   43.4175   65.8680 C   0  0  0  0  0  0
   13.3676   42.8356   65.5900 N   0  0  1  0  0  0
   13.3208   41.8521   64.4991 C   0  0  0  0  0  0
   14.6447   41.1472   64.3379 C   0  0  0  0  0  0
   15.7397   42.1465   64.0335 C   0  0  0  0  0  0
   15.7973   43.2119   65.1403 C   0  0  0  0  0  0
   14.4116   43.8460   65.4091 C   0  0  0  0  0  0
   16.9211   41.4160   63.9400 O   0  0  0  0  0  0
   11.0669   35.5275   74.7009 H   0  0  0  0  0  0
   10.3911   33.5579   73.4135 H   0  0  0  0  0  0
    8.9299   33.7866   71.4107 H   0  0  0  0  0  0
   10.4669   37.8153   73.9404 H   0  0  0  0  0  0
    8.9362   38.0435   66.8643 H   0  0  0  0  0  0
   10.0529   39.9678   65.9400 H   0  0  0  0  0  0
    8.2797   42.5006   68.9391 H   0  0  0  0  0  0
    7.3077   40.4815   69.9390 H   0  0  0  0  0  0
   10.6236   41.9878   65.1401 H   0  0  0  0  0  0
   11.5809   41.4531   66.5409 H   0  0  0  0  0  0
   12.1047   44.0555   66.7401 H   0  0  0  0  0  0
   11.7257   44.0464   65.0361 H   0  0  0  0  0  0
   12.9963   42.3302   63.5728 H   0  0  0  0  0  0
   12.6125   41.0623   64.7399 H   0  0  0  0  0  0
   14.5605   40.4055   63.5403 H   0  0  0  0  0  0
   14.8491   40.6161   65.2630 H   0  0  0  0  0  0
   15.5723   42.6158   63.0622 H   0  0  0  0  0  0
   16.2012   42.8108   66.0690 H   0  0  0  0  0  0
   16.5111   43.9845   64.8552 H   0  0  0  0  0  0
   14.1160   44.5250   64.6078 H   0  0  0  0  0  0
   14.4654   44.4410   66.3200 H   0  0  0  0  0  0
   17.5183   41.9551   63.3877 H   0  0  0  0  0  0
  1  2  2  0  0  0
  1  4  1  0  0  0
  1 27  1  0  0  0
  2  3  1  0  0  0
  2 28  1  0  0  0
  3  6  2  0  0  0
  3 29  1  0  0  0
  4  5  2  0  0  0
  4 30  1  0  0  0
  5  9  1  0  0  0
  5  6  1  0  0  0
  6  7  1  0  0  0
  7  8  2  0  0  0
  8  9  1  0  0  0
  8 10  1  0  0  0
 10 11  1  0  0  0
 11 16  1  0  0  0
 11 12  2  0  0  0
 12 13  1  0  0  0
 12 31  1  0  0  0
 13 14  2  0  0  0
 13 32  1  0  0  0
 14 15  1  0  0  0
 14 17  1  0  0  0
 15 16  2  0  0  0
 15 33  1  0  0  0
 16 34  1  0  0  0
 17 18  1  0  0  0
 18 19  1  0  0  0
 18 35  1  0  0  0
 18 36  1  0  0  0
 19 20  1  0  0  0
 19 37  1  0  0  0
 19 38  1  0  0  0
 20 21  1  0  0  0
 20 25  1  0  0  0
 21 22  1  0  0  0
 21 39  1  0  0  0
 21 40  1  0  0  0
 22 23  1  0  0  0
 22 41  1  0  0  0
 22 42  1  0  0  0
 23 24  1  0  0  0
 23 26  1  0  0  0
 23 43  1  0  0  0
 24 25  1  0  0  0
 24 44  1  0  0  0
 24 45  1  0  0  0
 25 46  1  0  0  0
 25 47  1  0  0  0
 26 48  1  0  0  0
M  END
> <s_m_entry_id>
6700

> <s_m_entry_name>
dock_pv.130

> <s_m_Source_Path>
/home/csk/Desktop/cluster/DUD-E-result/lkha4

> <s_m_Source_File>
dock_pv.maegz

> <i_m_Source_File_Index>
130

> <chembl_id>
CHEMBL481173

> <chembl_pref_name>
None

> <i_lp_mmshare_version>
53161

> <i_f3d_flags>
0

> <r_lp_tautomer_probability>
1

> <s_lp_Force_Field>
OPLS_2005

> <r_lp_Energy>
29.170141

> <b_lp_Chiralities_Consistent>
1

> <s_lp_Variant>
CHEMBL4618_lig286-1

> <s_i_glide_gridfile>
glide-grid_3chp

> <i_i_glide_lignum>
324

> <i_i_glide_rotatable_bonds>
7

> <r_i_docking_score>
-9.85790509636952

> <r_i_glide_ligand_efficiency>
-0.379150196014212

> <r_i_glide_ligand_efficiency_sa>
-1.12323096380812

> <r_i_glide_ligand_efficiency_ln>
-2.31509666545747

> <r_i_glide_gscore>
-9.85790509636952

> <r_i_glide_lipo>
-5.20982783562256

> <r_i_glide_hbond>
-0.137134289567304

> <r_i_glide_metal>
0

> <r_i_glide_rewards>
-1.48106696881336

> <r_i_glide_evdw>
-43.4381980895996

> <r_i_glide_ecoul>
-11.3425254821777

> <r_i_glide_erotb>
0.843412724440342

> <r_i_glide_esite>
0

> <r_i_glide_emodel>
-80.2258392828926

> <r_i_glide_energy>
-54.7807235717773

> <r_i_glide_einternal>
14.8691787719727

> <i_i_glide_confnum>
47

> <i_i_glide_posenum>
342

> <r_i_glide_eff_state_penalty>
0

> <s_user_duplicate_titles>
CHEMBL4618_lig286,467638

> <s_m_subgroup_title>
dock_pv

> <s_m_subgroupid>
dock_pv

> <b_m_subgroup_collapsed>
1

$$$$
CHEMBL4618_lig436
                    3D
 Schrodinger Suite 2021-1.
 50 55  0  0  1  0            999 V2000
    7.9913   37.4201   69.0875 O   0  0  0  0  0  0
    8.9263   38.2204   71.5401 S   0  0  0  0  0  0
    8.4021   37.0497   70.3574 C   0  0  0  0  0  0
    8.5210   35.8160   70.7400 N   0  0  0  0  0  0
    9.2252   35.6914   71.8955 C   0  0  0  0  0  0
    9.5337   36.9106   72.5372 C   0  0  0  0  0  0
    9.6506   34.5057   72.3400 N   0  0  0  0  0  0
   10.3295   34.5069   73.5185 C   0  0  0  0  0  0
   10.6138   35.6557   74.2558 C   0  0  0  0  0  0
   10.2459   36.9005   73.7444 C   0  0  0  0  0  0
    7.4192   41.0661   68.7400 C   0  0  0  0  0  0
    7.3210   39.7328   69.1400 C   0  0  0  0  0  0
    8.1108   38.7148   68.6227 C   0  0  0  0  0  0
    9.0334   39.0160   67.6279 C   0  0  0  0  0  0
    8.9208   42.6040   67.2865 C   0  0  0  0  0  0
    8.4269   41.4008   67.8469 C   0  0  0  0  0  0
    9.2145   40.3663   67.3012 C   0  0  0  0  0  0
   10.1505   40.8804   66.4613 O   0  0  0  0  0  0
    9.9974   42.2384   66.5048 C   0  0  0  0  0  0
   10.8730   43.0407   65.5951 C   0  0  0  0  0  0
   12.2404   42.5146   65.4998 N   0  0  2  0  0  0
   13.1798   43.1232   66.4571 C   0  0  0  0  0  0
   14.2041   43.8753   65.5658 C   0  0  1  0  0  0
   14.9884   42.8138   64.9080 N   0  0  0  0  0  0
   14.1095   42.1593   63.9406 C   0  0  0  0  0  0
   12.8107   42.9344   64.2154 C   0  0  2  0  0  0
   16.2660   42.4570   65.1400 C   0  0  0  0  0  0
   16.7523   41.4160   64.6940 O   0  0  0  0  0  0
   17.1153   43.3334   66.0576 C   0  0  0  0  0  0
   13.2928   44.3412   64.4367 C   0  0  0  0  0  0
   10.6425   33.5378   73.8806 H   0  0  0  0  0  0
   11.1527   35.5845   75.1900 H   0  0  0  0  0  0
   10.5210   37.8128   74.2503 H   0  0  0  0  0  0
    6.7873   41.8327   69.1656 H   0  0  0  0  0  0
    6.6565   39.4704   69.9400 H   0  0  0  0  0  0
    9.6460   38.2448   67.1983 H   0  0  0  0  0  0
    8.5522   43.6091   67.4389 H   0  0  0  0  0  0
   10.8655   44.0901   65.8898 H   0  0  0  0  0  0
   10.3960   43.0164   64.6189 H   0  0  0  0  0  0
   13.6561   42.3875   67.1046 H   0  0  0  0  0  0
   12.6647   43.8160   67.1207 H   0  0  0  0  0  0
   14.7989   44.6160   66.0949 H   0  0  0  0  0  0
   14.0225   41.0751   64.0238 H   0  0  0  0  0  0
   14.4987   42.4349   62.9620 H   0  0  0  0  0  0
   12.1210   42.8678   63.3864 H   0  0  0  0  0  0
   17.2120   44.3309   65.6290 H   0  0  0  0  0  0
   16.6680   43.4158   67.0483 H   0  0  0  0  0  0
   18.1178   42.9178   66.1650 H   0  0  0  0  0  0
   12.5007   45.0160   64.7400 H   0  0  0  0  0  0
   13.7210   44.7627   63.5378 H   0  0  0  0  0  0
  1  3  1  0  0  0
  1 13  1  0  0  0
  2  3  1  0  0  0
  2  6  1  0  0  0
  3  4  2  0  0  0
  4  5  1  0  0  0
  5  6  1  0  0  0
  5  7  2  0  0  0
  6 10  2  0  0  0
  7  8  1  0  0  0
  8  9  2  0  0  0
  8 31  1  0  0  0
  9 10  1  0  0  0
  9 32  1  0  0  0
 10 33  1  0  0  0
 11 16  2  0  0  0
 11 12  1  0  0  0
 11 34  1  0  0  0
 12 13  2  0  0  0
 12 35  1  0  0  0
 13 14  1  0  0  0
 14 17  2  0  0  0
 14 36  1  0  0  0
 15 16  1  0  0  0
 15 19  2  0  0  0
 15 37  1  0  0  0
 16 17  1  0  0  0
 17 18  1  0  0  0
 18 19  1  0  0  0
 19 20  1  0  0  0
 20 21  1  0  0  0
 20 38  1  0  0  0
 20 39  1  0  0  0
 21 22  1  0  0  0
 21 26  1  0  0  0
 22 23  1  0  0  0
 22 40  1  0  0  0
 22 41  1  0  0  0
 23 24  1  0  0  0
 23 30  1  0  0  0
 23 42  1  0  0  0
 24 25  1  0  0  0
 24 27  1  0  0  0
 25 26  1  0  0  0
 25 43  1  0  0  0
 25 44  1  0  0  0
 26 30  1  0  0  0
 26 45  1  0  0  0
 27 28  2  0  0  0
 27 29  1  0  0  0
 29 46  1  0  0  0
 29 47  1  0  0  0
 29 48  1  0  0  0
 30 49  1  0  0  0
 30 50  1  0  0  0
M  END
> <s_m_entry_id>
6701

> <s_m_entry_name>
dock_pv.131

> <s_m_Source_Path>
/home/csk/Desktop/cluster/DUD-E-result/lkha4

> <s_m_Source_File>
dock_pv.maegz

> <i_m_Source_File_Index>
131

> <chembl_id>
CHEMBL2313269

> <chembl_pref_name>
None

> <i_lp_mmshare_version>
53161

> <i_f3d_flags>
0

> <r_lp_tautomer_probability>
1

> <s_lp_Force_Field>
OPLS_2005

> <r_lp_Energy>
77.959986

> <b_lp_Chiralities_Consistent>
1

> <s_lp_Variant>
CHEMBL4618_lig436-2

> <s_i_glide_gridfile>
glide-grid_3chp

> <i_i_glide_lignum>
509

> <i_i_glide_rotatable_bonds>
5

> <r_i_docking_score>
-9.85177773986706

> <r_i_glide_ligand_efficiency>
-0.328392591328902

> <r_i_glide_ligand_efficiency_sa>
-1.02039213333473

> <r_i_glide_ligand_efficiency_ln>
-2.23843124621383

> <r_i_glide_gscore>
-9.85177773986706

> <r_i_glide_lipo>
-5.14959871012876

> <r_i_glide_hbond>
-0.0752421064222315

> <r_i_glide_metal>
0

> <r_i_glide_rewards>
-1.43126456546417

> <r_i_glide_evdw>
-44.6216773986816

> <r_i_glide_ecoul>
-8.1298828125

> <r_i_glide_erotb>
0.447782355423934

> <r_i_glide_esite>
-0.192888421466748

> <r_i_glide_emodel>
-67.9351219521836

> <r_i_glide_energy>
-52.7515602111816

> <r_i_glide_einternal>
3.66722464561462

> <i_i_glide_confnum>
1

> <i_i_glide_posenum>
136

> <r_i_glide_eff_state_penalty>
0

> <s_user_duplicate_titles>
CHEMBL4618_lig436

> <s_m_subgroup_title>
dock_pv

> <s_m_subgroupid>
dock_pv

> <b_m_subgroup_collapsed>
1

$$$$
CHEMBL4618_lig8
                    3D
 Schrodinger Suite 2021-1.
 49 51  0  0  1  0            999 V2000
   12.6819   43.1848   64.8595 C   0  0  0  0  0  0
   14.1565   42.9766   64.9314 C   0  0  0  0  0  0
   17.2074   44.1016   66.9428 C   0  0  0  0  0  0
   11.8176   42.4526   65.8627 C   0  0  2  0  0  0
   14.9526   43.5706   65.9234 C   0  0  0  0  0  0
   16.3452   43.3904   65.9325 C   0  0  0  0  0  0
   10.2819   42.5723   65.7101 C   0  0  0  0  0  0
   12.1691   43.8160   63.9400 O   0  0  0  0  0  0
   16.8663   45.1408   67.5069 O   0  0  0  0  0  0
    7.5256   39.3694   69.5400 O   0  0  0  0  0  0
   12.1623   43.0160   67.1400 N   0  0  0  0  0  0
    9.5437   41.7099   66.7379 C   0  0  0  0  0  0
   18.3954   43.4866   67.1938 O   0  0  0  0  0  0
    8.2232   40.0862   68.5932 C   0  0  0  0  0  0
    7.5451   37.9410   69.5726 C   0  0  0  0  0  0
    9.7505   40.3299   66.7401 C   0  0  0  0  0  0
    8.6614   42.2795   67.6568 C   0  0  0  0  0  0
    8.0101   41.4658   68.5811 C   0  0  0  0  0  0
    9.1031   39.5221   67.6642 C   0  0  0  0  0  0
    8.3702   37.3888   70.7303 C   0  0  0  0  0  0
   14.7632   42.2160   63.9400 C   0  0  0  0  0  0
   16.9278   42.6021   64.9295 C   0  0  0  0  0  0
   16.1401   42.0192   63.9400 C   0  0  0  0  0  0
    8.9880   38.1993   71.6772 C   0  0  0  0  0  0
    8.4651   36.0103   70.8591 C   0  0  0  0  0  0
    9.1121   35.4160   71.9384 C   0  0  0  0  0  0
    9.6794   37.6101   72.7400 C   0  0  0  0  0  0
    9.7210   36.2280   72.8827 C   0  0  0  0  0  0
   12.0955   41.3987   65.8234 H   0  0  0  0  0  0
   14.4912   44.1962   66.6757 H   0  0  0  0  0  0
    9.9530   43.6123   65.7708 H   0  0  0  0  0  0
    9.9803   42.2160   64.7400 H   0  0  0  0  0  0
   11.8835   43.9879   67.1892 H   0  0  0  0  0  0
   11.6346   42.5527   67.8687 H   0  0  0  0  0  0
   18.8778   43.9654   67.8674 H   0  0  0  0  0  0
    6.5210   37.6212   69.7619 H   0  0  0  0  0  0
    7.8107   37.4620   68.6313 H   0  0  0  0  0  0
   10.4235   39.8730   66.0284 H   0  0  0  0  0  0
    8.4732   43.3444   67.6580 H   0  0  0  0  0  0
    7.3210   41.9068   69.2871 H   0  0  0  0  0  0
    9.3210   38.4666   67.6410 H   0  0  0  0  0  0
   14.1594   41.8160   63.1400 H   0  0  0  0  0  0
   18.0031   42.4956   64.8594 H   0  0  0  0  0  0
   16.5985   41.4999   63.1086 H   0  0  0  0  0  0
    8.9210   39.2735   71.5881 H   0  0  0  0  0  0
    8.0067   35.4160   70.0967 H   0  0  0  0  0  0
    9.1504   34.3400   72.0270 H   0  0  0  0  0  0
   10.1670   38.2160   73.4861 H   0  0  0  0  0  0
   10.2367   35.7858   73.7228 H   0  0  0  0  0  0
  1  2  1  0  0  0
  1  4  1  0  0  0
  1  8  2  0  0  0
  2  5  2  0  0  0
  2 21  1  0  0  0
  3  6  1  0  0  0
  3  9  2  0  0  0
  3 13  1  0  0  0
  4  7  1  0  0  0
  4 11  1  0  0  0
  4 29  1  0  0  0
  5  6  1  0  0  0
  5 30  1  0  0  0
  6 22  2  0  0  0
  7 12  1  0  0  0
  7 31  1  0  0  0
  7 32  1  0  0  0
 10 14  1  0  0  0
 10 15  1  0  0  0
 11 33  1  0  0  0
 11 34  1  0  0  0
 12 16  1  0  0  0
 12 17  2  0  0  0
 13 35  1  0  0  0
 14 18  2  0  0  0
 14 19  1  0  0  0
 15 20  1  0  0  0
 15 36  1  0  0  0
 15 37  1  0  0  0
 16 19  2  0  0  0
 16 38  1  0  0  0
 17 18  1  0  0  0
 17 39  1  0  0  0
 18 40  1  0  0  0
 19 41  1  0  0  0
 20 24  2  0  0  0
 20 25  1  0  0  0
 21 23  2  0  0  0
 21 42  1  0  0  0
 22 23  1  0  0  0
 22 43  1  0  0  0
 23 44  1  0  0  0
 24 27  1  0  0  0
 24 45  1  0  0  0
 25 26  2  0  0  0
 25 46  1  0  0  0
 26 28  1  0  0  0
 26 47  1  0  0  0
 27 28  2  0  0  0
 27 48  1  0  0  0
 28 49  1  0  0  0
M  END
> <s_m_entry_id>
6702

> <s_m_entry_name>
dock_pv.132

> <s_m_Source_Path>
/home/csk/Desktop/cluster/DUD-E-result/lkha4

> <s_m_Source_File>
dock_pv.maegz

> <i_m_Source_File_Index>
132

> <chembl_id>
CHEMBL68958

> <chembl_pref_name>
None

> <i_lp_mmshare_version>
53161

> <i_f3d_flags>
0

> <r_lp_tautomer_probability>
1

> <s_lp_Force_Field>
OPLS_2005

> <r_lp_Energy>
36.121564

> <b_lp_Chiralities_Consistent>
1

> <s_lp_Variant>
CHEMBL4618_lig8-1

> <s_i_glide_gridfile>
glide-grid_3chp

> <i_i_glide_lignum>
8

> <i_i_glide_rotatable_bonds>
9

> <r_i_docking_score>
-9.85047671531738

> <r_i_glide_ligand_efficiency>
-0.351802739832764

> <r_i_glide_ligand_efficiency_sa>
-1.06828031886524

> <r_i_glide_ligand_efficiency_ln>
-2.27377924845912

> <r_i_glide_gscore>
-9.85047671531738

> <r_i_glide_lipo>
-4.73124935474556

> <r_i_glide_hbond>
-0.314903827708948

> <r_i_glide_metal>
0

> <r_i_glide_rewards>
-2.24910950644598

> <r_i_glide_evdw>
-47.5198440551758

> <r_i_glide_ecoul>
-8.51590442657471

> <r_i_glide_erotb>
1.0981638403281

> <r_i_glide_esite>
0

> <r_i_glide_emodel>
-86.7781784762546

> <r_i_glide_energy>
-56.0357484817505

> <r_i_glide_einternal>
8.61828136444092

> <i_i_glide_confnum>
68

> <i_i_glide_posenum>
283

> <r_i_glide_eff_state_penalty>
0

> <s_user_duplicate_titles>
CHEMBL4618_lig8

> <s_m_subgroup_title>
dock_pv

> <s_m_subgroupid>
dock_pv

> <b_m_subgroup_collapsed>
1

$$$$
CHEMBL4618_lig463
                    3D
 Schrodinger Suite 2021-1.
 56 60  0  0  1  0            999 V2000
   11.2119   35.0524   75.5102 C   0  0  0  0  0  0
   10.8916   36.4335   74.9277 C   0  0  0  0  0  0
   11.4490   37.4090   75.4447 O   0  0  0  0  0  0
   10.1947   36.4991   73.7616 N   0  0  0  0  0  0
    9.1511   35.4975   73.5207 C   0  0  0  0  0  0
    8.6898   35.5102   72.0444 C   0  0  0  0  0  0
    8.4382   36.8523   71.5136 N   0  0  0  0  0  0
    7.8215   36.7242   70.1793 C   0  0  0  0  0  0
    7.9966   37.8893   69.2238 C   0  0  0  0  0  0
    8.4720   37.6535   67.9471 C   0  0  0  0  0  0
    8.8454   38.6161   67.0890 N   0  0  0  0  0  0
    8.7447   39.8901   67.5160 C   0  0  0  0  0  0
    9.3370   40.8633   66.7401 C   0  0  0  0  0  0
    9.3029   42.2040   67.0882 C   0  0  0  0  0  0
    9.9894   43.1210   66.3228 O   0  0  0  0  0  0
   11.2909   42.8904   65.8934 C   0  0  0  0  0  0
   11.8871   43.8163   65.0540 C   0  0  0  0  0  0
   13.2381   43.7017   64.7398 C   0  0  0  0  0  0
   13.9607   42.6158   65.2358 C   0  0  0  0  0  0
   13.2598   41.6365   65.9402 C   0  0  0  0  0  0
   11.9731   41.7907   66.3178 N   0  0  0  0  0  0
   15.4372   42.6403   65.1994 C   0  0  0  0  0  0
   16.2187   43.5374   65.9407 C   0  0  0  0  0  0
   17.5248   43.2567   65.6172 C   0  0  0  0  0  0
   17.4305   42.2166   64.7399 N   0  0  0  0  0  0
   16.1765   41.8156   64.4922 N   0  0  0  0  0  0
    8.5638   42.5932   68.2047 C   0  0  0  0  0  0
    7.9930   41.6304   69.0394 C   0  0  0  0  0  0
    8.1220   40.2584   68.7322 C   0  0  0  0  0  0
    7.7221   39.2041   69.5748 C   0  0  0  0  0  0
    9.6139   37.7230   71.6750 C   0  0  0  0  0  0
    9.9930   37.8160   73.1462 C   0  0  0  0  0  0
   11.2343   34.2633   74.7606 H   0  0  0  0  0  0
   10.5209   34.7812   76.3034 H   0  0  0  0  0  0
   12.1995   35.0737   75.9441 H   0  0  0  0  0  0
    9.4502   34.4716   73.7303 H   0  0  0  0  0  0
    8.2719   35.8163   74.0856 H   0  0  0  0  0  0
    7.7845   34.9033   71.9392 H   0  0  0  0  0  0
    9.4752   35.0604   71.4366 H   0  0  0  0  0  0
    8.1631   35.8152   69.6811 H   0  0  0  0  0  0
    6.7503   36.6168   70.3204 H   0  0  0  0  0  0
    8.6556   36.6491   67.6167 H   0  0  0  0  0  0
    9.8779   40.5382   65.8713 H   0  0  0  0  0  0
   11.3201   44.6660   64.7400 H   0  0  0  0  0  0
   13.7221   44.4862   64.1789 H   0  0  0  0  0  0
   13.7211   40.7474   66.3356 H   0  0  0  0  0  0
   15.8559   44.3081   66.6045 H   0  0  0  0  0  0
   18.4746   43.7045   65.8722 H   0  0  0  0  0  0
   18.2192   41.8809   64.1977 H   0  0  0  0  0  0
    8.4628   43.6372   68.4526 H   0  0  0  0  0  0
    7.4770   41.9087   69.9399 H   0  0  0  0  0  0
    7.3222   39.4159   70.5419 H   0  0  0  0  0  0
    9.3854   38.7314   71.3437 H   0  0  0  0  0  0
   10.4923   37.4161   71.1396 H   0  0  0  0  0  0
    9.0686   38.2160   73.5399 H   0  0  0  0  0  0
   10.8194   38.5207   73.3174 H   0  0  0  0  0  0
  1  2  1  0  0  0
  1 33  1  0  0  0
  1 34  1  0  0  0
  1 35  1  0  0  0
  2  3  2  0  0  0
  2  4  1  0  0  0
  4  5  1  0  0  0
  4 32  1  0  0  0
  5  6  1  0  0  0
  5 36  1  0  0  0
  5 37  1  0  0  0
  6  7  1  0  0  0
  6 38  1  0  0  0
  6 39  1  0  0  0
  7  8  1  0  0  0
  7 31  1  0  0  0
  8  9  1  0  0  0
  8 40  1  0  0  0
  8 41  1  0  0  0
  9 10  2  0  0  0
  9 30  1  0  0  0
 10 11  1  0  0  0
 10 42  1  0  0  0
 11 12  2  0  0  0
 12 13  1  0  0  0
 12 29  1  0  0  0
 13 14  2  0  0  0
 13 43  1  0  0  0
 14 15  1  0  0  0
 14 27  1  0  0  0
 15 16  1  0  0  0
 16 17  2  0  0  0
 16 21  1  0  0  0
 17 18  1  0  0  0
 17 44  1  0  0  0
 18 19  2  0  0  0
 18 45  1  0  0  0
 19 20  1  0  0  0
 19 22  1  0  0  0
 20 21  2  0  0  0
 20 46  1  0  0  0
 22 26  2  0  0  0
 22 23  1  0  0  0
 23 24  2  0  0  0
 23 47  1  0  0  0
 24 25  1  0  0  0
 24 48  1  0  0  0
 25 26  1  0  0  0
 25 49  1  0  0  0
 27 28  2  0  0  0
 27 50  1  0  0  0
 28 29  1  0  0  0
 28 51  1  0  0  0
 29 30  2  0  0  0
 30 52  1  0  0  0
 31 32  1  0  0  0
 31 53  1  0  0  0
 31 54  1  0  0  0
 32 55  1  0  0  0
 32 56  1  0  0  0
M  END
> <s_m_entry_id>
6703

> <s_m_entry_name>
dock_pv.133

> <s_m_Source_Path>
/home/csk/Desktop/cluster/DUD-E-result/lkha4

> <s_m_Source_File>
dock_pv.maegz

> <i_m_Source_File_Index>
133

> <chembl_id>
CHEMBL3910403

> <chembl_pref_name>
None

> <i_lp_mmshare_version>
53161

> <i_f3d_flags>
0

> <r_lp_tautomer_probability>
0.5

> <s_lp_Force_Field>
OPLS_2005

> <r_lp_Energy>
49.8339

> <b_lp_Chiralities_Consistent>
1

> <s_lp_Variant>
CHEMBL4618_lig463-2

> <s_i_glide_gridfile>
glide-grid_3chp

> <i_i_glide_lignum>
542

> <i_i_glide_rotatable_bonds>
6

> <r_i_docking_score>
-9.84011425218149

> <r_i_glide_ligand_efficiency>
-0.307503570380672

> <r_i_glide_ligand_efficiency_sa>
-0.976262981084688

> <r_i_glide_ligand_efficiency_ln>
-2.20346981244735

> <r_i_glide_gscore>
-9.84011425218149

> <r_i_glide_lipo>
-5.33089737736564

> <r_i_glide_hbond>
-0.353389383467113

> <r_i_glide_metal>
0

> <r_i_glide_rewards>
-1.29024459128985

> <r_i_glide_evdw>
-47.1859016418457

> <r_i_glide_ecoul>
-6.31498670578003

> <r_i_glide_erotb>
0.540960187900403

> <r_i_glide_esite>
-0.1

> <r_i_glide_emodel>
-54.3189042499734

> <r_i_glide_energy>
-53.5008883476257

> <r_i_glide_einternal>
24.5426330566406

> <i_i_glide_confnum>
10

> <i_i_glide_posenum>
93

> <r_i_glide_eff_state_penalty>
0

> <s_user_duplicate_titles>
CHEMBL4618_lig463,CHEMBL4618_lig463

> <s_m_subgroup_title>
dock_pv

> <s_m_subgroupid>
dock_pv

> <b_m_subgroup_collapsed>
1

$$$$
CHEMBL4618_lig142
                    3D
 Schrodinger Suite 2021-1.
 58 59  0  0  1  0            999 V2000
   16.3846   42.5157   64.9969 C   0  0  0  0  0  0
   14.8954   42.5984   64.6788 C   0  0  0  0  0  0
   16.9209   41.4160   65.1400 O   0  0  0  0  0  0
   14.1135   43.4169   65.7293 C   0  0  0  0  0  0
   12.6570   43.2930   65.6356 N   0  0  2  0  0  0
    8.1673   37.4874   71.1606 C   0  0  0  0  0  0
    8.1170   36.8552   72.5433 C   0  0  0  0  0  0
    8.1910   38.7596   68.6678 C   0  0  0  0  0  0
   16.9883   43.7147   65.1401 O   0  0  0  0  0  0
    8.5982   38.7991   71.0478 C   0  0  0  0  0  0
    7.7208   36.8168   70.0221 C   0  0  0  0  0  0
    7.7350   37.4514   68.7849 C   0  0  0  0  0  0
    8.6042   39.4351   69.8172 C   0  0  0  0  0  0
    9.1932   35.8254   72.8376 C   0  0  0  0  0  0
    8.1853   39.3067   67.4037 O   0  0  0  0  0  0
   12.1569   41.9555   65.9667 C   0  0  0  0  0  0
   12.1604   43.7743   64.3502 C   0  0  0  0  0  0
   18.3913   43.8122   65.3697 C   0  0  0  0  0  0
    8.6401   40.6435   67.1910 C   0  0  0  0  0  0
    9.3244   34.6987   72.0213 C   0  0  0  0  0  0
    9.9812   35.9610   73.9850 C   0  0  0  0  0  0
   10.6633   41.9848   66.3561 C   0  0  0  0  0  0
   10.1488   40.6364   66.8892 C   0  0  0  0  0  0
   18.7371   43.6160   66.8536 C   0  0  0  0  0  0
   10.8677   34.9502   74.3398 C   0  0  0  0  0  0
   10.2210   33.6953   72.3671 C   0  0  0  0  0  0
   10.9611   33.8146   73.5401 C   0  0  0  0  0  0
   14.7823   43.0158   63.6787 H   0  0  0  0  0  0
   14.5106   41.5805   64.6343 H   0  0  0  0  0  0
   14.4050   43.1292   66.7401 H   0  0  0  0  0  0
   14.3619   44.4731   65.6304 H   0  0  0  0  0  0
    8.1661   37.6466   73.2901 H   0  0  0  0  0  0
    7.1503   36.3925   72.7152 H   0  0  0  0  0  0
    8.8898   39.3429   71.9270 H   0  0  0  0  0  0
    7.3297   35.8161   70.0855 H   0  0  0  0  0  0
    7.3817   36.9339   67.9106 H   0  0  0  0  0  0
    8.9210   40.4623   69.7909 H   0  0  0  0  0  0
   12.3110   41.2652   65.1400 H   0  0  0  0  0  0
   12.7392   41.5159   66.7711 H   0  0  0  0  0  0
   11.0725   43.8155   64.3395 H   0  0  0  0  0  0
   12.5289   44.7809   64.1473 H   0  0  0  0  0  0
   12.4846   43.1225   63.5399 H   0  0  0  0  0  0
   18.7151   44.8041   65.0550 H   0  0  0  0  0  0
   18.9383   43.1024   64.7450 H   0  0  0  0  0  0
    8.3803   41.3364   67.9909 H   0  0  0  0  0  0
    8.0881   41.0286   66.3401 H   0  0  0  0  0  0
    8.7113   34.5672   71.1445 H   0  0  0  0  0  0
    9.8788   36.8257   74.6258 H   0  0  0  0  0  0
   10.4722   42.7831   67.0755 H   0  0  0  0  0  0
   10.0726   42.2155   65.4696 H   0  0  0  0  0  0
   10.3586   39.8549   66.1566 H   0  0  0  0  0  0
   10.6935   40.3604   67.7919 H   0  0  0  0  0  0
   19.8067   43.7452   67.0190 H   0  0  0  0  0  0
   18.4708   42.6161   67.1968 H   0  0  0  0  0  0
   18.2098   44.3363   67.4790 H   0  0  0  0  0  0
   11.4537   35.0289   75.2444 H   0  0  0  0  0  0
   10.3105   32.8086   71.7569 H   0  0  0  0  0  0
   11.6324   33.0173   73.8265 H   0  0  0  0  0  0
  1  2  1  0  0  0
  1  3  2  0  0  0
  1  9  1  0  0  0
  2  4  1  0  0  0
  2 28  1  0  0  0
  2 29  1  0  0  0
  4  5  1  0  0  0
  4 30  1  0  0  0
  4 31  1  0  0  0
  5 16  1  0  0  0
  5 17  1  0  0  0
  6 10  2  0  0  0
  6  7  1  0  0  0
  6 11  1  0  0  0
  7 14  1  0  0  0
  7 32  1  0  0  0
  7 33  1  0  0  0
  8 15  1  0  0  0
  8 12  1  0  0  0
  8 13  2  0  0  0
  9 18  1  0  0  0
 10 13  1  0  0  0
 10 34  1  0  0  0
 11 12  2  0  0  0
 11 35  1  0  0  0
 12 36  1  0  0  0
 13 37  1  0  0  0
 14 20  1  0  0  0
 14 21  2  0  0  0
 15 19  1  0  0  0
 16 22  1  0  0  0
 16 38  1  0  0  0
 16 39  1  0  0  0
 17 40  1  0  0  0
 17 41  1  0  0  0
 17 42  1  0  0  0
 18 24  1  0  0  0
 18 43  1  0  0  0
 18 44  1  0  0  0
 19 23  1  0  0  0
 19 45  1  0  0  0
 19 46  1  0  0  0
 20 26  2  0  0  0
 20 47  1  0  0  0
 21 25  1  0  0  0
 21 48  1  0  0  0
 22 23  1  0  0  0
 22 49  1  0  0  0
 22 50  1  0  0  0
 23 51  1  0  0  0
 23 52  1  0  0  0
 24 53  1  0  0  0
 24 54  1  0  0  0
 24 55  1  0  0  0
 25 27  2  0  0  0
 25 56  1  0  0  0
 26 27  1  0  0  0
 26 57  1  0  0  0
 27 58  1  0  0  0
M  END
> <s_m_entry_id>
6704

> <s_m_entry_name>
dock_pv.134

> <s_m_Source_Path>
/home/csk/Desktop/cluster/DUD-E-result/lkha4

> <s_m_Source_File>
dock_pv.maegz

> <i_m_Source_File_Index>
134

> <chembl_id>
CHEMBL117231

> <chembl_pref_name>
None

> <i_lp_mmshare_version>
53161

> <i_f3d_flags>
0

> <r_lp_tautomer_probability>
1

> <s_lp_Force_Field>
OPLS_2005

> <r_lp_Energy>
24.09189

> <b_lp_Chiralities_Consistent>
1

> <s_lp_Variant>
CHEMBL4618_lig142-1

> <s_i_glide_gridfile>
glide-grid_3chp

> <i_i_glide_lignum>
168

> <i_i_glide_rotatable_bonds>
13

> <r_i_docking_score>
-9.83510748891104

> <r_i_glide_ligand_efficiency>
-0.364263240330039

> <r_i_glide_ligand_efficiency_sa>
-1.09278971978956

> <r_i_glide_ligand_efficiency_ln>
-2.28945087899926

> <r_i_glide_gscore>
-9.83510748891104

> <r_i_glide_lipo>
-5.84290941749674

> <r_i_glide_hbond>
-0.32

> <r_i_glide_metal>
0

> <r_i_glide_rewards>
-1.78939068119045

> <r_i_glide_evdw>
-51.4928588867188

> <r_i_glide_ecoul>
-6.01936864852905

> <r_i_glide_erotb>
1.69474085139144

> <r_i_glide_esite>
-0.1

> <r_i_glide_emodel>
-90.1387545557659

> <r_i_glide_energy>
-57.5122275352478

> <r_i_glide_einternal>
11.2817802429199

> <i_i_glide_confnum>
179

> <i_i_glide_posenum>
191

> <r_i_glide_eff_state_penalty>
0

> <s_user_duplicate_titles>
CHEMBL4618_lig142,192901

> <s_m_subgroup_title>
dock_pv

> <s_m_subgroupid>
dock_pv

> <b_m_subgroup_collapsed>
1

$$$$
CHEMBL4618_lig183
                    3D
 Schrodinger Suite 2021-1.
 41 42  0  0  1  0            999 V2000
    8.4950   36.1191   70.7400 C   0  0  0  0  0  0
    8.8668   36.7690   71.9028 C   0  0  0  0  0  0
    8.8783   38.1522   71.9400 C   0  0  0  0  0  0
    8.5292   38.8978   70.8162 C   0  0  0  0  0  0
    8.1512   38.2505   69.6420 C   0  0  0  0  0  0
    8.1210   36.8539   69.6136 C   0  0  0  0  0  0
    7.7210   39.0316   68.4046 C   0  0  0  0  0  0
    7.9809   40.4532   68.4751 O   0  0  0  0  0  0
    8.9833   41.0031   67.6946 C   0  0  0  0  0  0
    9.9516   40.2160   67.0904 C   0  0  0  0  0  0
   10.9671   40.7629   66.3400 C   0  0  0  0  0  0
   11.0989   42.1404   66.1997 C   0  0  0  0  0  0
   10.0923   42.9495   66.7403 C   0  0  0  0  0  0
    9.0511   42.3871   67.4979 C   0  0  0  0  0  0
   12.1781   42.7108   65.4784 N   0  0  0  0  0  0
   13.3490   42.1077   65.1292 C   0  0  0  0  0  0
   13.7210   41.0160   65.5400 O   0  0  0  0  0  0
   14.2263   42.8269   64.1015 C   0  0  0  0  0  0
   15.7507   42.4326   64.0249 C   0  0  1  0  0  0
   16.6055   42.8437   65.2533 C   0  0  0  0  0  0
   16.1210   41.0875   63.5400 N   0  0  0  0  0  0
   16.4867   44.1726   65.5400 O   0  0  0  0  0  0
   17.3086   42.0531   65.8778 O   0  0  0  0  0  0
    8.5010   35.0396   70.7272 H   0  0  0  0  0  0
    9.1411   36.1996   72.7791 H   0  0  0  0  0  0
    9.1495   38.6160   72.8688 H   0  0  0  0  0  0
    8.5214   39.9744   70.8665 H   0  0  0  0  0  0
    7.8227   36.3322   68.7165 H   0  0  0  0  0  0
    6.6412   38.9297   68.3400 H   0  0  0  0  0  0
    8.0484   38.5407   67.4887 H   0  0  0  0  0  0
    9.9640   39.1460   67.1970 H   0  0  0  0  0  0
   11.6435   40.0696   65.8705 H   0  0  0  0  0  0
   10.1126   44.0147   66.5891 H   0  0  0  0  0  0
    8.2953   43.0264   67.9327 H   0  0  0  0  0  0
   12.0512   43.6703   65.1981 H   0  0  0  0  0  0
   14.1210   43.8990   64.2617 H   0  0  0  0  0  0
   13.7782   42.6360   63.1263 H   0  0  0  0  0  0
   16.1430   43.0160   63.2004 H   0  0  0  0  0  0
   15.5027   40.9450   62.7123 H   0  0  0  0  0  0
   16.9929   41.2954   63.0478 H   0  0  0  0  0  0
   15.9977   44.6159   64.8376 H   0  0  0  0  0  0
  1  6  1  0  0  0
  1  2  2  0  0  0
  1 24  1  0  0  0
  2  3  1  0  0  0
  2 25  1  0  0  0
  3  4  2  0  0  0
  3 26  1  0  0  0
  4  5  1  0  0  0
  4 27  1  0  0  0
  5  6  2  0  0  0
  5  7  1  0  0  0
  6 28  1  0  0  0
  7  8  1  0  0  0
  7 29  1  0  0  0
  7 30  1  0  0  0
  8  9  1  0  0  0
  9 14  1  0  0  0
  9 10  2  0  0  0
 10 11  1  0  0  0
 10 31  1  0  0  0
 11 12  2  0  0  0
 11 32  1  0  0  0
 12 13  1  0  0  0
 12 15  1  0  0  0
 13 14  2  0  0  0
 13 33  1  0  0  0
 14 34  1  0  0  0
 15 16  1  0  0  0
 15 35  1  0  0  0
 16 17  2  0  0  0
 16 18  1  0  0  0
 18 19  1  0  0  0
 18 36  1  0  0  0
 18 37  1  0  0  0
 19 20  1  0  0  0
 19 21  1  0  0  0
 19 38  1  0  0  0
 20 22  1  0  0  0
 20 23  2  0  0  0
 21 39  1  0  0  0
 21 40  1  0  0  0
 22 41  1  0  0  0
M  END
> <s_m_entry_id>
6705

> <s_m_entry_name>
dock_pv.135

> <s_m_Source_Path>
/home/csk/Desktop/cluster/DUD-E-result/lkha4

> <s_m_Source_File>
dock_pv.maegz

> <i_m_Source_File_Index>
135

> <chembl_id>
CHEMBL517209

> <chembl_pref_name>
None

> <i_lp_mmshare_version>
53161

> <i_f3d_flags>
0

> <r_lp_tautomer_probability>
1

> <s_lp_Force_Field>
OPLS_2005

> <r_lp_Energy>
18.223716

> <b_lp_Chiralities_Consistent>
1

> <s_lp_Variant>
CHEMBL4618_lig183-1

> <s_i_glide_gridfile>
glide-grid_3chp

> <i_i_glide_lignum>
210

> <i_i_glide_rotatable_bonds>
9

> <r_i_docking_score>
-9.819589306854

> <r_i_glide_ligand_efficiency>
-0.426938665515391

> <r_i_glide_ligand_efficiency_sa>
-1.21415677201212

> <r_i_glide_ligand_efficiency_ln>
-2.37446573351034

> <r_i_glide_gscore>
-9.819589306854

> <r_i_glide_lipo>
-3.877201171554

> <r_i_glide_hbond>
-0.432

> <r_i_glide_metal>
0

> <r_i_glide_rewards>
-1.85003005184988

> <r_i_glide_evdw>
-26.371223449707

> <r_i_glide_ecoul>
-24.97802734375

> <r_i_glide_erotb>
1.50490719059773

> <r_i_glide_esite>
-0.1

> <r_i_glide_emodel>
-90.5760886758872

> <r_i_glide_energy>
-51.349250793457

> <r_i_glide_einternal>
6.02786159515381

> <i_i_glide_confnum>
69

> <i_i_glide_posenum>
86

> <r_i_glide_eff_state_penalty>
0

> <s_user_duplicate_titles>
CHEMBL4618_lig183

> <s_m_subgroup_title>
dock_pv

> <s_m_subgroupid>
dock_pv

> <b_m_subgroup_collapsed>
1

$$$$
CHEMBL4618_lig432
                    3D
 Schrodinger Suite 2021-1.
 50 55  0  0  1  0            999 V2000
    7.7838   37.4196   69.2001 O   0  0  0  0  0  0
    9.0275   38.2160   71.5385 S   0  0  0  0  0  0
    8.3681   37.0532   70.3988 C   0  0  0  0  0  0
    8.5209   35.8160   70.7437 N   0  0  0  0  0  0
    9.2609   35.6751   71.8702 C   0  0  0  0  0  0
    9.6462   36.8769   72.5034 C   0  0  0  0  0  0
    9.7210   34.4635   72.3965 C   0  0  0  0  0  0
   10.4467   34.4101   73.5400 N   0  0  0  0  0  0
   10.7510   35.5713   74.1683 C   0  0  0  0  0  0
   10.4257   36.8386   73.6730 C   0  0  0  0  0  0
    9.3695   39.6543   66.7569 C   0  0  0  0  0  0
    8.8095   38.5248   67.3602 C   0  0  0  0  0  0
    8.1211   38.5895   68.5567 C   0  0  0  0  0  0
    7.7821   39.8252   69.0616 C   0  0  0  0  0  0
    9.3601   42.2916   66.8957 C   0  0  0  0  0  0
    9.0595   40.9238   67.2477 C   0  0  0  0  0  0
    8.2126   40.9705   68.3803 C   0  0  0  0  0  0
    7.8642   42.2448   68.6587 O   0  0  0  0  0  0
    8.4555   42.9920   67.6875 C   0  0  0  0  0  0
   10.2170   42.9000   65.7789 C   0  0  0  0  0  0
   11.5902   42.4004   65.5746 N   0  0  2  0  0  0
   12.5667   42.8033   66.5998 C   0  0  0  0  0  0
   13.6523   43.6109   65.8353 C   0  0  1  0  0  0
   14.3744   42.6746   64.9530 N   0  0  0  0  0  0
   13.4333   42.2237   63.9266 C   0  0  0  0  0  0
   12.1791   43.0153   64.3582 C   0  0  2  0  0  0
   15.7053   42.4541   64.9436 C   0  0  0  0  0  0
   16.4530   42.8207   65.8505 O   0  0  0  0  0  0
   16.3040   41.6701   63.7753 C   0  0  0  0  0  0
   12.8179   44.3146   64.7765 C   0  0  0  0  0  0
    9.4998   33.5249   71.9139 H   0  0  0  0  0  0
   11.3210   35.4668   75.0811 H   0  0  0  0  0  0
   10.7922   37.7332   74.1497 H   0  0  0  0  0  0
   10.0467   39.5421   65.9400 H   0  0  0  0  0  0
    8.9210   37.5482   66.9343 H   0  0  0  0  0  0
    7.1987   39.8160   69.9400 H   0  0  0  0  0  0
    8.1210   44.0147   67.6629 H   0  0  0  0  0  0
   10.2350   43.9841   65.8964 H   0  0  0  0  0  0
    9.6914   42.7491   64.8450 H   0  0  0  0  0  0
   13.0012   41.9614   67.1355 H   0  0  0  0  0  0
   12.0814   43.4162   67.3573 H   0  0  0  0  0  0
   14.3101   44.2160   66.4592 H   0  0  0  0  0  0
   13.3210   41.1417   63.8696 H   0  0  0  0  0  0
   13.7965   42.5943   62.9656 H   0  0  0  0  0  0
   11.4719   43.1389   63.5406 H   0  0  0  0  0  0
   15.7211   40.7797   63.5399 H   0  0  0  0  0  0
   16.2976   42.3038   62.8862 H   0  0  0  0  0  0
   17.3445   41.4161   63.9653 H   0  0  0  0  0  0
   12.0802   45.0149   65.1400 H   0  0  0  0  0  0
   13.3959   44.8102   63.9918 H   0  0  0  0  0  0
  1  3  1  0  0  0
  1 13  1  0  0  0
  2  3  1  0  0  0
  2  6  1  0  0  0
  3  4  2  0  0  0
  4  5  1  0  0  0
  5  6  1  0  0  0
  5  7  2  0  0  0
  6 10  2  0  0  0
  7  8  1  0  0  0
  7 31  1  0  0  0
  8  9  2  0  0  0
  9 10  1  0  0  0
  9 32  1  0  0  0
 10 33  1  0  0  0
 11 16  2  0  0  0
 11 12  1  0  0  0
 11 34  1  0  0  0
 12 13  2  0  0  0
 12 35  1  0  0  0
 13 14  1  0  0  0
 14 17  2  0  0  0
 14 36  1  0  0  0
 15 16  1  0  0  0
 15 19  2  0  0  0
 15 20  1  0  0  0
 16 17  1  0  0  0
 17 18  1  0  0  0
 18 19  1  0  0  0
 19 37  1  0  0  0
 20 21  1  0  0  0
 20 38  1  0  0  0
 20 39  1  0  0  0
 21 22  1  0  0  0
 21 26  1  0  0  0
 22 23  1  0  0  0
 22 40  1  0  0  0
 22 41  1  0  0  0
 23 24  1  0  0  0
 23 30  1  0  0  0
 23 42  1  0  0  0
 24 25  1  0  0  0
 24 27  1  0  0  0
 25 26  1  0  0  0
 25 43  1  0  0  0
 25 44  1  0  0  0
 26 30  1  0  0  0
 26 45  1  0  0  0
 27 28  2  0  0  0
 27 29  1  0  0  0
 29 46  1  0  0  0
 29 47  1  0  0  0
 29 48  1  0  0  0
 30 49  1  0  0  0
 30 50  1  0  0  0
M  END
> <s_m_entry_id>
6706

> <s_m_entry_name>
dock_pv.136

> <s_m_Source_Path>
/home/csk/Desktop/cluster/DUD-E-result/lkha4

> <s_m_Source_File>
dock_pv.maegz

> <i_m_Source_File_Index>
136

> <chembl_id>
CHEMBL2313273

> <chembl_pref_name>
None

> <i_lp_mmshare_version>
53161

> <i_f3d_flags>
0

> <r_lp_tautomer_probability>
1

> <s_lp_Force_Field>
OPLS_2005

> <r_lp_Energy>
82.068842

> <b_lp_Chiralities_Consistent>
1

> <s_lp_Variant>
CHEMBL4618_lig432-2

> <s_i_glide_gridfile>
glide-grid_3chp

> <i_i_glide_lignum>
501

> <i_i_glide_rotatable_bonds>
5

> <r_i_docking_score>
-9.81402551424605

> <r_i_glide_ligand_efficiency>
-0.327134183808202

> <r_i_glide_ligand_efficiency_sa>
-1.01648196858511

> <r_i_glide_ligand_efficiency_ln>
-2.22985352920929

> <r_i_glide_gscore>
-9.81402551424605

> <r_i_glide_lipo>
-5.64051633677554

> <r_i_glide_hbond>
-0.31665966293312

> <r_i_glide_metal>
0

> <r_i_glide_rewards>
-1.42929645713181

> <r_i_glide_evdw>
-40.8076629638672

> <r_i_glide_ecoul>
-4.77457714080811

> <r_i_glide_erotb>
0.447782355423934

> <r_i_glide_esite>
-0.118765693514938

> <r_i_glide_emodel>
-48.8890311713359

> <r_i_glide_energy>
-45.5822401046753

> <r_i_glide_einternal>
4.27147483825684

> <i_i_glide_confnum>
6

> <i_i_glide_posenum>
158

> <r_i_glide_eff_state_penalty>
0

> <s_user_duplicate_titles>
CHEMBL4618_lig432

> <s_m_subgroup_title>
dock_pv

> <s_m_subgroupid>
dock_pv

> <b_m_subgroup_collapsed>
1

$$$$
CHEMBL4618_lig367
                    3D
 Schrodinger Suite 2021-1.
 51 54  0  0  1  0            999 V2000
    8.5210   35.8160   71.2601 C   0  0  0  0  0  0
    9.2909   36.3839   72.2775 C   0  0  0  0  0  0
    9.4050   37.7708   72.3400 C   0  0  0  0  0  0
    8.7884   38.5792   71.3903 C   0  0  0  0  0  0
    8.0497   38.0079   70.3619 C   0  0  0  0  0  0
    7.9117   36.6223   70.3035 C   0  0  0  0  0  0
    7.3368   38.9046   69.3623 C   0  0  0  0  0  0
    8.2217   39.8035   68.5236 C   0  0  0  0  0  0
    8.9210   39.2264   67.4786 C   0  0  0  0  0  0
    9.7944   40.0013   66.7400 C   0  0  0  0  0  0
    9.9937   41.3598   67.0161 C   0  0  0  0  0  0
    9.1801   41.9605   67.9773 C   0  0  0  0  0  0
    8.3008   41.1854   68.7400 C   0  0  0  0  0  0
   10.9770   42.1214   66.3980 O   0  0  0  0  0  0
   12.1299   41.4128   65.9162 C   0  0  0  0  0  0
   13.2485   42.2841   65.3187 C   0  0  2  0  0  0
   14.2376   41.3921   64.5160 C   0  0  0  0  0  0
   15.4294   42.1668   63.9403 C   0  0  0  0  0  0
   16.1100   42.9622   65.0596 C   0  0  0  0  0  0
   15.0880   43.8314   65.8154 C   0  0  0  0  0  0
   13.9634   43.0562   66.3393 N   0  0  1  0  0  0
   10.0418   35.5623   73.2744 C   0  0  0  0  0  0
   10.5210   35.9231   74.5366 C   0  0  0  0  0  0
   11.3153   34.9400   75.1343 C   0  0  0  0  0  0
   11.4408   33.8160   74.3400 C   0  0  0  0  0  0
   10.5210   33.9326   72.8811 S   0  0  0  0  0  0
    8.4106   34.7449   71.1917 H   0  0  0  0  0  0
    9.9879   38.2160   73.1295 H   0  0  0  0  0  0
    8.8714   39.6529   71.4529 H   0  0  0  0  0  0
    7.3210   36.1592   69.5321 H   0  0  0  0  0  0
    6.7390   38.2918   68.6841 H   0  0  0  0  0  0
    6.6824   39.5403   69.9400 H   0  0  0  0  0  0
    8.8334   38.1700   67.2668 H   0  0  0  0  0  0
   10.3446   39.4953   65.9639 H   0  0  0  0  0  0
    9.2788   43.0160   68.1792 H   0  0  0  0  0  0
    7.7142   41.6532   69.5183 H   0  0  0  0  0  0
   12.5654   40.8527   66.7394 H   0  0  0  0  0  0
   11.8426   40.6904   65.1582 H   0  0  0  0  0  0
   12.7927   43.0128   64.6458 H   0  0  0  0  0  0
   14.6242   40.6232   65.1833 H   0  0  0  0  0  0
   13.7210   40.8692   63.7100 H   0  0  0  0  0  0
   16.1378   41.4995   63.4494 H   0  0  0  0  0  0
   15.0708   42.8420   63.1622 H   0  0  0  0  0  0
   16.6388   42.3121   65.7553 H   0  0  0  0  0  0
   16.8846   43.5999   64.6302 H   0  0  0  0  0  0
   15.5727   44.3490   66.6439 H   0  0  0  0  0  0
   14.6860   44.5891   65.1401 H   0  0  0  0  0  0
   13.3055   43.6755   66.7973 H   0  0  0  0  0  0
   10.3262   36.8799   74.9993 H   0  0  0  0  0  0
   11.7815   35.0426   76.1013 H   0  0  0  0  0  0
   11.9823   32.9097   74.5694 H   0  0  0  0  0  0
  1  2  2  0  0  0
  1  6  1  0  0  0
  1 27  1  0  0  0
  2  3  1  0  0  0
  2 22  1  0  0  0
  3  4  2  0  0  0
  3 28  1  0  0  0
  4  5  1  0  0  0
  4 29  1  0  0  0
  5  7  1  0  0  0
  5  6  2  0  0  0
  6 30  1  0  0  0
  7  8  1  0  0  0
  7 31  1  0  0  0
  7 32  1  0  0  0
  8 13  1  0  0  0
  8  9  2  0  0  0
  9 10  1  0  0  0
  9 33  1  0  0  0
 10 11  2  0  0  0
 10 34  1  0  0  0
 11 14  1  0  0  0
 11 12  1  0  0  0
 12 13  2  0  0  0
 12 35  1  0  0  0
 13 36  1  0  0  0
 14 15  1  0  0  0
 15 16  1  0  0  0
 15 37  1  0  0  0
 15 38  1  0  0  0
 16 17  1  0  0  0
 16 21  1  0  0  0
 16 39  1  0  0  0
 17 18  1  0  0  0
 17 40  1  0  0  0
 17 41  1  0  0  0
 18 19  1  0  0  0
 18 42  1  0  0  0
 18 43  1  0  0  0
 19 20  1  0  0  0
 19 44  1  0  0  0
 19 45  1  0  0  0
 20 21  1  0  0  0
 20 46  1  0  0  0
 20 47  1  0  0  0
 21 48  1  0  0  0
 22 23  2  0  0  0
 22 26  1  0  0  0
 23 24  1  0  0  0
 23 49  1  0  0  0
 24 25  2  0  0  0
 24 50  1  0  0  0
 25 26  1  0  0  0
 25 51  1  0  0  0
M  END
> <s_m_entry_id>
6707

> <s_m_entry_name>
dock_pv.137

> <s_m_Source_Path>
/home/csk/Desktop/cluster/DUD-E-result/lkha4

> <s_m_Source_File>
dock_pv.maegz

> <i_m_Source_File_Index>
137

> <chembl_id>
CHEMBL1098506

> <chembl_pref_name>
None

> <i_lp_mmshare_version>
53161

> <i_f3d_flags>
0

> <r_lp_tautomer_probability>
1

> <s_lp_Force_Field>
OPLS_2005

> <r_lp_Energy>
28.683142

> <b_lp_Chiralities_Consistent>
1

> <s_lp_Variant>
CHEMBL4618_lig367-1

> <s_i_glide_gridfile>
glide-grid_3chp

> <i_i_glide_lignum>
413

> <i_i_glide_rotatable_bonds>
6

> <r_i_docking_score>
-9.79836553874844

> <r_i_glide_ligand_efficiency>
-0.376860213028786

> <r_i_glide_ligand_efficiency_sa>
-1.11644689822445

> <r_i_glide_ligand_efficiency_ln>
-2.30111399571538

> <r_i_glide_gscore>
-9.79836553874844

> <r_i_glide_lipo>
-5.86250845160316

> <r_i_glide_hbond>
0

> <r_i_glide_metal>
0

> <r_i_glide_rewards>
-1.74471459527354

> <r_i_glide_evdw>
-44.3950271606445

> <r_i_glide_ecoul>
-5.62543392181396

> <r_i_glide_erotb>
0.872423954432572

> <r_i_glide_esite>
0

> <r_i_glide_emodel>
-68.9778056217437

> <r_i_glide_energy>
-50.0204610824585

> <r_i_glide_einternal>
7.02137136459351

> <i_i_glide_confnum>
27

> <i_i_glide_posenum>
180

> <r_i_glide_eff_state_penalty>
0

> <s_user_duplicate_titles>
CHEMBL4618_lig367,627544

> <s_m_subgroup_title>
dock_pv

> <s_m_subgroupid>
dock_pv

> <b_m_subgroup_collapsed>
1

$$$$
CHEMBL4618_lig417
                    3D
 Schrodinger Suite 2021-1.
 46 49  0  0  1  0            999 V2000
   13.5258   43.2537   64.2983 C   0  0  0  0  0  0
   12.3273   43.7934   64.6358 N   0  0  0  0  0  0
   13.2001   41.2443   65.5881 C   0  0  0  0  0  0
   13.9924   42.0171   64.7371 C   0  0  0  0  0  0
   11.9463   41.7670   65.9402 C   0  0  0  0  0  0
   11.5705   43.0366   65.4303 C   0  0  0  0  0  0
    9.9389   43.4157   65.9296 S   0  0  0  0  0  0
    9.9130   41.8789   66.7318 C   0  0  0  0  0  0
   11.0045   41.1601   66.7058 N   0  0  0  0  0  0
    8.7087   41.5568   67.2936 O   0  0  0  0  0  0
    8.5173   40.3331   67.8741 C   0  0  0  0  0  0
    7.9586   40.3139   69.1399 C   0  0  0  0  0  0
    7.7211   39.0952   69.7662 C   0  0  0  0  0  0
    8.0528   37.9051   69.1580 C   0  0  0  0  0  0
    8.5210   37.9256   67.8477 C   0  0  0  0  0  0
    8.7653   39.1342   67.2034 C   0  0  0  0  0  0
    7.8613   36.6161   69.9407 C   0  0  0  0  0  0
    8.8384   36.3995   71.0258 N   0  0  1  0  0  0
    8.7781   37.3645   72.1276 C   0  0  0  0  0  0
    9.8974   37.1179   73.1403 C   0  0  0  0  0  0
    9.8347   35.6790   73.6760 C   0  0  0  0  0  0
    9.9149   34.6952   72.5125 C   0  0  0  0  0  0
    8.7819   35.0217   71.5402 C   0  0  0  0  0  0
   10.9208   35.4197   74.7225 C   0  0  0  0  0  0
   11.1777   36.4245   75.5476 N   0  0  0  0  0  0
   11.5168   34.3494   74.8079 O   0  0  0  0  0  0
   14.1149   43.8156   63.5953 H   0  0  0  0  0  0
   13.5133   40.2688   65.9389 H   0  0  0  0  0  0
   14.9432   41.6605   64.3771 H   0  0  0  0  0  0
    7.7130   41.2396   69.6381 H   0  0  0  0  0  0
    7.2678   39.0295   70.7400 H   0  0  0  0  0  0
    8.7685   37.0163   67.3342 H   0  0  0  0  0  0
    9.1621   39.1439   66.1992 H   0  0  0  0  0  0
    7.9160   35.8089   69.2161 H   0  0  0  0  0  0
    6.8521   36.6167   70.3397 H   0  0  0  0  0  0
    7.7898   37.3545   72.5940 H   0  0  0  0  0  0
    8.9484   38.3667   71.7531 H   0  0  0  0  0  0
    9.7061   37.8159   73.9354 H   0  0  0  0  0  0
   10.8273   37.3885   72.6431 H   0  0  0  0  0  0
    8.9043   35.5337   74.2272 H   0  0  0  0  0  0
   10.8433   34.7712   71.9447 H   0  0  0  0  0  0
    9.7375   33.6729   72.8455 H   0  0  0  0  0  0
    7.7901   34.8114   71.9402 H   0  0  0  0  0  0
    8.9210   34.3214   70.7394 H   0  0  0  0  0  0
   10.6242   37.2690   75.5160 H   0  0  0  0  0  0
   11.7599   36.2378   76.3518 H   0  0  0  0  0  0
  1  2  2  0  0  0
  1  4  1  0  0  0
  1 27  1  0  0  0
  2  6  1  0  0  0
  3  5  1  0  0  0
  3  4  2  0  0  0
  3 28  1  0  0  0
  4 29  1  0  0  0
  5  6  2  0  0  0
  5  9  1  0  0  0
  6  7  1  0  0  0
  7  8  1  0  0  0
  8  9  2  0  0  0
  8 10  1  0  0  0
 10 11  1  0  0  0
 11 12  2  0  0  0
 11 16  1  0  0  0
 12 13  1  0  0  0
 12 30  1  0  0  0
 13 14  2  0  0  0
 13 31  1  0  0  0
 14 15  1  0  0  0
 14 17  1  0  0  0
 15 16  2  0  0  0
 15 32  1  0  0  0
 16 33  1  0  0  0
 17 18  1  0  0  0
 17 34  1  0  0  0
 17 35  1  0  0  0
 18 19  1  0  0  0
 18 23  1  0  0  0
 19 20  1  0  0  0
 19 36  1  0  0  0
 19 37  1  0  0  0
 20 21  1  0  0  0
 20 38  1  0  0  0
 20 39  1  0  0  0
 21 22  1  0  0  0
 21 24  1  0  0  0
 21 40  1  0  0  0
 22 23  1  0  0  0
 22 41  1  0  0  0
 22 42  1  0  0  0
 23 43  1  0  0  0
 23 44  1  0  0  0
 24 25  1  0  0  0
 24 26  2  0  0  0
 25 45  1  0  0  0
 25 46  1  0  0  0
M  END
> <s_m_entry_id>
6708

> <s_m_entry_name>
dock_pv.138

> <s_m_Source_Path>
/home/csk/Desktop/cluster/DUD-E-result/lkha4

> <s_m_Source_File>
dock_pv.maegz

> <i_m_Source_File_Index>
138

> <chembl_id>
CHEMBL2207729

> <chembl_pref_name>
None

> <i_lp_mmshare_version>
53161

> <i_f3d_flags>
0

> <r_lp_tautomer_probability>
1

> <s_lp_Force_Field>
OPLS_2005

> <r_lp_Energy>
24.763608

> <b_lp_Chiralities_Consistent>
1

> <s_lp_Variant>
CHEMBL4618_lig417-1

> <s_i_glide_gridfile>
glide-grid_3chp

> <i_i_glide_lignum>
484

> <i_i_glide_rotatable_bonds>
5

> <r_i_docking_score>
-9.78900095967706

> <r_i_glide_ligand_efficiency>
-0.376500036910656

> <r_i_glide_ligand_efficiency_sa>
-1.11537987789171

> <r_i_glide_ligand_efficiency_ln>
-2.29891475504816

> <r_i_glide_gscore>
-9.78900095967706

> <r_i_glide_lipo>
-5.34930981051044

> <r_i_glide_hbond>
-0.309842317552349

> <r_i_glide_metal>
0

> <r_i_glide_rewards>
-1.79690659090909

> <r_i_glide_evdw>
-42.0905647277832

> <r_i_glide_ecoul>
-5.30792856216431

> <r_i_glide_erotb>
0.567775280008627

> <r_i_glide_esite>
0

> <r_i_glide_emodel>
-68.3850914963862

> <r_i_glide_energy>
-47.3984932899475

> <r_i_glide_einternal>
1.90050363540649

> <i_i_glide_confnum>
1

> <i_i_glide_posenum>
53

> <r_i_glide_eff_state_penalty>
0

> <s_user_duplicate_titles>
CHEMBL4618_lig417

> <s_m_subgroup_title>
dock_pv

> <s_m_subgroupid>
dock_pv

> <b_m_subgroup_collapsed>
1

$$$$
CHEMBL4618_lig338
                    3D
 Schrodinger Suite 2021-1.
 51 53  0  0  1  0            999 V2000
   10.5210   35.7180   74.1501 C   0  0  0  0  0  0
   10.8682   34.4741   73.6232 C   0  0  0  0  0  0
   10.2071   33.9553   72.5167 C   0  0  0  0  0  0
    9.1801   34.6866   71.9400 C   0  0  0  0  0  0
    8.8373   35.9366   72.4422 C   0  0  0  0  0  0
    9.5087   36.4568   73.5449 C   0  0  0  0  0  0
    7.7810   36.6160   71.9001 O   0  0  0  0  0  0
    8.0265   37.3994   70.8075 C   0  0  0  0  0  0
    7.9081   36.9124   69.5064 C   0  0  0  0  0  0
    8.1210   37.7664   68.4208 C   0  0  0  0  0  0
    8.4848   39.0907   68.6335 C   0  0  0  0  0  0
    8.5211   39.5751   69.9398 C   0  0  0  0  0  0
    8.3418   38.7261   71.0206 C   0  0  0  0  0  0
    8.8045   39.8695   67.5410 O   0  0  0  0  0  0
    9.9030   40.7748   67.7015 C   0  0  0  0  0  0
   10.0714   41.6534   66.4592 C   0  0  1  0  0  0
    8.8712   42.5947   66.3313 C   0  0  0  0  0  0
    9.4287   43.8163   65.6475 C   0  0  0  0  0  0
   10.8756   43.4811   65.3602 C   0  0  0  0  0  0
   11.2591   42.5111   66.3785 N   0  0  2  0  0  0
   12.1210   33.5468   74.3400 Cl  0  0  0  0  0  0
   12.4740   41.7824   66.0013 C   0  0  0  0  0  0
   13.7004   42.7101   65.7892 C   0  0  0  0  0  0
   14.4292   42.4665   64.4406 C   0  0  0  0  0  0
   15.8119   41.8270   64.5759 C   0  0  0  0  0  0
   16.1210   41.0160   63.5400 O   0  0  0  0  0  0
   16.5525   41.9672   65.5400 O   0  0  0  0  0  0
   11.0298   36.1052   75.0208 H   0  0  0  0  0  0
   10.4637   32.9774   72.1350 H   0  0  0  0  0  0
    8.6033   34.2626   71.1400 H   0  0  0  0  0  0
    9.2197   37.4160   73.9400 H   0  0  0  0  0  0
    7.6837   35.8698   69.3453 H   0  0  0  0  0  0
    8.0644   37.4153   67.4052 H   0  0  0  0  0  0
    8.6943   40.6160   70.1258 H   0  0  0  0  0  0
    8.3861   39.1130   72.0265 H   0  0  0  0  0  0
   10.8147   40.2162   67.9124 H   0  0  0  0  0  0
    9.7210   41.4580   68.5292 H   0  0  0  0  0  0
   10.0659   40.9592   65.6205 H   0  0  0  0  0  0
    8.3923   42.8429   67.2812 H   0  0  0  0  0  0
    8.1210   42.1843   65.6805 H   0  0  0  0  0  0
    9.3210   44.6296   66.3400 H   0  0  0  0  0  0
    8.9210   44.1106   64.7400 H   0  0  0  0  0  0
   11.4940   44.3728   65.4404 H   0  0  0  0  0  0
   11.0237   43.1092   64.3446 H   0  0  0  0  0  0
   12.2833   41.1584   65.1335 H   0  0  0  0  0  0
   12.7115   41.0690   66.7829 H   0  0  0  0  0  0
   14.3579   42.6161   66.6517 H   0  0  0  0  0  0
   13.4375   43.7649   65.8528 H   0  0  0  0  0  0
   14.5582   43.4160   63.9306 H   0  0  0  0  0  0
   13.8134   41.8733   63.7625 H   0  0  0  0  0  0
   15.5172   41.0935   62.7722 H   0  0  0  0  0  0
  1  2  2  0  0  0
  1  6  1  0  0  0
  1 28  1  0  0  0
  2 21  1  0  0  0
  2  3  1  0  0  0
  3  4  2  0  0  0
  3 29  1  0  0  0
  4  5  1  0  0  0
  4 30  1  0  0  0
  5  7  1  0  0  0
  5  6  2  0  0  0
  6 31  1  0  0  0
  7  8  1  0  0  0
  8 13  1  0  0  0
  8  9  2  0  0  0
  9 10  1  0  0  0
  9 32  1  0  0  0
 10 11  2  0  0  0
 10 33  1  0  0  0
 11 14  1  0  0  0
 11 12  1  0  0  0
 12 13  2  0  0  0
 12 34  1  0  0  0
 13 35  1  0  0  0
 14 15  1  0  0  0
 15 16  1  0  0  0
 15 36  1  0  0  0
 15 37  1  0  0  0
 16 17  1  0  0  0
 16 20  1  0  0  0
 16 38  1  0  0  0
 17 18  1  0  0  0
 17 39  1  0  0  0
 17 40  1  0  0  0
 18 19  1  0  0  0
 18 41  1  0  0  0
 18 42  1  0  0  0
 19 20  1  0  0  0
 19 43  1  0  0  0
 19 44  1  0  0  0
 20 22  1  0  0  0
 22 23  1  0  0  0
 22 45  1  0  0  0
 22 46  1  0  0  0
 23 24  1  0  0  0
 23 47  1  0  0  0
 23 48  1  0  0  0
 24 25  1  0  0  0
 24 49  1  0  0  0
 24 50  1  0  0  0
 25 26  1  0  0  0
 25 27  2  0  0  0
 26 51  1  0  0  0
M  END
> <s_m_entry_id>
6709

> <s_m_entry_name>
dock_pv.139

> <s_m_Source_Path>
/home/csk/Desktop/cluster/DUD-E-result/lkha4

> <s_m_Source_File>
dock_pv.maegz

> <i_m_Source_File_Index>
139

> <chembl_id>
CHEMBL563693

> <chembl_pref_name>
None

> <i_lp_mmshare_version>
53161

> <i_f3d_flags>
0

> <r_lp_tautomer_probability>
1

> <s_lp_Force_Field>
OPLS_2005

> <r_lp_Energy>
43.80637

> <b_lp_Chiralities_Consistent>
1

> <s_lp_Variant>
CHEMBL4618_lig338-1

> <s_i_glide_gridfile>
glide-grid_3chp

> <i_i_glide_lignum>
382

> <i_i_glide_rotatable_bonds>
10

> <r_i_docking_score>
-9.76744966489883

> <r_i_glide_ligand_efficiency>
-0.361757394996253

> <r_i_glide_ligand_efficiency_sa>
-1.08527218379647

> <r_i_glide_ligand_efficiency_ln>
-2.27370125299562

> <r_i_glide_gscore>
-9.76744966489883

> <r_i_glide_lipo>
-5.26475558540269

> <r_i_glide_hbond>
-0.304

> <r_i_glide_metal>
0

> <r_i_glide_rewards>
-0.99005717541608

> <r_i_glide_evdw>
-41.2457313537598

> <r_i_glide_ecoul>
-14.6725034713745

> <r_i_glide_erotb>
1.1545251843141

> <r_i_glide_esite>
-0.1

> <r_i_glide_emodel>
-77.2224875044781

> <r_i_glide_energy>
-55.9182348251343

> <r_i_glide_einternal>
18.3386211395264

> <i_i_glide_confnum>
179

> <i_i_glide_posenum>
340

> <r_i_glide_eff_state_penalty>
0

> <s_user_duplicate_titles>
CHEMBL4618_lig338,559737

> <s_m_subgroup_title>
dock_pv

> <s_m_subgroupid>
dock_pv

> <b_m_subgroup_collapsed>
1

$$$$
CHEMBL4618_lig489
                    3D
 Schrodinger Suite 2021-1.
 55 58  0  0  1  0            999 V2000
   11.5717   34.3970   75.1397 C   0  0  0  0  0  0
   11.2099   33.7854   73.9466 C   0  0  0  0  0  0
    9.6932   34.1082   71.9688 N   0  0  0  0  0  0
   10.3461   34.4949   73.1129 C   0  0  0  0  0  0
    9.9268   35.8246   73.4063 C   0  0  0  0  0  0
    8.9210   35.1680   71.5400 C   0  0  0  0  0  0
    9.0346   36.2566   72.3747 C   0  0  0  0  0  0
    8.6279   38.3462   71.0929 N   0  0  1  0  0  0
    8.3306   37.5933   72.3061 C   0  0  0  0  0  0
   11.2017   35.6972   75.4401 C   0  0  0  0  0  0
   10.4059   36.4221   74.5725 C   0  0  0  0  0  0
    7.7701   39.1949   68.9038 C   0  0  0  0  0  0
    8.0230   40.7128   69.1360 C   0  0  0  0  0  0
    8.5428   41.5475   67.9248 C   0  0  0  0  0  0
    9.5913   40.8637   67.1537 N   0  0  0  0  0  0
    8.8033   38.6157   67.9351 C   0  0  0  0  0  0
    9.0726   39.5398   66.7401 C   0  0  0  0  0  0
    7.5170   38.3058   70.1508 C   0  0  0  0  0  0
   10.7337   41.4585   66.5948 C   0  0  0  0  0  0
   11.0486   42.7669   66.8072 N   0  0  0  0  0  0
   11.5561   40.6160   65.9400 N   0  0  0  0  0  0
   12.7683   41.0284   65.5400 C   0  0  0  0  0  0
   13.1890   42.3413   65.7004 C   0  0  0  0  0  0
   12.2680   43.1859   66.3397 C   0  0  0  0  0  0
   14.5835   42.7538   65.3029 C   0  0  0  0  0  0
   15.1867   43.6185   65.9400 O   0  0  0  0  0  0
   15.1243   42.0408   64.2916 N   0  0  0  0  0  0
    9.7658   32.7742   71.3821 C   0  0  0  0  0  0
   16.5211   42.0056   64.1507 O   0  0  0  0  0  0
   12.1210   33.8320   75.8693 H   0  0  0  0  0  0
   11.4974   32.7672   73.7404 H   0  0  0  0  0  0
    8.3147   35.0651   70.6600 H   0  0  0  0  0  0
    8.7938   39.3126   71.3337 H   0  0  0  0  0  0
    8.6456   38.2160   73.1400 H   0  0  0  0  0  0
    7.2585   37.4403   72.4383 H   0  0  0  0  0  0
   11.5513   36.1706   76.3400 H   0  0  0  0  0  0
   10.1210   37.4160   74.8286 H   0  0  0  0  0  0
    6.8463   39.1663   68.3400 H   0  0  0  0  0  0
    8.7803   40.8086   69.9077 H   0  0  0  0  0  0
    7.1358   41.1925   69.5400 H   0  0  0  0  0  0
    8.9503   42.4787   68.3211 H   0  0  0  0  0  0
    7.7233   41.8319   67.2624 H   0  0  0  0  0  0
    8.4983   37.6255   67.5942 H   0  0  0  0  0  0
    9.7210   38.4550   68.4852 H   0  0  0  0  0  0
    8.1210   39.6976   66.2381 H   0  0  0  0  0  0
    9.7076   39.0238   66.0199 H   0  0  0  0  0  0
    6.6056   38.6160   70.6632 H   0  0  0  0  0  0
    7.3867   37.2696   69.8334 H   0  0  0  0  0  0
   13.3754   40.2588   65.0865 H   0  0  0  0  0  0
   12.5148   44.2160   66.5082 H   0  0  0  0  0  0
   14.6479   41.4077   63.6588 H   0  0  0  0  0  0
   10.7064   32.6513   70.8460 H   0  0  0  0  0  0
    9.7210   32.0207   72.1694 H   0  0  0  0  0  0
    8.9210   32.6160   70.7157 H   0  0  0  0  0  0
   16.7005   42.6160   63.4184 H   0  0  0  0  0  0
  1  2  2  0  0  0
  1 10  1  0  0  0
  1 30  1  0  0  0
  2  4  1  0  0  0
  2 31  1  0  0  0
  3  4  1  0  0  0
  3  6  1  0  0  0
  3 28  1  0  0  0
  4  5  2  0  0  0
  5  7  1  0  0  0
  5 11  1  0  0  0
  6  7  2  0  0  0
  6 32  1  0  0  0
  7  9  1  0  0  0
  8  9  1  0  0  0
  8 18  1  0  0  0
  8 33  1  0  0  0
  9 34  1  0  0  0
  9 35  1  0  0  0
 10 11  2  0  0  0
 10 36  1  0  0  0
 11 37  1  0  0  0
 12 13  1  0  0  0
 12 18  1  0  0  0
 12 16  1  0  0  0
 12 38  1  0  0  0
 13 14  1  0  0  0
 13 39  1  0  0  0
 13 40  1  0  0  0
 14 15  1  0  0  0
 14 41  1  0  0  0
 14 42  1  0  0  0
 15 19  1  0  0  0
 15 17  1  0  0  0
 16 17  1  0  0  0
 16 43  1  0  0  0
 16 44  1  0  0  0
 17 45  1  0  0  0
 17 46  1  0  0  0
 18 47  1  0  0  0
 18 48  1  0  0  0
 19 20  1  0  0  0
 19 21  2  0  0  0
 20 24  2  0  0  0
 21 22  1  0  0  0
 22 23  2  0  0  0
 22 49  1  0  0  0
 23 25  1  0  0  0
 23 24  1  0  0  0
 24 50  1  0  0  0
 25 26  2  0  0  0
 25 27  1  0  0  0
 27 29  1  0  0  0
 27 51  1  0  0  0
 28 52  1  0  0  0
 28 53  1  0  0  0
 28 54  1  0  0  0
 29 55  1  0  0  0
M  END
> <s_m_entry_id>
6710

> <s_m_entry_name>
dock_pv.140

> <s_m_Source_Path>
/home/csk/Desktop/cluster/DUD-E-result/lkha4

> <s_m_Source_File>
dock_pv.maegz

> <i_m_Source_File_Index>
140

> <chembl_id>
CHEMBL2105763

> <chembl_pref_name>
QUISINOSTAT

> <i_lp_mmshare_version>
53161

> <i_f3d_flags>
0

> <r_lp_tautomer_probability>
1

> <s_lp_Force_Field>
OPLS_2005

> <r_lp_Energy>
28.339978

> <b_lp_Chiralities_Consistent>
1

> <s_lp_Variant>
CHEMBL4618_lig489-1

> <s_i_glide_gridfile>
glide-grid_3chp

> <i_i_glide_lignum>
589

> <i_i_glide_rotatable_bonds>
8

> <r_i_docking_score>
-9.76556209297256

> <r_i_glide_ligand_efficiency>
-0.33674352044733

> <r_i_glide_ligand_efficiency_sa>
-1.03458278264977

> <r_i_glide_ligand_efficiency_ln>
-2.23606608600242

> <r_i_glide_gscore>
-9.76556209297256

> <r_i_glide_lipo>
-5.08277610121101

> <r_i_glide_hbond>
-0.0164823153915619

> <r_i_glide_metal>
0

> <r_i_glide_rewards>
-1.58338392918631

> <r_i_glide_evdw>
-43.264575958252

> <r_i_glide_ecoul>
-10.9951343536377

> <r_i_glide_erotb>
0.879245024804015

> <r_i_glide_esite>
-0.149665821029446

> <r_i_glide_emodel>
-71.2391057979261

> <r_i_glide_energy>
-54.2597103118896

> <r_i_glide_einternal>
9.27454566955566

> <i_i_glide_confnum>
11

> <i_i_glide_posenum>
180

> <r_i_glide_eff_state_penalty>
0

> <s_user_duplicate_titles>
CHEMBL4618_lig489

> <s_m_subgroup_title>
dock_pv

> <s_m_subgroupid>
dock_pv

> <b_m_subgroup_collapsed>
1

$$$$
CHEMBL4618_lig184
                    3D
 Schrodinger Suite 2021-1.
 41 42  0  0  1  0            999 V2000
    9.0005   37.8159   72.3322 C   0  0  0  0  0  0
    8.9878   36.4354   72.4686 C   0  0  0  0  0  0
    8.5382   35.6480   71.4208 C   0  0  0  0  0  0
    8.1207   36.2554   70.2391 C   0  0  0  0  0  0
    8.1024   37.6404   70.1080 C   0  0  0  0  0  0
    8.5520   38.4284   71.1648 C   0  0  0  0  0  0
    7.5344   38.2333   68.8240 C   0  0  0  0  0  0
    7.4880   39.6714   68.8423 O   0  0  0  0  0  0
    8.4159   40.4106   68.1328 C   0  0  0  0  0  0
    9.4760   39.8313   67.4380 C   0  0  0  0  0  0
   10.3699   40.6160   66.7399 C   0  0  0  0  0  0
   10.2664   42.0060   66.7398 C   0  0  0  0  0  0
    9.1748   42.5987   67.3834 C   0  0  0  0  0  0
    8.2624   41.8015   68.0857 C   0  0  0  0  0  0
   11.2214   42.8044   66.0744 N   0  0  0  0  0  0
   12.5215   42.4680   65.8410 C   0  0  0  0  0  0
   13.4055   43.3179   64.8807 C   0  0  2  0  0  0
   13.0611   41.4847   66.3399 O   0  0  0  0  0  0
   12.5613   44.2161   64.0817 N   0  0  0  0  0  0
   14.2417   42.4489   63.8972 C   0  0  0  0  0  0
   15.5873   41.9252   64.4027 C   0  0  0  0  0  0
   16.1210   41.0161   63.5400 O   0  0  0  0  0  0
   16.1210   42.2163   65.4718 O   0  0  0  0  0  0
    9.3431   38.4264   73.1399 H   0  0  0  0  0  0
    9.3221   35.9776   73.3881 H   0  0  0  0  0  0
    8.5165   34.5723   71.5183 H   0  0  0  0  0  0
    7.7647   35.6624   69.4139 H   0  0  0  0  0  0
    8.5372   39.5067   71.0979 H   0  0  0  0  0  0
    6.5210   37.8637   68.7432 H   0  0  0  0  0  0
    8.0007   37.7868   67.9485 H   0  0  0  0  0  0
    9.6653   38.7722   67.4232 H   0  0  0  0  0  0
   11.1446   40.1099   66.1865 H   0  0  0  0  0  0
    9.0281   43.6673   67.3523 H   0  0  0  0  0  0
    7.4272   42.2646   68.5937 H   0  0  0  0  0  0
   10.8932   43.6941   65.7403 H   0  0  0  0  0  0
   14.0674   43.9203   65.5065 H   0  0  0  0  0  0
   12.0328   43.7172   63.3795 H   0  0  0  0  0  0
   11.9604   44.8037   64.6430 H   0  0  0  0  0  0
   14.4819   43.0163   63.0011 H   0  0  0  0  0  0
   13.6544   41.6008   63.5430 H   0  0  0  0  0  0
   15.6437   41.0159   62.6748 H   0  0  0  0  0  0
  1  6  1  0  0  0
  1  2  2  0  0  0
  1 24  1  0  0  0
  2  3  1  0  0  0
  2 25  1  0  0  0
  3  4  2  0  0  0
  3 26  1  0  0  0
  4  5  1  0  0  0
  4 27  1  0  0  0
  5  6  2  0  0  0
  5  7  1  0  0  0
  6 28  1  0  0  0
  7  8  1  0  0  0
  7 29  1  0  0  0
  7 30  1  0  0  0
  8  9  1  0  0  0
  9 14  1  0  0  0
  9 10  2  0  0  0
 10 11  1  0  0  0
 10 31  1  0  0  0
 11 12  2  0  0  0
 11 32  1  0  0  0
 12 13  1  0  0  0
 12 15  1  0  0  0
 13 14  2  0  0  0
 13 33  1  0  0  0
 14 34  1  0  0  0
 15 16  1  0  0  0
 15 35  1  0  0  0
 16 17  1  0  0  0
 16 18  2  0  0  0
 17 19  1  0  0  0
 17 20  1  0  0  0
 17 36  1  0  0  0
 19 37  1  0  0  0
 19 38  1  0  0  0
 20 21  1  0  0  0
 20 39  1  0  0  0
 20 40  1  0  0  0
 21 22  1  0  0  0
 21 23  2  0  0  0
 22 41  1  0  0  0
M  END
> <s_m_entry_id>
6711

> <s_m_entry_name>
dock_pv.141

> <s_m_Source_Path>
/home/csk/Desktop/cluster/DUD-E-result/lkha4

> <s_m_Source_File>
dock_pv.maegz

> <i_m_Source_File_Index>
141

> <chembl_id>
CHEMBL478360

> <chembl_pref_name>
None

> <i_lp_mmshare_version>
53161

> <i_f3d_flags>
0

> <r_lp_tautomer_probability>
1

> <s_lp_Force_Field>
OPLS_2005

> <r_lp_Energy>
19.177165

> <b_lp_Chiralities_Consistent>
1

> <s_lp_Variant>
CHEMBL4618_lig184-1

> <s_i_glide_gridfile>
glide-grid_3chp

> <i_i_glide_lignum>
211

> <i_i_glide_rotatable_bonds>
9

> <r_i_docking_score>
-9.76237631240419

> <r_i_glide_ligand_efficiency>
-0.424451144017573

> <r_i_glide_ligand_efficiency_sa>
-1.2070825917702

> <r_i_glide_ligand_efficiency_ln>
-2.36063111267363

> <r_i_glide_gscore>
-9.76237631240419

> <r_i_glide_lipo>
-4.27147044388695

> <r_i_glide_hbond>
-0.46476710774311

> <r_i_glide_metal>
0

> <r_i_glide_rewards>
-1.82922681761331

> <r_i_glide_evdw>
-37.881721496582

> <r_i_glide_ecoul>
-18.0515537261963

> <r_i_glide_erotb>
1.50490719059773

> <r_i_glide_esite>
-0.1

> <r_i_glide_emodel>
-89.7899438397537

> <r_i_glide_energy>
-55.9332752227783

> <r_i_glide_einternal>
10.3335094451904

> <i_i_glide_confnum>
33

> <i_i_glide_posenum>
147

> <r_i_glide_eff_state_penalty>
0

> <s_user_duplicate_titles>
CHEMBL4618_lig184

> <s_m_subgroup_title>
dock_pv

> <s_m_subgroupid>
dock_pv

> <b_m_subgroup_collapsed>
1

$$$$
CHEMBL4618_lig346
                    3D
 Schrodinger Suite 2021-1.
 41 43  0  0  1  0            999 V2000
   10.2493   37.0128   73.5399 C   0  0  0  0  0  0
   10.5206   35.6571   73.7087 C   0  0  0  0  0  0
    9.9197   34.7153   72.8805 C   0  0  0  0  0  0
    9.0157   35.1323   71.9064 C   0  0  0  0  0  0
    8.7403   36.4905   71.7161 C   0  0  0  0  0  0
    9.3596   37.4217   72.5508 C   0  0  0  0  0  0
    7.7056   36.9309   70.6713 C   0  0  0  0  0  0
    8.1088   37.9745   69.6271 C   0  0  0  0  0  0
    8.2052   37.6532   68.2730 C   0  0  0  0  0  0
    8.5207   38.6357   67.3301 C   0  0  0  0  0  0
    8.6970   39.9649   67.7192 C   0  0  0  0  0  0
    8.5203   40.2921   69.0691 C   0  0  0  0  0  0
    8.2566   39.3022   70.0027 C   0  0  0  0  0  0
    9.0319   40.8906   66.7442 O   0  0  0  0  0  0
    9.3178   42.2324   67.1580 C   0  0  0  0  0  0
    9.9615   43.0477   66.0256 C   0  0  0  0  0  0
   11.4063   42.6951   65.6655 C   0  0  0  0  0  0
   11.9710   41.4451   65.9519 C   0  0  0  0  0  0
   13.2780   41.1802   65.5444 C   0  0  0  0  0  0
   14.0477   42.0831   64.8905 N   0  0  0  0  0  0
   13.4940   43.2908   64.6201 C   0  0  0  0  0  0
   12.1913   43.6330   64.9852 C   0  0  0  0  0  0
   10.7236   37.7407   74.1803 H   0  0  0  0  0  0
   11.2048   35.3357   74.4817 H   0  0  0  0  0  0
   10.1273   33.6625   73.0121 H   0  0  0  0  0  0
    8.5244   34.3906   71.2939 H   0  0  0  0  0  0
    9.1369   38.4706   72.4672 H   0  0  0  0  0  0
    6.8569   37.3446   71.2177 H   0  0  0  0  0  0
    7.3224   36.0533   70.1519 H   0  0  0  0  0  0
    8.0664   36.6336   67.9469 H   0  0  0  0  0  0
    8.6344   38.3661   66.2905 H   0  0  0  0  0  0
    8.5874   41.3077   69.4241 H   0  0  0  0  0  0
    8.1215   39.5870   71.0312 H   0  0  0  0  0  0
    9.9841   42.2654   68.0223 H   0  0  0  0  0  0
    8.3773   42.7034   67.4505 H   0  0  0  0  0  0
    9.9359   44.0952   66.3238 H   0  0  0  0  0  0
    9.3372   42.9700   65.1400 H   0  0  0  0  0  0
   11.4129   40.6720   66.4547 H   0  0  0  0  0  0
   13.7206   40.2175   65.7523 H   0  0  0  0  0  0
   14.1191   43.9888   64.0880 H   0  0  0  0  0  0
   11.8051   44.6111   64.7438 H   0  0  0  0  0  0
  1  6  1  0  0  0
  1  2  2  0  0  0
  1 23  1  0  0  0
  2  3  1  0  0  0
  2 24  1  0  0  0
  3  4  2  0  0  0
  3 25  1  0  0  0
  4  5  1  0  0  0
  4 26  1  0  0  0
  5  6  2  0  0  0
  5  7  1  0  0  0
  6 27  1  0  0  0
  7  8  1  0  0  0
  7 28  1  0  0  0
  7 29  1  0  0  0
  8 13  1  0  0  0
  8  9  2  0  0  0
  9 10  1  0  0  0
  9 30  1  0  0  0
 10 11  2  0  0  0
 10 31  1  0  0  0
 11 12  1  0  0  0
 11 14  1  0  0  0
 12 13  2  0  0  0
 12 32  1  0  0  0
 13 33  1  0  0  0
 14 15  1  0  0  0
 15 16  1  0  0  0
 15 34  1  0  0  0
 15 35  1  0  0  0
 16 17  1  0  0  0
 16 36  1  0  0  0
 16 37  1  0  0  0
 17 18  2  0  0  0
 17 22  1  0  0  0
 18 19  1  0  0  0
 18 38  1  0  0  0
 19 20  2  0  0  0
 19 39  1  0  0  0
 20 21  1  0  0  0
 21 22  2  0  0  0
 21 40  1  0  0  0
 22 41  1  0  0  0
M  END
> <s_m_entry_id>
6712

> <s_m_entry_name>
dock_pv.142

> <s_m_Source_Path>
/home/csk/Desktop/cluster/DUD-E-result/lkha4

> <s_m_Source_File>
dock_pv.maegz

> <i_m_Source_File_Index>
142

> <chembl_id>
CHEMBL578131

> <chembl_pref_name>
None

> <i_lp_mmshare_version>
53161

> <i_f3d_flags>
0

> <r_lp_tautomer_probability>
1

> <s_lp_Force_Field>
OPLS_2005

> <r_lp_Energy>
15.044024

> <b_lp_Chiralities_Consistent>
1

> <s_lp_Variant>
CHEMBL4618_lig346-1

> <s_i_glide_gridfile>
glide-grid_3chp

> <i_i_glide_lignum>
390

> <i_i_glide_rotatable_bonds>
6

> <r_i_docking_score>
-9.75555068876005

> <r_i_glide_ligand_efficiency>
-0.443434122216366

> <r_i_glide_ligand_efficiency_sa>
-1.24251984972468

> <r_i_glide_ligand_efficiency_ln>
-2.38461243069032

> <r_i_glide_gscore>
-9.75555068876005

> <r_i_glide_lipo>
-5.91410575253911

> <r_i_glide_hbond>
0

> <r_i_glide_metal>
0

> <r_i_glide_rewards>
-2.33597877296065

> <r_i_glide_evdw>
-41.1716232299805

> <r_i_glide_ecoul>
-3.56070256233215

> <r_i_glide_erotb>
1.08722038258855

> <r_i_glide_esite>
0

> <r_i_glide_emodel>
-67.2480460981967

> <r_i_glide_energy>
-44.7323257923126

> <r_i_glide_einternal>
5.75440788269043

> <i_i_glide_confnum>
19

> <i_i_glide_posenum>
351

> <r_i_glide_eff_state_penalty>
0

> <s_user_duplicate_titles>
CHEMBL4618_lig346,583376

> <s_m_subgroup_title>
dock_pv

> <s_m_subgroupid>
dock_pv

> <b_m_subgroup_collapsed>
1

$$$$
CHEMBL4618_lig15
                    3D
 Schrodinger Suite 2021-1.
 53 55  0  0  1  0            999 V2000
   11.9688   42.6029   65.5397 N   0  0  1  0  0  0
   16.8971   42.6220   65.4130 C   0  0  0  0  0  0
   16.9210   41.4162   65.1343 O   0  0  0  0  0  0
   13.0524   43.5675   65.6731 C   0  0  0  0  0  0
   14.2944   42.9425   65.0049 C   0  0  1  0  0  0
   15.5932   43.3576   65.7512 C   0  0  0  0  0  0
   12.6361   41.3163   65.6970 C   0  0  0  0  0  0
    8.0779   37.9458   69.1653 C   0  0  0  0  0  0
    7.9052   36.6558   69.9608 C   0  0  0  0  0  0
    8.5945   40.3877   67.8818 C   0  0  0  0  0  0
   17.9660   43.4327   65.5474 O   0  0  0  0  0  0
   13.9543   41.4416   64.9685 C   0  0  0  0  0  0
    7.7436   39.1414   69.7589 C   0  0  0  0  0  0
    8.5232   37.9621   67.8497 C   0  0  0  0  0  0
    8.7951   39.1702   67.2053 C   0  0  0  0  0  0
    8.0116   40.3561   69.1398 C   0  0  0  0  0  0
    8.7499   36.4485   71.2353 C   0  0  0  0  0  0
   10.8723   42.8036   66.4948 C   0  0  0  0  0  0
    8.9398   41.6507   67.4345 O   0  0  0  0  0  0
    9.7088   41.8241   66.2525 C   0  0  0  0  0  0
   19.2860   42.9408   65.3662 C   0  0  0  0  0  0
    9.3560   37.4987   71.9419 C   0  0  0  0  0  0
    8.9427   35.1428   71.6927 C   0  0  0  0  0  0
   10.1022   37.2428   73.0905 C   0  0  0  0  0  0
    9.7210   34.8825   72.8192 C   0  0  0  0  0  0
   10.2637   35.9374   73.5403 C   0  0  0  0  0  0
   13.2248   43.7986   66.7274 H   0  0  0  0  0  0
   12.7622   44.5098   65.2044 H   0  0  0  0  0  0
   14.3553   43.3009   63.9748 H   0  0  0  0  0  0
   15.4455   43.2476   66.8235 H   0  0  0  0  0  0
   15.7573   44.4221   65.5827 H   0  0  0  0  0  0
   12.0472   40.5129   65.2561 H   0  0  0  0  0  0
   12.7678   41.0356   66.7400 H   0  0  0  0  0  0
    6.8626   36.6160   70.2589 H   0  0  0  0  0  0
    8.0575   35.8161   69.2870 H   0  0  0  0  0  0
   13.8690   41.0781   63.9416 H   0  0  0  0  0  0
   14.6589   40.7956   65.4763 H   0  0  0  0  0  0
    7.3210   39.0871   70.7408 H   0  0  0  0  0  0
    8.7484   37.0345   67.3509 H   0  0  0  0  0  0
    9.1895   39.1109   66.2040 H   0  0  0  0  0  0
    7.7928   41.2819   69.6507 H   0  0  0  0  0  0
   11.2368   42.7165   67.5200 H   0  0  0  0  0  0
   10.4906   43.8160   66.3842 H   0  0  0  0  0  0
    9.0483   42.2304   65.4904 H   0  0  0  0  0  0
   10.0951   40.8891   65.8734 H   0  0  0  0  0  0
   20.0074   43.7286   65.5843 H   0  0  0  0  0  0
   19.4516   42.6159   64.3401 H   0  0  0  0  0  0
   19.4917   42.1008   66.0303 H   0  0  0  0  0  0
    9.2722   38.5239   71.6257 H   0  0  0  0  0  0
    8.5210   34.3125   71.1494 H   0  0  0  0  0  0
   10.5545   38.0594   73.6328 H   0  0  0  0  0  0
    9.8701   33.8660   73.1533 H   0  0  0  0  0  0
   10.8419   35.7398   74.4317 H   0  0  0  0  0  0
  1  4  1  0  0  0
  1  7  1  0  0  0
  1 18  1  0  0  0
  2  6  1  0  0  0
  2  3  2  0  0  0
  2 11  1  0  0  0
  4  5  1  0  0  0
  4 27  1  0  0  0
  4 28  1  0  0  0
  5  6  1  0  0  0
  5 12  1  0  0  0
  5 29  1  0  0  0
  6 30  1  0  0  0
  6 31  1  0  0  0
  7 12  1  0  0  0
  7 32  1  0  0  0
  7 33  1  0  0  0
  8 13  2  0  0  0
  8  9  1  0  0  0
  8 14  1  0  0  0
  9 17  1  0  0  0
  9 34  1  0  0  0
  9 35  1  0  0  0
 10 19  1  0  0  0
 10 15  1  0  0  0
 10 16  2  0  0  0
 11 21  1  0  0  0
 12 36  1  0  0  0
 12 37  1  0  0  0
 13 16  1  0  0  0
 13 38  1  0  0  0
 14 15  2  0  0  0
 14 39  1  0  0  0
 15 40  1  0  0  0
 16 41  1  0  0  0
 17 22  2  0  0  0
 17 23  1  0  0  0
 18 20  1  0  0  0
 18 42  1  0  0  0
 18 43  1  0  0  0
 19 20  1  0  0  0
 20 44  1  0  0  0
 20 45  1  0  0  0
 21 46  1  0  0  0
 21 47  1  0  0  0
 21 48  1  0  0  0
 22 24  1  0  0  0
 22 49  1  0  0  0
 23 25  2  0  0  0
 23 50  1  0  0  0
 24 26  2  0  0  0
 24 51  1  0  0  0
 25 26  1  0  0  0
 25 52  1  0  0  0
 26 53  1  0  0  0
M  END
> <s_m_entry_id>
6713

> <s_m_entry_name>
dock_pv.143

> <s_m_Source_Path>
/home/csk/Desktop/cluster/DUD-E-result/lkha4

> <s_m_Source_File>
dock_pv.maegz

> <i_m_Source_File_Index>
143

> <chembl_id>
CHEMBL115170

> <chembl_pref_name>
None

> <i_lp_mmshare_version>
53161

> <i_f3d_flags>
0

> <r_lp_tautomer_probability>
1

> <s_lp_Force_Field>
OPLS_2005

> <r_lp_Energy>
36.426141

> <b_lp_Chiralities_Consistent>
1

> <s_lp_Variant>
CHEMBL4618_lig15-2

> <s_i_glide_gridfile>
glide-grid_3chp

> <i_i_glide_lignum>
16

> <i_i_glide_rotatable_bonds>
9

> <r_i_docking_score>
-9.74773098367061

> <r_i_glide_ligand_efficiency>
-0.374912730141177

> <r_i_glide_ligand_efficiency_sa>
-1.11067748783288

> <r_i_glide_ligand_efficiency_ln>
-2.28922263660088

> <r_i_glide_gscore>
-9.74773098367061

> <r_i_glide_lipo>
-5.17737793239372

> <r_i_glide_hbond>
-0.32

> <r_i_glide_metal>
0

> <r_i_glide_rewards>
-1.8982646600974

> <r_i_glide_evdw>
-43.3641052246094

> <r_i_glide_ecoul>
-8.71184062957764

> <r_i_glide_erotb>
1.22289296448763

> <r_i_glide_esite>
-0.1

> <r_i_glide_emodel>
-80.1164782857597

> <r_i_glide_energy>
-52.075945854187

> <r_i_glide_einternal>
8.73558807373047

> <i_i_glide_confnum>
20

> <i_i_glide_posenum>
166

> <r_i_glide_eff_state_penalty>
0

> <s_user_duplicate_titles>
CHEMBL4618_lig15

> <s_m_subgroup_title>
dock_pv

> <s_m_subgroupid>
dock_pv

> <b_m_subgroup_collapsed>
1

$$$$
CHEMBL4618_lig480
                    3D
 Schrodinger Suite 2021-1.
 62 66  0  0  1  0            999 V2000
   11.8049   33.6425   74.6329 C   0  0  0  0  0  0
   10.9211   34.1610   73.5993 N   0  0  0  0  0  0
   10.9093   33.3391   72.3839 C   0  0  0  0  0  0
   10.2208   35.3055   73.7975 C   0  0  0  0  0  0
   10.1213   35.8171   74.9158 O   0  0  0  0  0  0
    9.6671   36.0701   72.5785 C   0  0  0  0  0  0
    8.5197   35.3833   71.8027 C   0  0  0  0  0  0
    8.1865   36.2280   70.5670 C   0  0  0  0  0  0
    7.8587   37.5805   70.9949 N   0  0  2  0  0  0
    7.0535   38.3422   70.0707 C   0  0  0  0  0  0
    7.7926   39.1097   68.9847 C   0  0  0  0  0  0
    8.5215   38.4152   68.0312 C   0  0  0  0  0  0
    9.3208   39.0195   67.1329 N   0  0  0  0  0  0
    9.4160   40.3716   67.1421 C   0  0  0  0  0  0
   10.3954   40.9883   66.3401 C   0  0  0  0  0  0
   10.3448   42.3563   66.0820 C   0  0  0  0  0  0
   11.1531   42.9110   65.1035 O   0  0  0  0  0  0
   12.5239   42.9256   65.2662 C   0  0  0  0  0  0
   13.0611   43.4160   66.4361 C   0  0  0  0  0  0
   14.4337   43.5442   66.5391 C   0  0  0  0  0  0
   15.2814   43.0933   65.5401 C   0  0  0  0  0  0
   14.6725   42.6159   64.3687 C   0  0  0  0  0  0
   13.3165   42.5628   64.2139 N   0  0  0  0  0  0
   16.7343   43.1659   65.8726 C   0  0  0  0  0  0
   17.3909   43.3275   67.0916 C   0  0  0  0  0  0
   18.7580   43.3037   66.8183 C   0  0  0  0  0  0
   18.9898   43.1652   65.5405 N   0  0  0  0  0  0
   17.7719   43.0847   64.9876 N   0  0  0  0  0  0
    9.3872   43.1269   66.7396 C   0  0  0  0  0  0
    8.5353   42.5734   67.7015 C   0  0  0  0  0  0
    8.5456   41.1751   67.9256 C   0  0  0  0  0  0
    7.7421   40.5088   68.8870 C   0  0  0  0  0  0
    8.9263   38.3132   71.6625 C   0  0  0  0  0  0
    9.3465   37.5402   72.9197 C   0  0  0  0  0  0
   12.8483   33.7318   74.3302 H   0  0  0  0  0  0
   11.5841   32.5944   74.7405 H   0  0  0  0  0  0
   11.6873   34.1243   75.6043 H   0  0  0  0  0  0
    9.9958   32.7459   72.3492 H   0  0  0  0  0  0
   10.9577   33.9428   71.4788 H   0  0  0  0  0  0
   11.7330   32.6220   72.3535 H   0  0  0  0  0  0
   10.5211   36.0911   71.9399 H   0  0  0  0  0  0
    8.7861   34.4065   71.4109 H   0  0  0  0  0  0
    7.5852   35.3219   72.3402 H   0  0  0  0  0  0
    8.9509   36.2301   69.8034 H   0  0  0  0  0  0
    7.3062   35.8162   70.0897 H   0  0  0  0  0  0
    6.3689   37.6329   69.6120 H   0  0  0  0  0  0
    6.5201   39.0158   70.7250 H   0  0  0  0  0  0
    8.5292   37.3369   68.0023 H   0  0  0  0  0  0
   11.0919   40.3682   65.7946 H   0  0  0  0  0  0
   12.4147   43.7471   67.2301 H   0  0  0  0  0  0
   14.8319   44.0163   67.4215 H   0  0  0  0  0  0
   15.2562   42.2934   63.5177 H   0  0  0  0  0  0
   16.9406   43.4301   68.0689 H   0  0  0  0  0  0
   19.5620   43.3860   67.5353 H   0  0  0  0  0  0
   17.6761   43.0332   63.9766 H   0  0  0  0  0  0
    9.3209   44.1831   66.5235 H   0  0  0  0  0  0
    7.8374   43.1986   68.2432 H   0  0  0  0  0  0
    7.1189   41.0984   69.5398 H   0  0  0  0  0  0
    9.7491   38.5198   70.9763 H   0  0  0  0  0  0
    8.5211   39.2772   71.9716 H   0  0  0  0  0  0
    8.5208   37.6224   73.6233 H   0  0  0  0  0  0
   10.2299   38.0500   73.3068 H   0  0  0  0  0  0
  1  2  1  0  0  0
  1 35  1  0  0  0
  1 36  1  0  0  0
  1 37  1  0  0  0
  2  3  1  0  0  0
  2  4  1  0  0  0
  3 38  1  0  0  0
  3 39  1  0  0  0
  3 40  1  0  0  0
  4  5  2  0  0  0
  4  6  1  0  0  0
  6  7  1  0  0  0
  6 34  1  0  0  0
  6 41  1  0  0  0
  7  8  1  0  0  0
  7 42  1  0  0  0
  7 43  1  0  0  0
  8  9  1  0  0  0
  8 44  1  0  0  0
  8 45  1  0  0  0
  9 10  1  0  0  0
  9 33  1  0  0  0
 10 11  1  0  0  0
 10 46  1  0  0  0
 10 47  1  0  0  0
 11 12  2  0  0  0
 11 32  1  0  0  0
 12 13  1  0  0  0
 12 48  1  0  0  0
 13 14  2  0  0  0
 14 15  1  0  0  0
 14 31  1  0  0  0
 15 16  2  0  0  0
 15 49  1  0  0  0
 16 17  1  0  0  0
 16 29  1  0  0  0
 17 18  1  0  0  0
 18 19  2  0  0  0
 18 23  1  0  0  0
 19 20  1  0  0  0
 19 50  1  0  0  0
 20 21  2  0  0  0
 20 51  1  0  0  0
 21 22  1  0  0  0
 21 24  1  0  0  0
 22 23  2  0  0  0
 22 52  1  0  0  0
 24 25  2  0  0  0
 24 28  1  0  0  0
 25 26  1  0  0  0
 25 53  1  0  0  0
 26 27  2  0  0  0
 26 54  1  0  0  0
 27 28  1  0  0  0
 28 55  1  0  0  0
 29 30  2  0  0  0
 29 56  1  0  0  0
 30 31  1  0  0  0
 30 57  1  0  0  0
 31 32  2  0  0  0
 32 58  1  0  0  0
 33 34  1  0  0  0
 33 59  1  0  0  0
 33 60  1  0  0  0
 34 61  1  0  0  0
 34 62  1  0  0  0
M  END
> <s_m_entry_id>
6714

> <s_m_entry_name>
dock_pv.144

> <s_m_Source_Path>
/home/csk/Desktop/cluster/DUD-E-result/lkha4

> <s_m_Source_File>
dock_pv.maegz

> <i_m_Source_File_Index>
144

> <chembl_id>
CHEMBL3978522

> <chembl_pref_name>
None

> <i_lp_mmshare_version>
53161

> <i_f3d_flags>
0

> <r_lp_tautomer_probability>
0.5

> <s_lp_Force_Field>
OPLS_2005

> <r_lp_Energy>
38.583444

> <b_lp_Chiralities_Consistent>
1

> <s_lp_Variant>
CHEMBL4618_lig480-1

> <s_i_glide_gridfile>
glide-grid_3chp

> <i_i_glide_lignum>
575

> <i_i_glide_rotatable_bonds>
7

> <r_i_docking_score>
-9.73750472386594

> <r_i_glide_ligand_efficiency>
-0.286397197760763

> <r_i_glide_ligand_efficiency_sa>
-0.927815740627965

> <r_i_glide_ligand_efficiency_ln>
-2.15128792125804

> <r_i_glide_gscore>
-9.73750472386594

> <r_i_glide_lipo>
-5.26341301778611

> <r_i_glide_hbond>
-0.127046059062332

> <r_i_glide_metal>
0

> <r_i_glide_rewards>
-1.33347465470535

> <r_i_glide_evdw>
-47.4480819702148

> <r_i_glide_ecoul>
-7.46479749679565

> <r_i_glide_erotb>
0.57855273071794

> <r_i_glide_esite>
-0.1

> <r_i_glide_emodel>
-47.6310694161677

> <r_i_glide_energy>
-54.9128794670105

> <r_i_glide_einternal>
19.843807220459

> <i_i_glide_confnum>
4

> <i_i_glide_posenum>
29

> <r_i_glide_eff_state_penalty>
0

> <s_user_duplicate_titles>
CHEMBL4618_lig480

> <s_m_subgroup_title>
dock_pv

> <s_m_subgroupid>
dock_pv

> <b_m_subgroup_collapsed>
1

$$$$
CHEMBL4618_lig121
                    3D
 Schrodinger Suite 2021-1.
 43 46  0  0  1  0            999 V2000
   15.5173   43.1004   65.3548 C   0  0  0  0  0  0
   15.6167   41.8191   64.7993 C   0  0  0  0  0  0
   14.5705   41.0494   64.5247 N   0  0  0  0  0  0
   16.9209   41.4583   64.7507 N   0  0  0  0  0  0
   16.7700   43.5667   65.5806 N   0  0  0  0  0  0
   14.2379   43.6303   65.5820 C   0  0  0  0  0  0
   13.3628   41.5855   64.8431 C   0  0  0  0  0  0
   13.1670   42.8412   65.3143 N   0  0  0  0  0  0
   17.5185   42.5764   65.1401 C   0  0  0  0  0  0
    8.0665   39.3139   68.8503 C   0  0  0  0  0  0
    7.3210   38.4224   69.8266 C   0  0  0  0  0  0
    9.5724   40.8924   67.1107 C   0  0  0  0  0  0
   11.7884   43.3917   65.4301 C   0  0  0  0  0  0
    8.1792   40.6876   69.0770 C   0  0  0  0  0  0
    8.5846   38.7589   67.6848 C   0  0  0  0  0  0
    9.3210   39.5530   66.8170 C   0  0  0  0  0  0
    8.9334   41.4785   68.2132 C   0  0  0  0  0  0
    8.1779   37.5970   70.7684 C   0  0  0  0  0  0
   10.4684   41.5363   66.2761 O   0  0  0  0  0  0
   10.9464   42.8382   66.6009 C   0  0  0  0  0  0
    8.2084   36.2167   70.6279 C   0  0  0  0  0  0
    8.8552   38.1981   71.8234 C   0  0  0  0  0  0
    8.9035   35.4259   71.5410 C   0  0  0  0  0  0
    9.5768   37.4160   72.7264 C   0  0  0  0  0  0
    9.5894   36.0312   72.5889 C   0  0  0  0  0  0
   14.0624   44.6160   65.9657 H   0  0  0  0  0  0
   12.5001   40.9567   64.7401 H   0  0  0  0  0  0
   18.5976   42.6544   65.1429 H   0  0  0  0  0  0
    6.6661   39.0159   70.4528 H   0  0  0  0  0  0
    6.6653   37.7632   69.2552 H   0  0  0  0  0  0
   11.8808   44.4736   65.5178 H   0  0  0  0  0  0
   11.3021   43.2038   64.4721 H   0  0  0  0  0  0
    7.7212   41.1442   69.9400 H   0  0  0  0  0  0
    8.4621   37.7068   67.4719 H   0  0  0  0  0  0
    9.7627   39.1027   65.9403 H   0  0  0  0  0  0
    9.0562   42.5257   68.4437 H   0  0  0  0  0  0
   11.5152   42.8335   67.5322 H   0  0  0  0  0  0
   10.0941   43.5047   66.7391 H   0  0  0  0  0  0
    7.6776   35.7790   69.8018 H   0  0  0  0  0  0
    8.7945   39.2679   71.9398 H   0  0  0  0  0  0
    8.9056   34.3502   71.4392 H   0  0  0  0  0  0
   10.1125   37.8777   73.5403 H   0  0  0  0  0  0
   10.1315   35.4239   73.2990 H   0  0  0  0  0  0
  1  2  1  0  0  0
  1  5  1  0  0  0
  1  6  2  0  0  0
  2  3  1  0  0  0
  2  4  2  0  0  0
  3  7  2  0  0  0
  4  9  1  0  0  0
  5  9  2  0  0  0
  6  8  1  0  0  0
  6 26  1  0  0  0
  7  8  1  0  0  0
  7 27  1  0  0  0
  8 13  1  0  0  0
  9 28  1  0  0  0
 10 14  2  0  0  0
 10 11  1  0  0  0
 10 15  1  0  0  0
 11 18  1  0  0  0
 11 29  1  0  0  0
 11 30  1  0  0  0
 12 19  1  0  0  0
 12 16  1  0  0  0
 12 17  2  0  0  0
 13 20  1  0  0  0
 13 31  1  0  0  0
 13 32  1  0  0  0
 14 17  1  0  0  0
 14 33  1  0  0  0
 15 16  2  0  0  0
 15 34  1  0  0  0
 16 35  1  0  0  0
 17 36  1  0  0  0
 18 21  2  0  0  0
 18 22  1  0  0  0
 19 20  1  0  0  0
 20 37  1  0  0  0
 20 38  1  0  0  0
 21 23  1  0  0  0
 21 39  1  0  0  0
 22 24  2  0  0  0
 22 40  1  0  0  0
 23 25  2  0  0  0
 23 41  1  0  0  0
 24 25  1  0  0  0
 24 42  1  0  0  0
 25 43  1  0  0  0
M  END
> <s_m_entry_id>
6715

> <s_m_entry_name>
dock_pv.145

> <s_m_Source_Path>
/home/csk/Desktop/cluster/DUD-E-result/lkha4

> <s_m_Source_File>
dock_pv.maegz

> <i_m_Source_File_Index>
145

> <chembl_id>
CHEMBL14549

> <chembl_pref_name>
None

> <i_lp_mmshare_version>
53161

> <i_f3d_flags>
0

> <r_lp_tautomer_probability>
1

> <s_lp_Force_Field>
OPLS_2005

> <r_lp_Energy>
28.805232

> <b_lp_Chiralities_Consistent>
1

> <s_lp_Variant>
CHEMBL4618_lig121-1

> <s_i_glide_gridfile>
glide-grid_3chp

> <i_i_glide_lignum>
147

> <i_i_glide_rotatable_bonds>
6

> <r_i_docking_score>
-9.73198937199938

> <r_i_glide_ligand_efficiency>
-0.389279574879975

> <r_i_glide_ligand_efficiency_sa>
-1.13826038085171

> <r_i_glide_ligand_efficiency_ln>
-2.30677312535109

> <r_i_glide_gscore>
-9.73198937199938

> <r_i_glide_lipo>
-4.71033768426696

> <r_i_glide_hbond>
-0.0643429773638986

> <r_i_glide_metal>
0

> <r_i_glide_rewards>
-2.05526860736054

> <r_i_glide_evdw>
-38.1148567199707

> <r_i_glide_ecoul>
-11.0520839691162

> <r_i_glide_erotb>
0.861515328357989

> <r_i_glide_esite>
-0.2

> <r_i_glide_emodel>
-79.3198150328383

> <r_i_glide_energy>
-49.1669406890869

> <r_i_glide_einternal>
2.97492980957031

> <i_i_glide_confnum>
5

> <i_i_glide_posenum>
40

> <r_i_glide_eff_state_penalty>
0

> <s_user_duplicate_titles>
CHEMBL4618_lig121,14786

> <s_m_subgroup_title>
dock_pv

> <s_m_subgroupid>
dock_pv

> <b_m_subgroup_collapsed>
1

$$$$
CHEMBL4618_lig265
                    3D
 Schrodinger Suite 2021-1.
 52 56  0  0  1  0            999 V2000
   10.2940   36.0602   73.6811 C   0  0  0  0  0  0
    9.7220   34.9428   73.0762 C   0  0  0  0  0  0
    8.9209   35.0578   71.9399 C   0  0  0  0  0  0
   10.1208   37.3328   73.1411 C   0  0  0  0  0  0
    9.3208   37.4479   72.0032 C   0  0  0  0  0  0
    8.6994   36.3309   71.3939 C   0  0  0  0  0  0
    7.9555   36.6207   70.2866 N   0  0  0  0  0  0
    8.0430   37.8884   69.9876 C   0  0  0  0  0  0
    8.9209   38.8753   71.1071 S   0  0  0  0  0  0
    7.5004   38.4895   68.8758 O   0  0  0  0  0  0
    8.1210   39.5969   68.3248 C   0  0  0  0  0  0
    7.7212   40.9123   68.5944 C   0  0  0  0  0  0
    8.2810   41.9760   67.8787 C   0  0  0  0  0  0
    9.2725   41.7313   66.9223 C   0  0  0  0  0  0
    9.7219   40.4209   66.7400 C   0  0  0  0  0  0
    9.1260   39.3640   67.4062 C   0  0  0  0  0  0
    9.8116   42.8706   66.0333 C   0  0  0  0  0  0
   11.2033   42.6733   65.5881 N   0  0  1  0  0  0
   11.6661   43.5629   64.5135 C   0  0  0  0  0  0
   13.1601   43.3741   64.0951 C   0  0  0  0  0  0
   14.1015   43.4158   65.3080 C   0  0  0  0  0  0
   13.5134   42.4878   66.3518 C   0  0  0  0  0  0
   12.0773   42.8039   66.7370 C   0  0  0  0  0  0
   15.5560   43.2503   65.1480 N   0  0  0  0  0  0
   16.1747   42.0733   64.7424 C   0  0  0  0  0  0
   17.4755   42.1833   65.0570 O   0  0  0  0  0  0
   17.8473   43.4576   65.5242 C   0  0  0  0  0  0
   16.5204   44.0992   65.8292 C   0  0  0  0  0  0
   15.7210   41.0160   64.3167 O   0  0  0  0  0  0
   10.8901   35.9335   74.5745 H   0  0  0  0  0  0
    9.8837   33.9695   73.5199 H   0  0  0  0  0  0
    8.4562   34.1790   71.5252 H   0  0  0  0  0  0
   10.5631   38.2133   73.5950 H   0  0  0  0  0  0
    6.9263   41.1031   69.2996 H   0  0  0  0  0  0
    7.9081   42.9780   68.0442 H   0  0  0  0  0  0
   10.4867   40.2013   66.0083 H   0  0  0  0  0  0
    9.4182   38.3476   67.1942 H   0  0  0  0  0  0
    9.7124   43.8165   66.5657 H   0  0  0  0  0  0
    9.1576   42.9373   65.1658 H   0  0  0  0  0  0
   11.5129   44.5936   64.8356 H   0  0  0  0  0  0
   11.0224   43.4157   63.6470 H   0  0  0  0  0  0
   13.4276   44.1591   63.3888 H   0  0  0  0  0  0
   13.2675   42.4355   63.5495 H   0  0  0  0  0  0
   13.9947   44.4207   65.7143 H   0  0  0  0  0  0
   13.5967   41.4374   66.0639 H   0  0  0  0  0  0
   14.1168   42.6157   67.2297 H   0  0  0  0  0  0
   11.9977   43.8106   67.1398 H   0  0  0  0  0  0
   11.7486   42.1327   67.5284 H   0  0  0  0  0  0
   18.3745   44.0040   64.7405 H   0  0  0  0  0  0
   18.4723   43.4018   66.4149 H   0  0  0  0  0  0
   16.3375   44.1724   66.9027 H   0  0  0  0  0  0
   16.5207   45.1138   65.4381 H   0  0  0  0  0  0
  1  2  2  0  0  0
  1  4  1  0  0  0
  1 30  1  0  0  0
  2  3  1  0  0  0
  2 31  1  0  0  0
  3  6  2  0  0  0
  3 32  1  0  0  0
  4  5  2  0  0  0
  4 33  1  0  0  0
  5  9  1  0  0  0
  5  6  1  0  0  0
  6  7  1  0  0  0
  7  8  2  0  0  0
  8  9  1  0  0  0
  8 10  1  0  0  0
 10 11  1  0  0  0
 11 16  1  0  0  0
 11 12  2  0  0  0
 12 13  1  0  0  0
 12 34  1  0  0  0
 13 14  2  0  0  0
 13 35  1  0  0  0
 14 15  1  0  0  0
 14 17  1  0  0  0
 15 16  2  0  0  0
 15 36  1  0  0  0
 16 37  1  0  0  0
 17 18  1  0  0  0
 17 38  1  0  0  0
 17 39  1  0  0  0
 18 19  1  0  0  0
 18 23  1  0  0  0
 19 20  1  0  0  0
 19 40  1  0  0  0
 19 41  1  0  0  0
 20 21  1  0  0  0
 20 42  1  0  0  0
 20 43  1  0  0  0
 21 22  1  0  0  0
 21 24  1  0  0  0
 21 44  1  0  0  0
 22 23  1  0  0  0
 22 45  1  0  0  0
 22 46  1  0  0  0
 23 47  1  0  0  0
 23 48  1  0  0  0
 24 25  1  0  0  0
 24 28  1  0  0  0
 25 26  1  0  0  0
 25 29  2  0  0  0
 26 27  1  0  0  0
 27 28  1  0  0  0
 27 49  1  0  0  0
 27 50  1  0  0  0
 28 51  1  0  0  0
 28 52  1  0  0  0
M  END
> <s_m_entry_id>
6716

> <s_m_entry_name>
dock_pv.146

> <s_m_Source_Path>
/home/csk/Desktop/cluster/DUD-E-result/lkha4

> <s_m_Source_File>
dock_pv.maegz

> <i_m_Source_File_Index>
146

> <chembl_id>
CHEMBL518155

> <chembl_pref_name>
None

> <i_lp_mmshare_version>
53161

> <i_f3d_flags>
0

> <r_lp_tautomer_probability>
1

> <s_lp_Force_Field>
OPLS_2005

> <r_lp_Energy>
40.652002

> <b_lp_Chiralities_Consistent>
1

> <s_lp_Variant>
CHEMBL4618_lig265-1

> <s_i_glide_gridfile>
glide-grid_3chp

> <i_i_glide_lignum>
303

> <i_i_glide_rotatable_bonds>
5

> <r_i_docking_score>
-9.72702835757701

> <r_i_glide_ligand_efficiency>
-0.335414770950931

> <r_i_glide_ligand_efficiency_sa>
-1.03050044321944

> <r_i_glide_ligand_efficiency_ln>
-2.22724283772806

> <r_i_glide_gscore>
-9.72702835757701

> <r_i_glide_lipo>
-5.54134042913252

> <r_i_glide_hbond>
0

> <r_i_glide_metal>
0

> <r_i_glide_rewards>
-1.51702963636364

> <r_i_glide_evdw>
-48.1259155273438

> <r_i_glide_ecoul>
-4.32994365692139

> <r_i_glide_erotb>
0.587129032824546

> <r_i_glide_esite>
-0.2

> <r_i_glide_emodel>
-80.7357005511072

> <r_i_glide_energy>
-52.4558591842651

> <r_i_glide_einternal>
3.6771993637085

> <i_i_glide_confnum>
14

> <i_i_glide_posenum>
30

> <r_i_glide_eff_state_penalty>
0

> <s_user_duplicate_titles>
CHEMBL4618_lig265,466991

> <s_m_subgroup_title>
dock_pv

> <s_m_subgroupid>
dock_pv

> <b_m_subgroup_collapsed>
1

$$$$
CHEMBL4618_lig150
                    3D
 Schrodinger Suite 2021-1.
 51 53  0  0  1  0            999 V2000
   16.9220   42.7739   65.9428 N   0  0  0  0  0  0
   15.7146   43.4460   65.9394 N   0  0  0  0  0  0
   15.0421   42.8975   64.9245 N   0  0  0  0  0  0
   16.9466   41.8160   64.9357 N   0  0  0  0  0  0
   15.7921   41.9159   64.3399 C   0  0  0  0  0  0
   13.7659   43.4157   64.4803 C   0  0  0  0  0  0
   12.1736   42.1715   66.1277 N   0  0  2  0  0  0
   12.6155   42.4214   64.7430 C   0  0  0  0  0  0
    8.1470   37.5298   71.1105 C   0  0  0  0  0  0
    8.0831   36.8764   72.4864 C   0  0  0  0  0  0
    8.3551   38.8286   68.6303 C   0  0  0  0  0  0
    8.5211   38.8622   71.0405 C   0  0  0  0  0  0
    7.7918   36.8615   69.9355 C   0  0  0  0  0  0
    7.9155   37.5091   68.7039 C   0  0  0  0  0  0
    8.6154   39.5075   69.8210 C   0  0  0  0  0  0
    9.1720   35.8588   72.8010 C   0  0  0  0  0  0
   10.1408   41.2590   67.4232 C   0  0  0  0  0  0
    8.5089   39.3968   67.3777 O   0  0  0  0  0  0
   10.8436   41.5329   66.0705 C   0  0  0  0  0  0
    8.6688   40.8143   67.2834 C   0  0  0  0  0  0
   12.1401   43.4160   66.8763 C   0  0  0  0  0  0
    9.3211   34.7247   72.0003 C   0  0  0  0  0  0
    9.9468   36.0036   73.9562 C   0  0  0  0  0  0
   10.2110   33.7226   72.3606 C   0  0  0  0  0  0
   10.8274   34.9929   74.3313 C   0  0  0  0  0  0
   10.9340   33.8500   73.5409 C   0  0  0  0  0  0
   15.4323   41.4114   63.4567 H   0  0  0  0  0  0
   13.5911   44.4021   64.9102 H   0  0  0  0  0  0
   13.8451   43.5836   63.4055 H   0  0  0  0  0  0
   11.7745   42.8030   64.1642 H   0  0  0  0  0  0
   12.9210   41.4641   64.3158 H   0  0  0  0  0  0
    8.1213   37.6619   73.2399 H   0  0  0  0  0  0
    7.1158   36.4134   72.6464 H   0  0  0  0  0  0
    8.7164   39.4160   71.9399 H   0  0  0  0  0  0
    7.4418   35.8402   69.9599 H   0  0  0  0  0  0
    7.6700   36.9960   67.7906 H   0  0  0  0  0  0
    8.9206   40.5403   69.8275 H   0  0  0  0  0  0
   10.6910   40.4738   67.9396 H   0  0  0  0  0  0
   10.1448   42.1299   68.0720 H   0  0  0  0  0  0
   10.1648   42.1214   65.4484 H   0  0  0  0  0  0
   10.9543   40.5769   65.5559 H   0  0  0  0  0  0
    8.0351   41.3299   68.0087 H   0  0  0  0  0  0
    8.2539   41.1493   66.3400 H   0  0  0  0  0  0
   11.7749   43.3093   67.8944 H   0  0  0  0  0  0
   13.1474   43.8159   66.9869 H   0  0  0  0  0  0
   11.5290   44.1583   66.3585 H   0  0  0  0  0  0
    8.6957   34.5756   71.1400 H   0  0  0  0  0  0
    9.8347   36.8718   74.5900 H   0  0  0  0  0  0
   10.3016   32.8291   71.7608 H   0  0  0  0  0  0
   11.4009   35.0779   75.2429 H   0  0  0  0  0  0
   11.6000   33.0541   73.8433 H   0  0  0  0  0  0
  1  2  2  0  0  0
  1  4  1  0  0  0
  2  3  1  0  0  0
  3  6  1  0  0  0
  3  5  1  0  0  0
  4  5  2  0  0  0
  5 27  1  0  0  0
  6  8  1  0  0  0
  6 28  1  0  0  0
  6 29  1  0  0  0
  7  8  1  0  0  0
  7 19  1  0  0  0
  7 21  1  0  0  0
  8 30  1  0  0  0
  8 31  1  0  0  0
  9 12  2  0  0  0
  9 10  1  0  0  0
  9 13  1  0  0  0
 10 16  1  0  0  0
 10 32  1  0  0  0
 10 33  1  0  0  0
 11 18  1  0  0  0
 11 14  1  0  0  0
 11 15  2  0  0  0
 12 15  1  0  0  0
 12 34  1  0  0  0
 13 14  2  0  0  0
 13 35  1  0  0  0
 14 36  1  0  0  0
 15 37  1  0  0  0
 16 22  1  0  0  0
 16 23  2  0  0  0
 17 19  1  0  0  0
 17 20  1  0  0  0
 17 38  1  0  0  0
 17 39  1  0  0  0
 18 20  1  0  0  0
 19 40  1  0  0  0
 19 41  1  0  0  0
 20 42  1  0  0  0
 20 43  1  0  0  0
 21 44  1  0  0  0
 21 45  1  0  0  0
 21 46  1  0  0  0
 22 24  2  0  0  0
 22 47  1  0  0  0
 23 25  1  0  0  0
 23 48  1  0  0  0
 24 26  1  0  0  0
 24 49  1  0  0  0
 25 26  2  0  0  0
 25 50  1  0  0  0
 26 51  1  0  0  0
M  END
> <s_m_entry_id>
6717

> <s_m_entry_name>
dock_pv.147

> <s_m_Source_Path>
/home/csk/Desktop/cluster/DUD-E-result/lkha4

> <s_m_Source_File>
dock_pv.maegz

> <i_m_Source_File_Index>
147

> <chembl_id>
CHEMBL118014

> <chembl_pref_name>
None

> <i_lp_mmshare_version>
53161

> <i_f3d_flags>
0

> <r_lp_tautomer_probability>
1

> <s_lp_Force_Field>
OPLS_2005

> <r_lp_Energy>
26.378055

> <b_lp_Chiralities_Consistent>
1

> <s_lp_Variant>
CHEMBL4618_lig150-1

> <s_i_glide_gridfile>
glide-grid_3chp

> <i_i_glide_lignum>
176

> <i_i_glide_rotatable_bonds>
10

> <r_i_docking_score>
-9.70716308021045

> <r_i_glide_ligand_efficiency>
-0.37335242616194

> <r_i_glide_ligand_efficiency_sa>
-1.10605509343389

> <r_i_glide_ligand_efficiency_ln>
-2.27969539758741

> <r_i_glide_gscore>
-9.70716308021045

> <r_i_glide_lipo>
-5.38137086031947

> <r_i_glide_hbond>
0

> <r_i_glide_metal>
0

> <r_i_glide_rewards>
-1.90647583997056

> <r_i_glide_evdw>
-49.1982307434082

> <r_i_glide_ecoul>
-5.89709329605103

> <r_i_glide_erotb>
1.38977821054683

> <r_i_glide_esite>
-0.464619058889182

> <r_i_glide_emodel>
-80.5172630000724

> <r_i_glide_energy>
-55.0953240394592

> <r_i_glide_einternal>
15.2341365814209

> <i_i_glide_confnum>
86

> <i_i_glide_posenum>
376

> <r_i_glide_eff_state_penalty>
0

> <s_user_duplicate_titles>
CHEMBL4618_lig150,192692

> <s_m_subgroup_title>
dock_pv

> <s_m_subgroupid>
dock_pv

> <b_m_subgroup_collapsed>
1

$$$$
CHEMBL4618_lig168
                    3D
 Schrodinger Suite 2021-1.
 49 50  0  0  1  0            999 V2000
   16.6397   42.6156   64.9804 C   0  0  0  0  0  0
   15.3697   43.1589   65.6312 C   0  0  0  0  0  0
   16.8112   41.4160   64.7400 O   0  0  0  0  0  0
   14.1150   42.3138   65.3103 C   0  0  0  0  0  0
   12.8950   43.0889   65.5477 N   0  0  2  0  0  0
    7.9952   38.1021   69.5817 C   0  0  0  0  0  0
    8.5500   36.5660   71.6025 C   0  0  0  0  0  0
   10.2936   35.4671   73.4888 C   0  0  0  0  0  0
    7.5104   37.0968   70.6150 C   0  0  0  0  0  0
   17.5405   43.6080   64.7400 O   0  0  0  0  0  0
    8.7491   40.0329   67.6949 C   0  0  0  0  0  0
   11.1231   34.9346   74.4134 F   0  0  0  0  0  0
    9.9515   36.8137   73.5538 C   0  0  0  0  0  0
    9.7952   34.6706   72.4670 C   0  0  0  0  0  0
    8.1210   37.7560   68.2396 C   0  0  0  0  0  0
    8.9210   35.2263   71.5400 C   0  0  0  0  0  0
    9.0716   37.3651   72.6215 C   0  0  0  0  0  0
    8.2098   39.4160   69.9596 C   0  0  0  0  0  0
    8.5210   40.3885   69.0275 C   0  0  0  0  0  0
    8.5210   38.7116   67.3031 C   0  0  0  0  0  0
   10.4328   42.9188   66.0940 C   0  0  0  0  0  0
    9.2095   40.9180   66.7400 O   0  0  0  0  0  0
   11.7857   42.1951   65.9056 C   0  0  0  0  0  0
    9.5169   42.2585   67.1244 C   0  0  0  0  0  0
   12.5929   43.9179   64.3799 C   0  0  0  0  0  0
   15.4680   43.3806   66.6934 H   0  0  0  0  0  0
   15.2350   44.1383   65.1726 H   0  0  0  0  0  0
   14.1310   41.9352   64.2838 H   0  0  0  0  0  0
   14.1209   41.4256   65.9400 H   0  0  0  0  0  0
    6.6962   37.5479   71.1850 H   0  0  0  0  0  0
    7.0567   36.2652   70.0736 H   0  0  0  0  0  0
   18.1707   43.3750   64.0390 H   0  0  0  0  0  0
   10.3534   37.4160   74.3520 H   0  0  0  0  0  0
   10.0690   33.6274   72.4091 H   0  0  0  0  0  0
    7.9434   36.7359   67.9400 H   0  0  0  0  0  0
    8.5210   34.6160   70.7551 H   0  0  0  0  0  0
    8.7821   38.4003   72.7118 H   0  0  0  0  0  0
    8.1210   39.6970   70.9942 H   0  0  0  0  0  0
    8.6336   41.4005   69.3809 H   0  0  0  0  0  0
    8.6731   38.4257   66.2726 H   0  0  0  0  0  0
   10.5760   43.9682   66.3376 H   0  0  0  0  0  0
    9.9054   42.9163   65.1400 H   0  0  0  0  0  0
   11.6836   41.4280   65.1400 H   0  0  0  0  0  0
   12.0395   41.6580   66.8200 H   0  0  0  0  0  0
   10.0441   42.3044   68.0781 H   0  0  0  0  0  0
    8.5917   42.8277   67.2312 H   0  0  0  0  0  0
   11.7915   44.6160   64.6103 H   0  0  0  0  0  0
   13.4429   44.5194   64.0596 H   0  0  0  0  0  0
   12.2824   43.3001   63.5400 H   0  0  0  0  0  0
  1  2  1  0  0  0
  1  3  2  0  0  0
  1 10  1  0  0  0
  2  4  1  0  0  0
  2 26  1  0  0  0
  2 27  1  0  0  0
  4  5  1  0  0  0
  4 28  1  0  0  0
  4 29  1  0  0  0
  5 23  1  0  0  0
  5 25  1  0  0  0
  6 15  1  0  0  0
  6  9  1  0  0  0
  6 18  2  0  0  0
  7  9  1  0  0  0
  7 16  2  0  0  0
  7 17  1  0  0  0
  8 13  1  0  0  0
  8 12  1  0  0  0
  8 14  2  0  0  0
  9 30  1  0  0  0
  9 31  1  0  0  0
 10 32  1  0  0  0
 11 22  1  0  0  0
 11 19  2  0  0  0
 11 20  1  0  0  0
 13 17  2  0  0  0
 13 33  1  0  0  0
 14 16  1  0  0  0
 14 34  1  0  0  0
 15 20  2  0  0  0
 15 35  1  0  0  0
 16 36  1  0  0  0
 17 37  1  0  0  0
 18 19  1  0  0  0
 18 38  1  0  0  0
 19 39  1  0  0  0
 20 40  1  0  0  0
 21 23  1  0  0  0
 21 24  1  0  0  0
 21 41  1  0  0  0
 21 42  1  0  0  0
 22 24  1  0  0  0
 23 43  1  0  0  0
 23 44  1  0  0  0
 24 45  1  0  0  0
 24 46  1  0  0  0
 25 47  1  0  0  0
 25 48  1  0  0  0
 25 49  1  0  0  0
M  END
> <s_m_entry_id>
6718

> <s_m_entry_name>
dock_pv.148

> <s_m_Source_Path>
/home/csk/Desktop/cluster/DUD-E-result/lkha4

> <s_m_Source_File>
dock_pv.maegz

> <i_m_Source_File_Index>
148

> <chembl_id>
CHEMBL117833

> <chembl_pref_name>
None

> <i_lp_mmshare_version>
53161

> <i_f3d_flags>
0

> <r_lp_tautomer_probability>
1

> <s_lp_Force_Field>
OPLS_2005

> <r_lp_Energy>
21.311419

> <b_lp_Chiralities_Consistent>
1

> <s_lp_Variant>
CHEMBL4618_lig168-1

> <s_i_glide_gridfile>
glide-grid_3chp

> <i_i_glide_lignum>
194

> <i_i_glide_rotatable_bonds>
11

> <r_i_docking_score>
-9.70582438889954

> <r_i_glide_ligand_efficiency>
-0.388232975555982

> <r_i_glide_ligand_efficiency_sa>
-1.13520010586683

> <r_i_glide_ligand_efficiency_ln>
-2.30057124025516

> <r_i_glide_gscore>
-9.70582438889954

> <r_i_glide_lipo>
-5.20869229147594

> <r_i_glide_hbond>
-0.0931276134424242

> <r_i_glide_metal>
0

> <r_i_glide_rewards>
-1.95402545692421

> <r_i_glide_evdw>
-42.5689926147461

> <r_i_glide_ecoul>
-12.0934448242188

> <r_i_glide_erotb>
1.59248732731315

> <r_i_glide_esite>
-0.1

> <r_i_glide_emodel>
-80.2643428387315

> <r_i_glide_energy>
-54.6624374389648

> <r_i_glide_einternal>
16.5694217681885

> <i_i_glide_confnum>
261

> <i_i_glide_posenum>
116

> <r_i_glide_eff_state_penalty>
0

> <s_user_duplicate_titles>
CHEMBL4618_lig168,192003

> <s_m_subgroup_title>
dock_pv

> <s_m_subgroupid>
dock_pv

> <b_m_subgroup_collapsed>
1

$$$$
CHEMBL4618_lig266
                    3D
 Schrodinger Suite 2021-1.
 54 58  0  0  1  0            999 V2000
   10.4469   35.7435   73.7814 C   0  0  0  0  0  0
   10.0551   34.6078   73.0816 C   0  0  0  0  0  0
    9.2549   34.7040   71.9407 C   0  0  0  0  0  0
   10.1226   37.0189   73.3211 C   0  0  0  0  0  0
    9.3722   37.1318   72.1417 C   0  0  0  0  0  0
    8.8874   35.9771   71.4839 C   0  0  0  0  0  0
    8.1209   36.2159   70.3890 N   0  0  0  0  0  0
    8.0991   37.4675   70.0798 C   0  0  0  0  0  0
    8.9209   38.5432   71.1853 S   0  0  0  0  0  0
    7.4999   37.9357   68.9395 O   0  0  0  0  0  0
    7.9437   39.0983   68.3704 C   0  0  0  0  0  0
    8.8911   39.0117   67.3639 C   0  0  0  0  0  0
    9.3242   40.1641   66.7400 C   0  0  0  0  0  0
    8.8177   41.4144   67.1206 C   0  0  0  0  0  0
    7.8789   41.5035   68.1435 C   0  0  0  0  0  0
    7.4466   40.3396   68.7613 C   0  0  0  0  0  0
    9.2637   42.6873   66.4074 C   0  0  0  0  0  0
   10.6122   42.5818   65.8504 N   0  0  1  0  0  0
   10.9734   43.7400   65.0526 C   0  0  0  0  0  0
   12.4146   43.7054   64.4875 C   0  0  0  0  0  0
   13.4588   43.3147   65.5477 C   0  0  0  0  0  0
   12.9500   42.1282   66.3400 C   0  0  0  0  0  0
   11.5771   42.4019   66.9194 C   0  0  0  0  0  0
   14.8101   43.0806   65.0798 N   0  0  0  0  0  0
   15.9108   43.5209   65.7318 C   0  0  0  0  0  0
   17.0978   42.9556   64.9814 C   0  0  0  0  0  0
   16.5228   42.0246   63.9367 C   0  0  0  0  0  0
   15.0403   42.2151   63.9400 C   0  0  0  0  0  0
   15.9873   44.2162   66.7406 O   0  0  0  0  0  0
   11.0379   35.6321   74.6795 H   0  0  0  0  0  0
   10.3409   33.6323   73.4508 H   0  0  0  0  0  0
    8.9167   33.8151   71.4297 H   0  0  0  0  0  0
   10.4976   37.8880   73.8408 H   0  0  0  0  0  0
    9.2721   38.0494   67.0581 H   0  0  0  0  0  0
   10.0492   40.0751   65.9429 H   0  0  0  0  0  0
    7.4677   42.4585   68.4440 H   0  0  0  0  0  0
    6.7102   40.3885   69.5400 H   0  0  0  0  0  0
    9.2006   43.5354   67.0921 H   0  0  0  0  0  0
    8.5530   42.8791   65.6044 H   0  0  0  0  0  0
   10.8331   44.6159   65.6605 H   0  0  0  0  0  0
   10.2580   43.8158   64.2374 H   0  0  0  0  0  0
   12.6663   44.6834   64.0771 H   0  0  0  0  0  0
   12.4285   43.0144   63.6466 H   0  0  0  0  0  0
   13.4896   44.1394   66.2599 H   0  0  0  0  0  0
   12.9278   41.2099   65.7490 H   0  0  0  0  0  0
   13.6550   41.9600   67.1399 H   0  0  0  0  0  0
   11.5767   43.2699   67.5816 H   0  0  0  0  0  0
   11.3210   41.5465   67.5399 H   0  0  0  0  0  0
   17.6073   43.7940   64.5029 H   0  0  0  0  0  0
   17.8068   42.4701   65.6521 H   0  0  0  0  0  0
   16.9205   42.2125   62.9426 H   0  0  0  0  0  0
   16.7642   41.0161   64.1855 H   0  0  0  0  0  0
   14.5051   41.2676   64.0154 H   0  0  0  0  0  0
   14.7096   42.6971   63.0200 H   0  0  0  0  0  0
  1  2  2  0  0  0
  1  4  1  0  0  0
  1 30  1  0  0  0
  2  3  1  0  0  0
  2 31  1  0  0  0
  3  6  2  0  0  0
  3 32  1  0  0  0
  4  5  2  0  0  0
  4 33  1  0  0  0
  5  9  1  0  0  0
  5  6  1  0  0  0
  6  7  1  0  0  0
  7  8  2  0  0  0
  8  9  1  0  0  0
  8 10  1  0  0  0
 10 11  1  0  0  0
 11 16  1  0  0  0
 11 12  2  0  0  0
 12 13  1  0  0  0
 12 34  1  0  0  0
 13 14  2  0  0  0
 13 35  1  0  0  0
 14 15  1  0  0  0
 14 17  1  0  0  0
 15 16  2  0  0  0
 15 36  1  0  0  0
 16 37  1  0  0  0
 17 18  1  0  0  0
 17 38  1  0  0  0
 17 39  1  0  0  0
 18 19  1  0  0  0
 18 23  1  0  0  0
 19 20  1  0  0  0
 19 40  1  0  0  0
 19 41  1  0  0  0
 20 21  1  0  0  0
 20 42  1  0  0  0
 20 43  1  0  0  0
 21 22  1  0  0  0
 21 24  1  0  0  0
 21 44  1  0  0  0
 22 23  1  0  0  0
 22 45  1  0  0  0
 22 46  1  0  0  0
 23 47  1  0  0  0
 23 48  1  0  0  0
 24 25  1  0  0  0
 24 28  1  0  0  0
 25 26  1  0  0  0
 25 29  2  0  0  0
 26 27  1  0  0  0
 26 49  1  0  0  0
 26 50  1  0  0  0
 27 28  1  0  0  0
 27 51  1  0  0  0
 27 52  1  0  0  0
 28 53  1  0  0  0
 28 54  1  0  0  0
M  END
> <s_m_entry_id>
6719

> <s_m_entry_name>
dock_pv.149

> <s_m_Source_Path>
/home/csk/Desktop/cluster/DUD-E-result/lkha4

> <s_m_Source_File>
dock_pv.maegz

> <i_m_Source_File_Index>
149

> <chembl_id>
CHEMBL480130

> <chembl_pref_name>
None

> <i_lp_mmshare_version>
53161

> <i_f3d_flags>
0

> <r_lp_tautomer_probability>
1

> <s_lp_Force_Field>
OPLS_2005

> <r_lp_Energy>
45.997248

> <b_lp_Chiralities_Consistent>
1

> <s_lp_Variant>
CHEMBL4618_lig266-1

> <s_i_glide_gridfile>
glide-grid_3chp

> <i_i_glide_lignum>
304

> <i_i_glide_rotatable_bonds>
5

> <r_i_docking_score>
-9.68732054248151

> <r_i_glide_ligand_efficiency>
-0.334045535947638

> <r_i_glide_ligand_efficiency_sa>
-1.02629371948523

> <r_i_glide_ligand_efficiency_ln>
-2.21815075497451

> <r_i_glide_gscore>
-9.68732054248151

> <r_i_glide_lipo>
-5.77372882820077

> <r_i_glide_hbond>
0

> <r_i_glide_metal>
0

> <r_i_glide_rewards>
-1.53048068181818

> <r_i_glide_evdw>
-46.6742134094238

> <r_i_glide_ecoul>
-3.21377444267273

> <r_i_glide_erotb>
0.592264560589585

> <r_i_glide_esite>
-0.159598756180041

> <r_i_glide_emodel>
-73.8091548193632

> <r_i_glide_energy>
-49.8879878520966

> <r_i_glide_einternal>
3.99856758117676

> <i_i_glide_confnum>
24

> <i_i_glide_posenum>
226

> <r_i_glide_eff_state_penalty>
0

> <s_user_duplicate_titles>
CHEMBL4618_lig266,466990

> <s_m_subgroup_title>
dock_pv

> <s_m_subgroupid>
dock_pv

> <b_m_subgroup_collapsed>
1

$$$$
CHEMBL4618_lig177
                    3D
 Schrodinger Suite 2021-1.
 47 48  0  0  1  0            999 V2000
   10.5210   33.7130   72.7544 C   0  0  0  0  0  0
   11.1857   34.0089   73.9408 C   0  0  0  0  0  0
   10.9210   35.1922   74.6280 C   0  0  0  0  0  0
    9.9989   36.0999   74.1108 C   0  0  0  0  0  0
    9.3305   35.8145   72.9155 C   0  0  0  0  0  0
    9.5936   34.6160   72.2460 C   0  0  0  0  0  0
    8.2874   36.7891   72.3802 C   0  0  0  0  0  0
    8.1104   36.6216   70.9651 O   0  0  0  0  0  0
    8.1980   37.6850   70.0873 C   0  0  0  0  0  0
    8.1210   37.3886   68.7270 C   0  0  0  0  0  0
    8.3348   38.3745   67.7633 C   0  0  0  0  0  0
    8.5742   39.6928   68.1502 C   0  0  0  0  0  0
    8.5210   40.0095   69.5083 C   0  0  0  0  0  0
    8.3778   39.0160   70.4645 C   0  0  0  0  0  0
    8.9303   40.6097   67.1400 N   0  0  0  0  0  0
    9.3299   41.9001   67.2555 C   0  0  0  0  0  0
    9.9774   42.5245   65.9855 C   0  0  1  0  0  0
    9.2681   42.5838   68.2802 O   0  0  0  0  0  0
    9.3210   43.8160   65.7290 N   0  0  0  0  0  0
   11.5238   42.6538   66.1964 C   0  0  1  0  0  0
   12.1999   41.2739   66.3400 C   0  0  0  0  0  0
   12.2111   43.4799   65.0768 C   0  0  0  0  0  0
   13.7195   43.6912   65.2706 C   0  0  0  0  0  0
   10.7113   32.7785   72.2465 H   0  0  0  0  0  0
   11.8914   33.2985   74.3483 H   0  0  0  0  0  0
   11.4240   35.4001   75.5618 H   0  0  0  0  0  0
    9.7943   37.0153   74.6488 H   0  0  0  0  0  0
    9.0443   34.3664   71.3498 H   0  0  0  0  0  0
    8.5772   37.7815   72.7113 H   0  0  0  0  0  0
    7.3333   36.5747   72.8610 H   0  0  0  0  0  0
    7.9688   36.3661   68.4179 H   0  0  0  0  0  0
    8.3530   38.0971   66.7200 H   0  0  0  0  0  0
    8.6234   41.0160   69.8632 H   0  0  0  0  0  0
    8.3865   39.3435   71.4893 H   0  0  0  0  0  0
    9.0207   40.1970   66.2249 H   0  0  0  0  0  0
    9.8038   41.8672   65.1400 H   0  0  0  0  0  0
    8.3492   43.7283   65.4361 H   0  0  0  0  0  0
    9.3010   44.3529   66.5922 H   0  0  0  0  0  0
   11.6955   43.1972   67.1285 H   0  0  0  0  0  0
   12.1335   40.6968   65.4186 H   0  0  0  0  0  0
   13.2541   41.3608   66.6004 H   0  0  0  0  0  0
   11.7210   40.6872   67.1219 H   0  0  0  0  0  0
   11.7477   44.4634   65.0121 H   0  0  0  0  0  0
   12.0400   43.0160   64.1068 H   0  0  0  0  0  0
   14.0525   44.5834   64.7400 H   0  0  0  0  0  0
   14.2887   42.8487   64.8774 H   0  0  0  0  0  0
   13.9767   43.8160   66.3227 H   0  0  0  0  0  0
  1  6  1  0  0  0
  1  2  2  0  0  0
  1 24  1  0  0  0
  2  3  1  0  0  0
  2 25  1  0  0  0
  3  4  2  0  0  0
  3 26  1  0  0  0
  4  5  1  0  0  0
  4 27  1  0  0  0
  5  6  2  0  0  0
  5  7  1  0  0  0
  6 28  1  0  0  0
  7  8  1  0  0  0
  7 29  1  0  0  0
  7 30  1  0  0  0
  8  9  1  0  0  0
  9 14  1  0  0  0
  9 10  2  0  0  0
 10 11  1  0  0  0
 10 31  1  0  0  0
 11 12  2  0  0  0
 11 32  1  0  0  0
 12 13  1  0  0  0
 12 15  1  0  0  0
 13 14  2  0  0  0
 13 33  1  0  0  0
 14 34  1  0  0  0
 15 16  1  0  0  0
 15 35  1  0  0  0
 16 17  1  0  0  0
 16 18  2  0  0  0
 17 19  1  0  0  0
 17 20  1  0  0  0
 17 36  1  0  0  0
 19 37  1  0  0  0
 19 38  1  0  0  0
 20 21  1  0  0  0
 20 22  1  0  0  0
 20 39  1  0  0  0
 21 40  1  0  0  0
 21 41  1  0  0  0
 21 42  1  0  0  0
 22 23  1  0  0  0
 22 43  1  0  0  0
 22 44  1  0  0  0
 23 45  1  0  0  0
 23 46  1  0  0  0
 23 47  1  0  0  0
M  END
> <s_m_entry_id>
6720

> <s_m_entry_name>
dock_pv.150

> <s_m_Source_Path>
/home/csk/Desktop/cluster/DUD-E-result/lkha4

> <s_m_Source_File>
dock_pv.maegz

> <i_m_Source_File_Index>
150

> <chembl_id>
CHEMBL505728

> <chembl_pref_name>
None

> <i_lp_mmshare_version>
53161

> <i_f3d_flags>
0

> <r_lp_tautomer_probability>
1

> <s_lp_Force_Field>
OPLS_2005

> <r_lp_Energy>
30.457994

> <b_lp_Chiralities_Consistent>
1

> <s_lp_Variant>
CHEMBL4618_lig177-1

> <s_i_glide_gridfile>
glide-grid_3chp

> <i_i_glide_lignum>
204

> <i_i_glide_rotatable_bonds>
8

> <r_i_docking_score>
-9.6778363044561

> <r_i_glide_ligand_efficiency>
-0.420775491498091

> <r_i_glide_ligand_efficiency_sa>
-1.19662952495156

> <r_i_glide_ligand_efficiency_ln>
-2.34018857218537

> <r_i_glide_gscore>
-9.6778363044561

> <r_i_glide_lipo>
-5.29272378291797

> <r_i_glide_hbond>
-0.492707411850316

> <r_i_glide_metal>
0

> <r_i_glide_rewards>
-1.86430804043923

> <r_i_glide_evdw>
-46.8151741027832

> <r_i_glide_ecoul>
-6.78977203369141

> <r_i_glide_erotb>
1.33112744094429

> <r_i_glide_esite>
0

> <r_i_glide_emodel>
-78.9906357615638

> <r_i_glide_energy>
-53.6049461364746

> <r_i_glide_einternal>
5.46996784210205

> <i_i_glide_confnum>
1

> <i_i_glide_posenum>
266

> <r_i_glide_eff_state_penalty>
0

> <s_user_duplicate_titles>
CHEMBL4618_lig177

> <s_m_subgroup_title>
dock_pv

> <s_m_subgroupid>
dock_pv

> <b_m_subgroup_collapsed>
1

$$$$
CHEMBL4618_lig321
                    3D
 Schrodinger Suite 2021-1.
 65 69  0  0  1  0            999 V2000
   19.4180   43.2221   67.3648 C   0  0  0  0  0  0
   18.7054   43.2515   68.5694 C   0  0  0  0  0  0
   19.1798   42.5621   69.6810 C   0  0  0  0  0  0
   20.3740   41.8339   69.6140 C   0  0  0  0  0  0
   21.0818   41.8006   68.4021 C   0  0  0  0  0  0
   20.6068   42.4920   67.2901 C   0  0  0  0  0  0
   20.8570   41.0573   70.8193 C   0  0  0  0  0  0
   22.1427   40.6153   70.7389 O   0  0  0  0  0  0
   20.1415   40.8494   71.7993 O   0  0  0  0  0  0
   16.5213   43.2515   65.9065 N   0  0  1  0  0  0
   17.4634   44.3781   66.0248 C   0  0  0  0  0  0
    8.4193   37.9007   70.3587 C   0  0  0  0  0  0
    8.1215   37.4276   69.0730 C   0  0  0  0  0  0
    8.0122   38.3226   68.0041 C   0  0  0  0  0  0
    8.1840   39.6930   68.2192 C   0  0  0  0  0  0
    8.4143   40.1626   69.4970 C   0  0  0  0  0  0
    8.5211   39.2749   70.5573 C   0  0  0  0  0  0
    8.1284   40.6041   67.1829 O   0  0  0  0  0  0
    9.2709   41.2822   66.8107 C   0  0  0  0  0  0
   10.4900   40.6181   66.7398 C   0  0  0  0  0  0
   11.6378   41.2807   66.3313 C   0  0  0  0  0  0
   11.5832   42.6254   65.9574 C   0  0  0  0  0  0
   10.3470   43.2737   65.9689 C   0  0  0  0  0  0
    9.1995   42.6155   66.4127 C   0  0  0  0  0  0
   12.7280   43.3629   65.5901 N   0  0  0  0  0  0
    8.7167   37.0018   71.5242 C   0  0  0  0  0  0
    8.9318   37.5725   72.7398 O   0  0  0  0  0  0
    9.3180   36.5478   73.5288 C   0  0  0  0  0  0
    9.3212   35.4161   72.7388 C   0  0  0  0  0  0
    8.9133   35.7004   71.5166 N   0  0  0  0  0  0
   14.3283   42.0456   64.2903 C   0  0  0  0  0  0
   14.0632   42.7534   65.6267 C   0  0  1  0  0  0
   15.1506   43.8082   65.8951 C   0  0  0  0  0  0
   16.8140   42.4645   64.6936 C   0  0  0  0  0  0
   15.7259   41.4238   64.3491 C   0  0  0  0  0  0
   18.9685   44.0184   66.1392 C   0  0  0  0  0  0
   17.7803   43.7975   68.6511 H   0  0  0  0  0  0
   18.6008   42.5914   70.5948 H   0  0  0  0  0  0
   21.9992   41.2375   68.3024 H   0  0  0  0  0  0
   21.1710   42.4569   66.3676 H   0  0  0  0  0  0
   22.3543   40.0259   71.4793 H   0  0  0  0  0  0
   17.1901   45.0135   66.8672 H   0  0  0  0  0  0
   17.3463   45.0158   65.1460 H   0  0  0  0  0  0
    8.0360   36.3668   68.8950 H   0  0  0  0  0  0
    7.8229   37.9575   67.0075 H   0  0  0  0  0  0
    8.5095   41.2253   69.6447 H   0  0  0  0  0  0
    8.7045   39.6755   71.5398 H   0  0  0  0  0  0
   10.5202   39.5713   66.9784 H   0  0  0  0  0  0
   12.5497   40.7096   66.2828 H   0  0  0  0  0  0
   10.2673   44.2949   65.6456 H   0  0  0  0  0  0
    8.2511   43.1336   66.4350 H   0  0  0  0  0  0
   12.6802   44.3411   65.8438 H   0  0  0  0  0  0
    9.5482   36.7687   74.5629 H   0  0  0  0  0  0
    9.5806   34.4125   73.0446 H   0  0  0  0  0  0
   14.2638   42.7498   63.4578 H   0  0  0  0  0  0
   13.5871   41.2697   64.0962 H   0  0  0  0  0  0
   14.1148   42.0039   66.4020 H   0  0  0  0  0  0
   14.9618   44.2915   66.8532 H   0  0  0  0  0  0
   15.0731   44.5844   65.1401 H   0  0  0  0  0  0
   16.9192   43.1454   63.8452 H   0  0  0  0  0  0
   17.7813   41.9750   64.7968 H   0  0  0  0  0  0
   15.9660   40.9847   63.3825 H   0  0  0  0  0  0
   15.7210   40.6196   65.0814 H   0  0  0  0  0  0
   19.5357   44.9476   66.1562 H   0  0  0  0  0  0
   19.2967   43.5181   65.2264 H   0  0  0  0  0  0
  1  6  1  0  0  0
  1  2  2  0  0  0
  1 36  1  0  0  0
  2  3  1  0  0  0
  2 37  1  0  0  0
  3  4  2  0  0  0
  3 38  1  0  0  0
  4  5  1  0  0  0
  4  7  1  0  0  0
  5  6  2  0  0  0
  5 39  1  0  0  0
  6 40  1  0  0  0
  7  9  2  0  0  0
  7  8  1  0  0  0
  8 41  1  0  0  0
 10 11  1  0  0  0
 10 33  1  0  0  0
 10 34  1  0  0  0
 11 36  1  0  0  0
 11 42  1  0  0  0
 11 43  1  0  0  0
 12 13  2  0  0  0
 12 26  1  0  0  0
 12 17  1  0  0  0
 13 14  1  0  0  0
 13 44  1  0  0  0
 14 15  2  0  0  0
 14 45  1  0  0  0
 15 16  1  0  0  0
 15 18  1  0  0  0
 16 17  2  0  0  0
 16 46  1  0  0  0
 17 47  1  0  0  0
 18 19  1  0  0  0
 19 20  2  0  0  0
 19 24  1  0  0  0
 20 21  1  0  0  0
 20 48  1  0  0  0
 21 22  2  0  0  0
 21 49  1  0  0  0
 22 23  1  0  0  0
 22 25  1  0  0  0
 23 24  2  0  0  0
 23 50  1  0  0  0
 24 51  1  0  0  0
 25 32  1  0  0  0
 25 52  1  0  0  0
 26 27  1  0  0  0
 26 30  2  0  0  0
 27 28  1  0  0  0
 28 29  2  0  0  0
 28 53  1  0  0  0
 29 30  1  0  0  0
 29 54  1  0  0  0
 31 32  1  0  0  0
 31 35  1  0  0  0
 31 55  1  0  0  0
 31 56  1  0  0  0
 32 33  1  0  0  0
 32 57  1  0  0  0
 33 58  1  0  0  0
 33 59  1  0  0  0
 34 35  1  0  0  0
 34 60  1  0  0  0
 34 61  1  0  0  0
 35 62  1  0  0  0
 35 63  1  0  0  0
 36 64  1  0  0  0
 36 65  1  0  0  0
M  END
> <s_m_entry_id>
6721

> <s_m_entry_name>
dock_pv.151

> <s_m_Source_Path>
/home/csk/Desktop/cluster/DUD-E-result/lkha4

> <s_m_Source_File>
dock_pv.maegz

> <i_m_Source_File_Index>
151

> <chembl_id>
CHEMBL516603

> <chembl_pref_name>
None

> <i_lp_mmshare_version>
53161

> <i_f3d_flags>
0

> <r_lp_tautomer_probability>
1

> <s_lp_Force_Field>
OPLS_2005

> <r_lp_Energy>
37.767595

> <b_lp_Chiralities_Consistent>
1

> <s_lp_Variant>
CHEMBL4618_lig321-2

> <s_i_glide_gridfile>
glide-grid_3chp

> <i_i_glide_lignum>
362

> <i_i_glide_rotatable_bonds>
10

> <r_i_docking_score>
-9.67444700432862

> <r_i_glide_ligand_efficiency>
-0.268734639009128

> <r_i_glide_ligand_efficiency_sa>
-0.887342226206166

> <r_i_glide_ligand_efficiency_ln>
-2.11070296299186

> <r_i_glide_gscore>
-9.67444700432862

> <r_i_glide_lipo>
-5.00189750140139

> <r_i_glide_hbond>
-0.0981888811714686

> <r_i_glide_metal>
0

> <r_i_glide_rewards>
-0.945436072328262

> <r_i_glide_evdw>
-60.8208084106445

> <r_i_glide_ecoul>
-9.128586769104

> <r_i_glide_erotb>
0.781403886470326

> <r_i_glide_esite>
0

> <r_i_glide_emodel>
-91.7887362315835

> <r_i_glide_energy>
-69.9493951797485

> <r_i_glide_einternal>
22.8368225097656

> <i_i_glide_confnum>
40

> <i_i_glide_posenum>
94

> <r_i_glide_eff_state_penalty>
0

> <s_user_duplicate_titles>
CHEMBL4618_lig321,467398

> <s_m_subgroup_title>
dock_pv

> <s_m_subgroupid>
dock_pv

> <b_m_subgroup_collapsed>
1

$$$$
CHEMBL4618_lig204
                    3D
 Schrodinger Suite 2021-1.
 49 50  0  0  1  0            999 V2000
    8.5427   40.8246   68.0604 C   0  0  0  0  0  0
    9.5877   40.1199   67.4631 C   0  0  0  0  0  0
   10.5209   40.7783   66.6828 C   0  0  0  0  0  0
   10.4425   42.1587   66.4764 C   0  0  0  0  0  0
    9.3358   42.8463   66.9807 C   0  0  0  0  0  0
    8.3987   42.1857   67.7809 C   0  0  0  0  0  0
   11.4311   42.8863   65.7733 N   0  0  0  0  0  0
   12.7139   42.5121   65.5400 C   0  0  0  0  0  0
   13.2157   41.4623   65.9397 O   0  0  0  0  0  0
   13.6078   43.4641   64.7303 C   0  0  0  0  0  0
   15.0335   43.6056   65.3349 C   0  0  0  0  0  0
   16.1585   42.6723   64.7961 C   0  0  2  0  0  0
   15.7550   41.2514   64.6546 N   0  0  0  0  0  0
    7.6341   40.2173   68.9025 O   0  0  0  0  0  0
    7.9418   39.0221   69.5180 C   0  0  0  0  0  0
    8.5210   39.0160   70.7861 C   0  0  0  0  0  0
    8.7868   37.8208   71.4466 C   0  0  0  0  0  0
    8.4861   36.6198   70.8161 C   0  0  0  0  0  0
    7.9302   36.6198   69.5400 C   0  0  0  0  0  0
    7.6511   37.8160   68.8878 C   0  0  0  0  0  0
   17.4181   42.7958   65.7021 C   0  0  0  0  0  0
   17.3210   42.6160   66.9121 O   0  0  0  0  0  0
   18.5825   43.1353   65.1400 N   0  0  0  0  0  0
   19.8683   43.2473   65.8314 C   0  0  0  0  0  0
   20.1333   44.6159   66.4956 C   0  0  0  0  0  0
   19.1294   44.9489   67.4378 O   0  0  0  0  0  0
    9.7063   39.0574   67.6119 H   0  0  0  0  0  0
   11.3004   40.1870   66.2354 H   0  0  0  0  0  0
    9.2101   43.9003   66.7848 H   0  0  0  0  0  0
    7.5681   42.7347   68.2022 H   0  0  0  0  0  0
   11.1737   43.8246   65.5117 H   0  0  0  0  0  0
   13.1333   44.4462   64.7015 H   0  0  0  0  0  0
   13.6591   43.1059   63.7008 H   0  0  0  0  0  0
   14.9652   43.5411   66.4244 H   0  0  0  0  0  0
   15.3708   44.6160   65.1400 H   0  0  0  0  0  0
   16.4452   43.0160   63.8008 H   0  0  0  0  0  0
   14.9210   41.1249   65.2402 H   0  0  0  0  0  0
   15.3336   41.2004   63.7234 H   0  0  0  0  0  0
    8.7157   39.9456   71.2811 H   0  0  0  0  0  0
    9.2110   37.8273   72.4403 H   0  0  0  0  0  0
    8.6854   35.6814   71.3130 H   0  0  0  0  0  0
    7.7210   35.6887   69.0478 H   0  0  0  0  0  0
    7.2083   37.8118   67.9024 H   0  0  0  0  0  0
   18.6018   43.2697   64.1250 H   0  0  0  0  0  0
   20.6405   43.0802   65.0783 H   0  0  0  0  0  0
   20.0137   42.4370   66.5497 H   0  0  0  0  0  0
   20.0864   45.3960   65.7347 H   0  0  0  0  0  0
   21.1211   44.6544   66.9560 H   0  0  0  0  0  0
   18.4494   44.2623   67.3896 H   0  0  0  0  0  0
  1  2  2  0  0  0
  1 14  1  0  0  0
  1  6  1  0  0  0
  2  3  1  0  0  0
  2 27  1  0  0  0
  3  4  2  0  0  0
  3 28  1  0  0  0
  4  7  1  0  0  0
  4  5  1  0  0  0
  5  6  2  0  0  0
  5 29  1  0  0  0
  6 30  1  0  0  0
  7  8  1  0  0  0
  7 31  1  0  0  0
  8  9  2  0  0  0
  8 10  1  0  0  0
 10 11  1  0  0  0
 10 32  1  0  0  0
 10 33  1  0  0  0
 11 12  1  0  0  0
 11 34  1  0  0  0
 11 35  1  0  0  0
 12 13  1  0  0  0
 12 21  1  0  0  0
 12 36  1  0  0  0
 13 37  1  0  0  0
 13 38  1  0  0  0
 14 15  1  0  0  0
 15 16  2  0  0  0
 15 20  1  0  0  0
 16 17  1  0  0  0
 16 39  1  0  0  0
 17 18  2  0  0  0
 17 40  1  0  0  0
 18 19  1  0  0  0
 18 41  1  0  0  0
 19 20  2  0  0  0
 19 42  1  0  0  0
 20 43  1  0  0  0
 21 22  2  0  0  0
 21 23  1  0  0  0
 23 24  1  0  0  0
 23 44  1  0  0  0
 24 25  1  0  0  0
 24 45  1  0  0  0
 24 46  1  0  0  0
 25 26  1  0  0  0
 25 47  1  0  0  0
 25 48  1  0  0  0
 26 49  1  0  0  0
M  END
> <s_m_entry_id>
6722

> <s_m_entry_name>
dock_pv.152

> <s_m_Source_Path>
/home/csk/Desktop/cluster/DUD-E-result/lkha4

> <s_m_Source_File>
dock_pv.maegz

> <i_m_Source_File_Index>
152

> <chembl_id>
CHEMBL517048

> <chembl_pref_name>
None

> <i_lp_mmshare_version>
53161

> <i_f3d_flags>
0

> <r_lp_tautomer_probability>
1

> <s_lp_Force_Field>
OPLS_2005

> <r_lp_Energy>
20.813447

> <b_lp_Chiralities_Consistent>
1

> <s_lp_Variant>
CHEMBL4618_lig204-1

> <s_i_glide_gridfile>
glide-grid_3chp

> <i_i_glide_lignum>
232

> <i_i_glide_rotatable_bonds>
12

> <r_i_docking_score>
-9.67403028560267

> <r_i_glide_ligand_efficiency>
-0.372078087907795

> <r_i_glide_ligand_efficiency_sa>
-1.10227987137026

> <r_i_glide_ligand_efficiency_ln>
-2.27191426949134

> <r_i_glide_gscore>
-9.67403028560267

> <r_i_glide_lipo>
-4.00152573900877

> <r_i_glide_hbond>
-0.447725028939989

> <r_i_glide_metal>
0

> <r_i_glide_rewards>
-1.46858235881569

> <r_i_glide_evdw>
-45.2509384155273

> <r_i_glide_ecoul>
-19.6146202087402

> <r_i_glide_erotb>
1.64854279324918

> <r_i_glide_esite>
-0.2

> <r_i_glide_emodel>
-105.310960023916

> <r_i_glide_energy>
-64.8655586242676

> <r_i_glide_einternal>
8.2645320892334

> <i_i_glide_confnum>
153

> <i_i_glide_posenum>
283

> <r_i_glide_eff_state_penalty>
0

> <s_user_duplicate_titles>
CHEMBL4618_lig204,507045

> <s_m_subgroup_title>
dock_pv

> <s_m_subgroupid>
dock_pv

> <b_m_subgroup_collapsed>
1

$$$$
CHEMBL4618_lig451
                    3D
 Schrodinger Suite 2021-1.
 45 49  0  0  1  0            999 V2000
    7.8835   37.0076   69.4701 O   0  0  0  0  0  0
    9.0905   37.9029   71.7917 S   0  0  0  0  0  0
    8.4082   36.6940   70.7153 C   0  0  0  0  0  0
    8.5212   35.4712   71.1400 N   0  0  0  0  0  0
    9.3479   35.3871   72.2110 C   0  0  0  0  0  0
    9.7212   36.6167   72.7970 C   0  0  0  0  0  0
    9.8060   34.2159   72.6444 N   0  0  0  0  0  0
   10.5862   34.2328   73.7559 C   0  0  0  0  0  0
   10.9208   35.3907   74.4570 C   0  0  0  0  0  0
   10.5101   36.6284   73.9587 C   0  0  0  0  0  0
    9.0093   39.4160   66.8991 C   0  0  0  0  0  0
    8.6706   38.2293   67.5640 C   0  0  0  0  0  0
    8.0972   38.2155   68.8338 C   0  0  0  0  0  0
    7.7210   39.4173   69.4079 C   0  0  0  0  0  0
    8.9085   42.0439   67.2254 C   0  0  0  0  0  0
    8.7173   40.6448   67.5131 C   0  0  0  0  0  0
    8.0353   40.6028   68.7436 C   0  0  0  0  0  0
    7.7229   41.8481   69.1717 O   0  0  0  0  0  0
    8.2492   42.6954   68.2545 C   0  0  0  0  0  0
    9.6074   42.7043   66.0585 C   0  0  0  0  0  0
   11.0737   42.7799   66.1412 N   0  0  0  0  0  0
   11.7191   41.4588   66.2392 C   0  0  0  0  0  0
   13.2443   41.4837   65.9995 C   0  0  0  0  0  0
   13.6645   42.2487   64.7428 C   0  0  0  0  0  0
   13.0678   43.6516   64.8265 C   0  0  0  0  0  0
   11.5406   43.6074   65.0128 C   0  0  0  0  0  0
   10.9280   33.2674   74.1017 H   0  0  0  0  0  0
   11.5217   35.3304   75.3534 H   0  0  0  0  0  0
   10.8020   37.5505   74.4380 H   0  0  0  0  0  0
    9.5034   39.3743   65.9401 H   0  0  0  0  0  0
    8.9210   37.2877   67.1075 H   0  0  0  0  0  0
    7.1965   39.4160   70.3400 H   0  0  0  0  0  0
    8.0728   43.7441   68.4527 H   0  0  0  0  0  0
    9.2443   43.7323   65.9888 H   0  0  0  0  0  0
    9.3169   42.2160   65.1399 H   0  0  0  0  0  0
   11.2751   40.7760   65.5254 H   0  0  0  0  0  0
   11.4868   41.0261   67.2109 H   0  0  0  0  0  0
   13.6168   40.4616   65.9407 H   0  0  0  0  0  0
   13.7204   41.9297   66.8695 H   0  0  0  0  0  0
   14.7511   42.3043   64.6691 H   0  0  0  0  0  0
   13.3208   41.7380   63.8426 H   0  0  0  0  0  0
   13.5208   44.2160   65.6408 H   0  0  0  0  0  0
   13.3100   44.2067   63.9191 H   0  0  0  0  0  0
   11.1029   43.2276   64.0886 H   0  0  0  0  0  0
   11.1518   44.6160   65.1400 H   0  0  0  0  0  0
  1  3  1  0  0  0
  1 13  1  0  0  0
  2  3  1  0  0  0
  2  6  1  0  0  0
  3  4  2  0  0  0
  4  5  1  0  0  0
  5  6  1  0  0  0
  5  7  2  0  0  0
  6 10  2  0  0  0
  7  8  1  0  0  0
  8  9  2  0  0  0
  8 27  1  0  0  0
  9 10  1  0  0  0
  9 28  1  0  0  0
 10 29  1  0  0  0
 11 16  2  0  0  0
 11 12  1  0  0  0
 11 30  1  0  0  0
 12 13  2  0  0  0
 12 31  1  0  0  0
 13 14  1  0  0  0
 14 17  2  0  0  0
 14 32  1  0  0  0
 15 16  1  0  0  0
 15 19  2  0  0  0
 15 20  1  0  0  0
 16 17  1  0  0  0
 17 18  1  0  0  0
 18 19  1  0  0  0
 19 33  1  0  0  0
 20 21  1  0  0  0
 20 34  1  0  0  0
 20 35  1  0  0  0
 21 22  1  0  0  0
 21 26  1  0  0  0
 22 23  1  0  0  0
 22 36  1  0  0  0
 22 37  1  0  0  0
 23 24  1  0  0  0
 23 38  1  0  0  0
 23 39  1  0  0  0
 24 25  1  0  0  0
 24 40  1  0  0  0
 24 41  1  0  0  0
 25 26  1  0  0  0
 25 42  1  0  0  0
 25 43  1  0  0  0
 26 44  1  0  0  0
 26 45  1  0  0  0
M  END
> <s_m_entry_id>
6723

> <s_m_entry_name>
dock_pv.153

> <s_m_Source_Path>
/home/csk/Desktop/cluster/DUD-E-result/lkha4

> <s_m_Source_File>
dock_pv.maegz

> <i_m_Source_File_Index>
153

> <chembl_id>
CHEMBL2313563

> <chembl_pref_name>
None

> <i_lp_mmshare_version>
53161

> <i_f3d_flags>
0

> <r_lp_tautomer_probability>
1

> <s_lp_Force_Field>
OPLS_2005

> <r_lp_Energy>
23.545396

> <b_lp_Chiralities_Consistent>
1

> <s_lp_Variant>
CHEMBL4618_lig451-1

> <s_i_glide_gridfile>
glide-grid_3chp

> <i_i_glide_lignum>
527

> <i_i_glide_rotatable_bonds>
4

> <r_i_docking_score>
-9.67155408367562

> <r_i_glide_ligand_efficiency>
-0.371982849372139

> <r_i_glide_ligand_efficiency_sa>
-1.10199772758313

> <r_i_glide_ligand_efficiency_ln>
-2.27133274159385

> <r_i_glide_gscore>
-9.67155408367562

> <r_i_glide_lipo>
-5.70336262640968

> <r_i_glide_hbond>
0

> <r_i_glide_metal>
0

> <r_i_glide_rewards>
-1.817388

> <r_i_glide_evdw>
-46.6812858581543

> <r_i_glide_ecoul>
-2.61917281150818

> <r_i_glide_erotb>
0.576136757368001

> <r_i_glide_esite>
0

> <r_i_glide_emodel>
-68.8160265052042

> <r_i_glide_energy>
-49.3004586696625

> <r_i_glide_einternal>
3.14596772193909

> <i_i_glide_confnum>
116

> <i_i_glide_posenum>
376

> <r_i_glide_eff_state_penalty>
0

> <s_user_duplicate_titles>
CHEMBL4618_lig451

> <s_m_subgroup_title>
dock_pv

> <s_m_subgroupid>
dock_pv

> <b_m_subgroup_collapsed>
1

$$$$
CHEMBL4618_lig355
                    3D
 Schrodinger Suite 2021-1.
 52 55  0  0  1  0            999 V2000
    9.6379   37.7249   71.9314 C   0  0  0  0  0  0
    9.3642   36.3794   72.1585 C   0  0  0  0  0  0
    8.5185   35.7106   71.2897 C   0  0  0  0  0  0
    7.9520   36.3814   70.2120 C   0  0  0  0  0  0
    8.2090   37.7282   69.9888 C   0  0  0  0  0  0
    9.0590   38.4046   70.8718 C   0  0  0  0  0  0
    7.6196   38.3111   68.8856 O   0  0  0  0  0  0
    8.1339   39.4774   68.3789 C   0  0  0  0  0  0
    8.9186   39.4361   67.2323 C   0  0  0  0  0  0
    9.5142   40.6045   66.7717 C   0  0  0  0  0  0
    9.3146   41.8191   67.4491 C   0  0  0  0  0  0
    8.4956   41.8546   68.5697 C   0  0  0  0  0  0
    7.9061   40.6883   69.0284 C   0  0  0  0  0  0
    9.9180   43.0085   67.1156 O   0  0  0  0  0  0
   10.3096   43.2233   65.7733 C   0  0  0  0  0  0
   11.8384   43.2190   65.6151 C   0  0  1  0  0  0
   12.5000   41.8311   65.8145 C   0  0  0  0  0  0
   13.9998   41.8290   65.5057 C   0  0  0  0  0  0
   14.2360   42.4201   64.1153 C   0  0  0  0  0  0
   13.6210   43.8166   64.0131 C   0  0  0  0  0  0
   12.2044   43.8178   64.3386 N   0  0  2  0  0  0
   10.0283   35.6910   73.2821 C   0  0  0  0  0  0
   10.2422   36.4093   74.4531 C   0  0  0  0  0  0
   10.9856   35.8839   75.4821 C   0  0  0  0  0  0
   11.5292   34.6161   75.3466 C   0  0  0  0  0  0
   11.3179   33.8647   74.1948 C   0  0  0  0  0  0
   10.5269   34.3882   73.1713 C   0  0  0  0  0  0
   10.3506   38.2160   72.5676 H   0  0  0  0  0  0
    8.2953   34.6661   71.4483 H   0  0  0  0  0  0
    7.3210   35.8249   69.5401 H   0  0  0  0  0  0
    9.3160   39.4412   70.7375 H   0  0  0  0  0  0
    9.0972   38.4961   66.7293 H   0  0  0  0  0  0
   10.1612   40.5308   65.9223 H   0  0  0  0  0  0
    8.3341   42.7850   69.0950 H   0  0  0  0  0  0
    7.3268   40.7104   69.9329 H   0  0  0  0  0  0
    9.9229   44.2119   65.5223 H   0  0  0  0  0  0
    9.8339   42.5477   65.0664 H   0  0  0  0  0  0
   12.2474   43.9035   66.3588 H   0  0  0  0  0  0
   12.0589   41.1047   65.1409 H   0  0  0  0  0  0
   12.3210   41.4710   66.8234 H   0  0  0  0  0  0
   14.3851   40.8104   65.5371 H   0  0  0  0  0  0
   14.5227   42.4238   66.2540 H   0  0  0  0  0  0
   13.8050   41.7866   63.3393 H   0  0  0  0  0  0
   15.3034   42.4760   63.8964 H   0  0  0  0  0  0
   13.7195   44.2025   62.9987 H   0  0  0  0  0  0
   14.1214   44.5086   64.6928 H   0  0  0  0  0  0
   11.9068   44.7817   64.3536 H   0  0  0  0  0  0
    9.8733   37.4129   74.5486 H   0  0  0  0  0  0
   11.1779   36.4983   76.3400 H   0  0  0  0  0  0
   12.1206   34.2128   76.1522 H   0  0  0  0  0  0
   11.7473   32.8799   74.1079 H   0  0  0  0  0  0
   10.3753   33.8116   72.2706 H   0  0  0  0  0  0
  1  2  2  0  0  0
  1  6  1  0  0  0
  1 28  1  0  0  0
  2  3  1  0  0  0
  2 22  1  0  0  0
  3  4  2  0  0  0
  3 29  1  0  0  0
  4  5  1  0  0  0
  4 30  1  0  0  0
  5  7  1  0  0  0
  5  6  2  0  0  0
  6 31  1  0  0  0
  7  8  1  0  0  0
  8 13  1  0  0  0
  8  9  2  0  0  0
  9 10  1  0  0  0
  9 32  1  0  0  0
 10 11  2  0  0  0
 10 33  1  0  0  0
 11 14  1  0  0  0
 11 12  1  0  0  0
 12 13  2  0  0  0
 12 34  1  0  0  0
 13 35  1  0  0  0
 14 15  1  0  0  0
 15 16  1  0  0  0
 15 36  1  0  0  0
 15 37  1  0  0  0
 16 17  1  0  0  0
 16 21  1  0  0  0
 16 38  1  0  0  0
 17 18  1  0  0  0
 17 39  1  0  0  0
 17 40  1  0  0  0
 18 19  1  0  0  0
 18 41  1  0  0  0
 18 42  1  0  0  0
 19 20  1  0  0  0
 19 43  1  0  0  0
 19 44  1  0  0  0
 20 21  1  0  0  0
 20 45  1  0  0  0
 20 46  1  0  0  0
 21 47  1  0  0  0
 22 23  2  0  0  0
 22 27  1  0  0  0
 23 24  1  0  0  0
 23 48  1  0  0  0
 24 25  2  0  0  0
 24 49  1  0  0  0
 25 26  1  0  0  0
 25 50  1  0  0  0
 26 27  2  0  0  0
 26 51  1  0  0  0
 27 52  1  0  0  0
M  END
> <s_m_entry_id>
6724

> <s_m_entry_name>
dock_pv.154

> <s_m_Source_Path>
/home/csk/Desktop/cluster/DUD-E-result/lkha4

> <s_m_Source_File>
dock_pv.maegz

> <i_m_Source_File_Index>
154

> <chembl_id>
CHEMBL1095880

> <chembl_pref_name>
None

> <i_lp_mmshare_version>
53161

> <i_f3d_flags>
0

> <r_lp_tautomer_probability>
1

> <s_lp_Force_Field>
OPLS_2005

> <r_lp_Energy>
36.67357

> <b_lp_Chiralities_Consistent>
1

> <s_lp_Variant>
CHEMBL4618_lig355-1

> <s_i_glide_gridfile>
glide-grid_3chp

> <i_i_glide_lignum>
401

> <i_i_glide_rotatable_bonds>
6

> <r_i_docking_score>
-9.66710235255768

> <r_i_glide_ligand_efficiency>
-0.358040827872507

> <r_i_glide_ligand_efficiency_sa>
-1.07412248243748

> <r_i_glide_ligand_efficiency_ln>
-2.25034205303734

> <r_i_glide_gscore>
-9.66710235255768

> <r_i_glide_lipo>
-5.71335264328038

> <r_i_glide_hbond>
-0.0609818198041956

> <r_i_glide_metal>
0

> <r_i_glide_rewards>
-2.15410678025099

> <r_i_glide_evdw>
-40.415943145752

> <r_i_glide_ecoul>
-4.05279970169067

> <r_i_glide_erotb>
0.89005600331908

> <r_i_glide_esite>
0

> <r_i_glide_emodel>
-59.2723959569592

> <r_i_glide_energy>
-44.4687428474426

> <r_i_glide_einternal>
9.36876010894775

> <i_i_glide_confnum>
30

> <i_i_glide_posenum>
181

> <r_i_glide_eff_state_penalty>
0

> <s_user_duplicate_titles>
CHEMBL4618_lig355,627413

> <s_m_subgroup_title>
dock_pv

> <s_m_subgroupid>
dock_pv

> <b_m_subgroup_collapsed>
1

$$$$
CHEMBL4618_lig244
                    3D
 Schrodinger Suite 2021-1.
 65 67  0  0  1  0            999 V2000
    8.2629   37.2878   70.3875 C   0  0  0  0  0  0
    8.4335   38.5888   70.8475 C   0  0  0  0  0  0
    8.5210   39.6347   69.9400 C   0  0  0  0  0  0
    8.4737   39.4196   68.5637 C   0  0  0  0  0  0
    8.2476   38.1230   68.1046 C   0  0  0  0  0  0
    8.1210   37.0721   69.0162 C   0  0  0  0  0  0
    8.7067   40.4318   67.6082 N   0  0  0  0  0  0
    8.8438   41.7712   67.7821 C   0  0  0  0  0  0
    9.4621   42.5740   66.6128 C   0  0  0  0  0  0
    8.5603   42.3735   68.8165 O   0  0  0  0  0  0
   10.8972   42.3064   66.4164 N   0  0  1  0  0  0
    8.1198   36.2159   71.2396 O   0  0  0  0  0  0
    9.0926   35.8164   72.1259 C   0  0  0  0  0  0
    9.6107   34.5307   71.9697 C   0  0  0  0  0  0
   10.5203   34.0169   72.8914 C   0  0  0  0  0  0
   10.8812   34.7837   73.9942 C   0  0  0  0  0  0
   10.3568   36.0620   74.1729 C   0  0  0  0  0  0
    9.4601   36.5784   73.2401 C   0  0  0  0  0  0
   11.2310   40.9223   66.0808 C   0  0  0  0  0  0
   11.5688   43.3787   65.6605 C   0  0  0  0  0  0
   12.9381   43.1097   64.9894 C   0  0  0  0  0  0
   14.0885   42.5257   65.8659 C   0  0  0  0  0  0
   15.2971   42.0664   65.1400 N   0  0  2  0  0  0
   16.2052   43.1694   64.8256 C   0  0  0  0  0  0
   14.9638   41.3189   63.9400 C   0  0  0  0  0  0
   17.3095   43.3539   65.8578 C   0  0  0  0  0  0
   17.0986   44.1136   67.0095 C   0  0  0  0  0  0
   18.1463   44.3265   67.9030 C   0  0  0  0  0  0
   19.4159   43.7820   67.6572 C   0  0  0  0  0  0
   19.6158   43.0161   66.4995 C   0  0  0  0  0  0
   18.5666   42.8040   65.6128 C   0  0  0  0  0  0
   20.5533   44.0735   68.6047 C   0  0  0  0  0  0
   21.6117   43.2197   68.5184 O   0  0  0  0  0  0
   20.5211   45.0158   69.3967 O   0  0  0  0  0  0
   11.7218   34.2691   74.9154 F   0  0  0  0  0  0
    8.4553   38.8193   71.8985 H   0  0  0  0  0  0
    8.6204   40.6160   70.3400 H   0  0  0  0  0  0
    8.1860   37.9165   67.0464 H   0  0  0  0  0  0
    7.9237   36.0765   68.6588 H   0  0  0  0  0  0
    8.8938   40.0897   66.6793 H   0  0  0  0  0  0
    8.9066   42.3538   65.7005 H   0  0  0  0  0  0
    9.2892   43.6351   66.8040 H   0  0  0  0  0  0
    9.2511   33.9073   71.1647 H   0  0  0  0  0  0
   10.9075   33.0137   72.7822 H   0  0  0  0  0  0
   10.6217   36.6394   75.0465 H   0  0  0  0  0  0
    9.0195   37.5422   73.4300 H   0  0  0  0  0  0
   12.1427   40.7709   65.5099 H   0  0  0  0  0  0
   11.3209   40.3716   67.0127 H   0  0  0  0  0  0
   10.4207   40.4511   65.5400 H   0  0  0  0  0  0
   10.8878   43.7131   64.8756 H   0  0  0  0  0  0
   11.6903   44.2159   66.3399 H   0  0  0  0  0  0
   12.7754   42.5899   64.0488 H   0  0  0  0  0  0
   13.2781   44.0938   64.6641 H   0  0  0  0  0  0
   14.3735   43.2784   66.6014 H   0  0  0  0  0  0
   13.7209   41.7139   66.4885 H   0  0  0  0  0  0
   16.6925   43.0161   63.8591 H   0  0  0  0  0  0
   15.6343   44.0890   64.7401 H   0  0  0  0  0  0
   15.8411   40.8216   63.5353 H   0  0  0  0  0  0
   14.1961   40.5664   64.1235 H   0  0  0  0  0  0
   14.6057   41.9993   63.1643 H   0  0  0  0  0  0
   16.1313   44.5506   67.2097 H   0  0  0  0  0  0
   17.9595   44.9204   68.7872 H   0  0  0  0  0  0
   20.5793   42.5983   66.2432 H   0  0  0  0  0  0
   18.7453   42.2348   64.7133 H   0  0  0  0  0  0
   21.4426   42.4994   67.9092 H   0  0  0  0  0  0
  1 12  1  0  0  0
  1  6  1  0  0  0
  1  2  2  0  0  0
  2  3  1  0  0  0
  2 36  1  0  0  0
  3  4  2  0  0  0
  3 37  1  0  0  0
  4  5  1  0  0  0
  4  7  1  0  0  0
  5  6  2  0  0  0
  5 38  1  0  0  0
  6 39  1  0  0  0
  7  8  1  0  0  0
  7 40  1  0  0  0
  8  9  1  0  0  0
  8 10  2  0  0  0
  9 11  1  0  0  0
  9 41  1  0  0  0
  9 42  1  0  0  0
 11 19  1  0  0  0
 11 20  1  0  0  0
 12 13  1  0  0  0
 13 14  2  0  0  0
 13 18  1  0  0  0
 14 15  1  0  0  0
 14 43  1  0  0  0
 15 16  2  0  0  0
 15 44  1  0  0  0
 16 17  1  0  0  0
 16 35  1  0  0  0
 17 18  2  0  0  0
 17 45  1  0  0  0
 18 46  1  0  0  0
 19 47  1  0  0  0
 19 48  1  0  0  0
 19 49  1  0  0  0
 20 21  1  0  0  0
 20 50  1  0  0  0
 20 51  1  0  0  0
 21 22  1  0  0  0
 21 52  1  0  0  0
 21 53  1  0  0  0
 22 23  1  0  0  0
 22 54  1  0  0  0
 22 55  1  0  0  0
 23 24  1  0  0  0
 23 25  1  0  0  0
 24 26  1  0  0  0
 24 56  1  0  0  0
 24 57  1  0  0  0
 25 58  1  0  0  0
 25 59  1  0  0  0
 25 60  1  0  0  0
 26 27  2  0  0  0
 26 31  1  0  0  0
 27 28  1  0  0  0
 27 61  1  0  0  0
 28 29  2  0  0  0
 28 62  1  0  0  0
 29 30  1  0  0  0
 29 32  1  0  0  0
 30 31  2  0  0  0
 30 63  1  0  0  0
 31 64  1  0  0  0
 32 33  1  0  0  0
 32 34  2  0  0  0
 33 65  1  0  0  0
M  END
> <s_m_entry_id>
6725

> <s_m_entry_name>
dock_pv.155

> <s_m_Source_Path>
/home/csk/Desktop/cluster/DUD-E-result/lkha4

> <s_m_Source_File>
dock_pv.maegz

> <i_m_Source_File_Index>
155

> <chembl_id>
CHEMBL480724

> <chembl_pref_name>
None

> <i_lp_mmshare_version>
53161

> <i_f3d_flags>
0

> <r_lp_tautomer_probability>
1

> <s_lp_Force_Field>
OPLS_2005

> <r_lp_Energy>
40.616146

> <b_lp_Chiralities_Consistent>
1

> <s_lp_Variant>
CHEMBL4618_lig244-1

> <s_i_glide_gridfile>
glide-grid_3chp

> <i_i_glide_lignum>
280

> <i_i_glide_rotatable_bonds>
14

> <r_i_docking_score>
-9.66444373287953

> <r_i_glide_ligand_efficiency>
-0.276126963796558

> <r_i_glide_ligand_efficiency_sa>
-0.903229607539154

> <r_i_glide_ligand_efficiency_ln>
-2.12155989013925

> <r_i_glide_gscore>
-9.66444373287953

> <r_i_glide_lipo>
-5.12895046373439

> <r_i_glide_hbond>
-0.335958852462542

> <r_i_glide_metal>
0

> <r_i_glide_rewards>
-0.643467938615337

> <r_i_glide_evdw>
-61.139575958252

> <r_i_glide_ecoul>
-10.6030931472778

> <r_i_glide_erotb>
1.1460297197543

> <r_i_glide_esite>
-0.0546534278172884

> <r_i_glide_emodel>
-98.9269322609566

> <r_i_glide_energy>
-71.7426691055298

> <r_i_glide_einternal>
18.6053733825684

> <i_i_glide_confnum>
65

> <i_i_glide_posenum>
20

> <r_i_glide_eff_state_penalty>
0

> <s_user_duplicate_titles>
CHEMBL4618_lig244,466864

> <s_m_subgroup_title>
dock_pv

> <s_m_subgroupid>
dock_pv

> <b_m_subgroup_collapsed>
1

$$$$
CHEMBL4618_lig182
                    3D
 Schrodinger Suite 2021-1.
 44 45  0  0  1  0            999 V2000
    8.8914   35.3350   71.5971 C   0  0  0  0  0  0
    9.7229   34.4164   72.2380 C   0  0  0  0  0  0
   10.4411   34.7986   73.3675 C   0  0  0  0  0  0
   10.3489   36.1020   73.8449 C   0  0  0  0  0  0
    9.5351   37.0160   73.1809 C   0  0  0  0  0  0
    8.7774   36.6389   72.0734 C   0  0  0  0  0  0
    7.7917   37.6315   71.4512 C   0  0  0  0  0  0
    7.7054   37.4786   70.0265 O   0  0  0  0  0  0
    8.1211   38.4837   69.1692 C   0  0  0  0  0  0
    8.3547   38.1192   67.8476 C   0  0  0  0  0  0
    8.9210   39.0149   66.9421 C   0  0  0  0  0  0
    8.3296   39.8190   69.5269 C   0  0  0  0  0  0
    8.8635   40.7302   68.6220 C   0  0  0  0  0  0
    9.2682   40.3005   67.3544 C   0  0  0  0  0  0
   10.0936   41.0433   66.4847 N   0  0  0  0  0  0
   10.6902   42.2378   66.6790 C   0  0  0  0  0  0
   10.5210   42.9611   67.6536 O   0  0  0  0  0  0
   11.6389   42.7127   65.5770 C   0  0  0  0  0  0
   13.0232   41.9970   65.5401 C   0  0  0  0  0  0
   14.1209   42.8822   64.8899 C   0  0  1  0  0  0
   15.5225   42.2263   64.7622 C   0  0  0  0  0  0
   15.7210   41.0160   64.7400 O   0  0  0  0  0  0
   16.5193   43.1512   64.7400 O   0  0  0  0  0  0
   13.7210   43.2903   63.5400 N   0  0  0  0  0  0
    8.3183   35.0259   70.7400 H   0  0  0  0  0  0
    9.7928   33.4029   71.8709 H   0  0  0  0  0  0
   11.0704   34.0805   73.8739 H   0  0  0  0  0  0
   10.9079   36.4047   74.7183 H   0  0  0  0  0  0
    9.4782   38.0268   73.5400 H   0  0  0  0  0  0
    8.0316   38.6314   71.8017 H   0  0  0  0  0  0
    6.8050   37.4161   71.8617 H   0  0  0  0  0  0
    8.1763   37.1007   67.5442 H   0  0  0  0  0  0
    9.1824   38.6602   65.9543 H   0  0  0  0  0  0
    8.1210   40.1885   70.5101 H   0  0  0  0  0  0
    9.0353   41.7342   68.9743 H   0  0  0  0  0  0
   10.3333   40.5662   65.6286 H   0  0  0  0  0  0
   11.7838   43.7878   65.7037 H   0  0  0  0  0  0
   11.1270   42.6160   64.6243 H   0  0  0  0  0  0
   12.9278   41.0623   64.9838 H   0  0  0  0  0  0
   13.3243   41.7140   66.5501 H   0  0  0  0  0  0
   14.2363   43.7643   65.5225 H   0  0  0  0  0  0
   16.1919   44.0073   64.4407 H   0  0  0  0  0  0
   14.3789   43.9600   63.1405 H   0  0  0  0  0  0
   13.7095   42.4996   62.9010 H   0  0  0  0  0  0
  1  6  2  0  0  0
  1  2  1  0  0  0
  1 25  1  0  0  0
  2  3  2  0  0  0
  2 26  1  0  0  0
  3  4  1  0  0  0
  3 27  1  0  0  0
  4  5  2  0  0  0
  4 28  1  0  0  0
  5  6  1  0  0  0
  5 29  1  0  0  0
  6  7  1  0  0  0
  7  8  1  0  0  0
  7 30  1  0  0  0
  7 31  1  0  0  0
  8  9  1  0  0  0
  9 10  2  0  0  0
  9 12  1  0  0  0
 10 11  1  0  0  0
 10 32  1  0  0  0
 11 14  2  0  0  0
 11 33  1  0  0  0
 12 13  2  0  0  0
 12 34  1  0  0  0
 13 14  1  0  0  0
 13 35  1  0  0  0
 14 15  1  0  0  0
 15 16  1  0  0  0
 15 36  1  0  0  0
 16 18  1  0  0  0
 16 17  2  0  0  0
 18 19  1  0  0  0
 18 37  1  0  0  0
 18 38  1  0  0  0
 19 20  1  0  0  0
 19 39  1  0  0  0
 19 40  1  0  0  0
 20 24  1  0  0  0
 20 21  1  0  0  0
 20 41  1  0  0  0
 21 22  2  0  0  0
 21 23  1  0  0  0
 23 42  1  0  0  0
 24 43  1  0  0  0
 24 44  1  0  0  0
M  END
> <s_m_entry_id>
6726

> <s_m_entry_name>
dock_pv.156

> <s_m_Source_Path>
/home/csk/Desktop/cluster/DUD-E-result/lkha4

> <s_m_Source_File>
dock_pv.maegz

> <i_m_Source_File_Index>
156

> <chembl_id>
CHEMBL478381

> <chembl_pref_name>
None

> <i_lp_mmshare_version>
53161

> <i_f3d_flags>
0

> <r_lp_tautomer_probability>
1

> <s_lp_Force_Field>
OPLS_2005

> <r_lp_Energy>
24.279495

> <b_lp_Chiralities_Consistent>
1

> <s_lp_Variant>
CHEMBL4618_lig182-1

> <s_i_glide_gridfile>
glide-grid_3chp

> <i_i_glide_lignum>
209

> <i_i_glide_rotatable_bonds>
10

> <r_i_docking_score>
-9.66287159098352

> <r_i_glide_ligand_efficiency>
-0.402619649624313

> <r_i_glide_ligand_efficiency_sa>
-1.16135603210569

> <r_i_glide_ligand_efficiency_ln>
-2.31276857200732

> <r_i_glide_gscore>
-9.66287159098352

> <r_i_glide_lipo>
-4.73980882356365

> <r_i_glide_hbond>
-0.431015875479147

> <r_i_glide_metal>
0

> <r_i_glide_rewards>
-1.6360864671826

> <r_i_glide_evdw>
-38.8327140808105

> <r_i_glide_ecoul>
-15.8797044754028

> <r_i_glide_erotb>
1.56763095059282

> <r_i_glide_esite>
-0.1

> <r_i_glide_emodel>
-87.5850864648398

> <r_i_glide_energy>
-54.7124185562134

> <r_i_glide_einternal>
11.2717037200928

> <i_i_glide_confnum>
27

> <i_i_glide_posenum>
220

> <r_i_glide_eff_state_penalty>
0

> <s_user_duplicate_titles>
CHEMBL4618_lig182,507014

> <s_m_subgroup_title>
dock_pv

> <s_m_subgroupid>
dock_pv

> <b_m_subgroup_collapsed>
1

$$$$
CHEMBL4618_lig257
                    3D
 Schrodinger Suite 2021-1.
 64 65  0  0  1  0            999 V2000
   11.0637   42.4237   65.7960 C   0  0  0  0  0  0
   11.9697   41.3717   65.9413 C   0  0  0  0  0  0
   13.2890   41.5073   65.5413 C   0  0  0  0  0  0
   13.7386   42.7269   65.0231 C   0  0  0  0  0  0
   12.8363   43.7745   64.8516 C   0  0  0  0  0  0
   11.5083   43.6167   65.2379 C   0  0  0  0  0  0
   15.0796   43.0160   64.7398 N   0  0  0  0  0  0
   16.1739   42.2598   64.9310 C   0  0  0  0  0  0
   17.5040   43.0216   65.0432 C   0  0  0  0  0  0
   16.1538   41.0451   65.1399 O   0  0  0  0  0  0
   17.7169   43.4908   66.4147 N   0  0  2  0  0  0
    9.7172   42.3267   66.0747 O   0  0  0  0  0  0
    9.2277   41.5092   67.0667 C   0  0  0  0  0  0
    8.5810   42.1196   68.1356 C   0  0  0  0  0  0
    8.0261   41.3371   69.1394 C   0  0  0  0  0  0
    8.1213   39.9490   69.0844 C   0  0  0  0  0  0
    8.7374   39.3295   68.0019 C   0  0  0  0  0  0
    9.2724   40.1117   66.9829 C   0  0  0  0  0  0
   16.8349   44.6077   66.7860 C   0  0  0  0  0  0
   19.1225   43.8247   66.6974 C   0  0  0  0  0  0
   19.5844   43.3164   68.0848 C   0  0  0  0  0  0
   18.6839   43.7213   69.2742 C   0  0  0  0  0  0
   19.2098   43.4164   70.6089 N   0  0  1  0  0  0
   18.1917   43.8588   71.5739 C   0  0  0  0  0  0
   19.4860   41.9821   70.7566 C   0  0  0  0  0  0
   18.6378   43.7671   73.0431 C   0  0  0  0  0  0
   17.6065   44.3957   74.0089 C   0  0  0  0  0  0
   17.9039   44.2327   75.5193 C   0  0  0  0  0  0
   19.3212   44.6487   75.9229 C   0  0  0  0  0  0
   20.1210   43.5667   76.1352 O   0  0  0  0  0  0
   19.6859   45.8193   75.9920 O   0  0  0  0  0  0
   11.6696   40.4208   66.3372 H   0  0  0  0  0  0
   13.9259   40.6512   65.6832 H   0  0  0  0  0  0
   13.1639   44.7249   64.4550 H   0  0  0  0  0  0
   10.8160   44.4358   65.1391 H   0  0  0  0  0  0
   15.2583   43.9616   64.4196 H   0  0  0  0  0  0
   17.5348   43.8535   64.3402 H   0  0  0  0  0  0
   18.2921   42.3321   64.7368 H   0  0  0  0  0  0
    8.4892   43.1955   68.1741 H   0  0  0  0  0  0
    7.4965   41.8162   69.9400 H   0  0  0  0  0  0
    7.6831   39.3567   69.8740 H   0  0  0  0  0  0
    8.7879   38.2515   67.9423 H   0  0  0  0  0  0
    9.7082   39.6240   66.1233 H   0  0  0  0  0  0
   15.7922   44.2940   66.8290 H   0  0  0  0  0  0
   17.0545   45.0217   67.7656 H   0  0  0  0  0  0
   16.9213   45.4165   66.0624 H   0  0  0  0  0  0
   19.2911   44.8974   66.5925 H   0  0  0  0  0  0
   19.7764   43.3656   65.9524 H   0  0  0  0  0  0
   20.6034   43.6606   68.2696 H   0  0  0  0  0  0
   19.6553   42.2283   68.0086 H   0  0  0  0  0  0
   17.7079   43.2476   69.1493 H   0  0  0  0  0  0
   18.5099   44.7962   69.2146 H   0  0  0  0  0  0
   17.2783   43.2743   71.4459 H   0  0  0  0  0  0
   17.8936   44.8904   71.3749 H   0  0  0  0  0  0
   20.2466   41.6436   70.0521 H   0  0  0  0  0  0
   19.8818   41.7517   71.7450 H   0  0  0  0  0  0
   18.5871   41.3828   70.6019 H   0  0  0  0  0  0
   19.6251   44.2144   73.1605 H   0  0  0  0  0  0
   18.7367   42.7193   73.3140 H   0  0  0  0  0  0
   16.6221   43.9672   73.8101 H   0  0  0  0  0  0
   17.5030   45.4551   73.7790 H   0  0  0  0  0  0
   17.7193   43.2054   75.8331 H   0  0  0  0  0  0
   17.2019   44.8327   76.0991 H   0  0  0  0  0  0
   21.0458   43.8301   76.3402 H   0  0  0  0  0  0
  1 12  1  0  0  0
  1  6  1  0  0  0
  1  2  2  0  0  0
  2  3  1  0  0  0
  2 32  1  0  0  0
  3  4  2  0  0  0
  3 33  1  0  0  0
  4  5  1  0  0  0
  4  7  1  0  0  0
  5  6  2  0  0  0
  5 34  1  0  0  0
  6 35  1  0  0  0
  7  8  1  0  0  0
  7 36  1  0  0  0
  8  9  1  0  0  0
  8 10  2  0  0  0
  9 11  1  0  0  0
  9 37  1  0  0  0
  9 38  1  0  0  0
 11 19  1  0  0  0
 11 20  1  0  0  0
 12 13  1  0  0  0
 13 18  1  0  0  0
 13 14  2  0  0  0
 14 15  1  0  0  0
 14 39  1  0  0  0
 15 16  2  0  0  0
 15 40  1  0  0  0
 16 17  1  0  0  0
 16 41  1  0  0  0
 17 18  2  0  0  0
 17 42  1  0  0  0
 18 43  1  0  0  0
 19 44  1  0  0  0
 19 45  1  0  0  0
 19 46  1  0  0  0
 20 21  1  0  0  0
 20 47  1  0  0  0
 20 48  1  0  0  0
 21 22  1  0  0  0
 21 49  1  0  0  0
 21 50  1  0  0  0
 22 23  1  0  0  0
 22 51  1  0  0  0
 22 52  1  0  0  0
 23 24  1  0  0  0
 23 25  1  0  0  0
 24 26  1  0  0  0
 24 53  1  0  0  0
 24 54  1  0  0  0
 25 55  1  0  0  0
 25 56  1  0  0  0
 25 57  1  0  0  0
 26 27  1  0  0  0
 26 58  1  0  0  0
 26 59  1  0  0  0
 27 28  1  0  0  0
 27 60  1  0  0  0
 27 61  1  0  0  0
 28 29  1  0  0  0
 28 62  1  0  0  0
 28 63  1  0  0  0
 29 30  1  0  0  0
 29 31  2  0  0  0
 30 64  1  0  0  0
M  END
> <s_m_entry_id>
6727

> <s_m_entry_name>
dock_pv.157

> <s_m_Source_Path>
/home/csk/Desktop/cluster/DUD-E-result/lkha4

> <s_m_Source_File>
dock_pv.maegz

> <i_m_Source_File_Index>
157

> <chembl_id>
CHEMBL481143

> <chembl_pref_name>
None

> <i_lp_mmshare_version>
53161

> <i_f3d_flags>
0

> <r_lp_tautomer_probability>
1

> <s_lp_Force_Field>
OPLS_2005

> <r_lp_Energy>
36.328284

> <b_lp_Chiralities_Consistent>
1

> <s_lp_Variant>
CHEMBL4618_lig257-1

> <s_i_glide_gridfile>
glide-grid_3chp

> <i_i_glide_lignum>
295

> <i_i_glide_rotatable_bonds>
16

> <r_i_docking_score>
-9.66082072313439

> <r_i_glide_ligand_efficiency>
-0.311639378165625

> <r_i_glide_ligand_efficiency_sa>
-0.978977911972181

> <r_i_glide_ligand_efficiency_ln>
-2.17881114166547

> <r_i_glide_gscore>
-9.66082072313439

> <r_i_glide_lipo>
-4.38954469825321

> <r_i_glide_hbond>
-0.522259407227227

> <r_i_glide_metal>
0

> <r_i_glide_rewards>
-0.842205702359888

> <r_i_glide_evdw>
-43.408805847168

> <r_i_glide_ecoul>
-20.9036483764648

> <r_i_glide_erotb>
1.6294145700469

> <r_i_glide_esite>
-0.230237936512838

> <r_i_glide_emodel>
-99.5263018344981

> <r_i_glide_energy>
-64.3124542236328

> <r_i_glide_einternal>
14.5881090164185

> <i_i_glide_confnum>
75

> <i_i_glide_posenum>
347

> <r_i_glide_eff_state_penalty>
0

> <s_user_duplicate_titles>
CHEMBL4618_lig257,467571

> <s_m_subgroup_title>
dock_pv

> <s_m_subgroupid>
dock_pv

> <b_m_subgroup_collapsed>
1

$$$$
CHEMBL4618_lig66
                    3D
 Schrodinger Suite 2021-1.
 45 47  0  0  1  0            999 V2000
   10.8821   42.7681   65.6491 N   0  0  0  0  0  0
    8.1210   36.7437   70.5732 S   0  0  0  0  0  0
    8.2543   38.1134   69.4630 C   0  0  0  0  0  0
    8.9110   37.2209   72.1489 C   0  0  0  0  0  0
    8.5212   40.2534   67.6878 C   0  0  0  0  0  0
    8.2494   39.4160   69.9400 C   0  0  0  0  0  0
    8.3760   37.8777   68.0997 C   0  0  0  0  0  0
    8.5210   38.9423   67.2158 C   0  0  0  0  0  0
    8.3556   40.4873   69.0589 C   0  0  0  0  0  0
    8.6752   41.2410   66.7401 O   0  0  0  0  0  0
    9.6363   36.1047   72.9079 C   0  0  0  0  0  0
    9.5869   43.3551   66.0182 C   0  0  0  0  0  0
    8.8531   42.5963   67.1400 C   0  0  0  0  0  0
   11.8212   42.5670   66.7400 C   0  0  0  0  0  0
   11.6445   43.5521   64.6917 C   0  0  0  0  0  0
    9.7754   34.8004   72.4151 C   0  0  0  0  0  0
   10.2086   36.4251   74.1411 C   0  0  0  0  0  0
   13.0597   42.9705   64.7054 C   0  0  0  0  0  0
   13.1648   42.2825   66.0685 C   0  0  0  0  0  0
   10.5210   33.8604   73.1236 C   0  0  0  0  0  0
   10.9210   35.4822   74.8688 C   0  0  0  0  0  0
   11.1079   34.2150   74.3364 C   0  0  0  0  0  0
    9.6428   38.0023   71.9431 H   0  0  0  0  0  0
    8.1487   37.6626   72.7910 H   0  0  0  0  0  0
    8.1397   39.6001   70.9959 H   0  0  0  0  0  0
    8.4058   36.8671   67.7344 H   0  0  0  0  0  0
    8.6462   38.7497   66.1600 H   0  0  0  0  0  0
    8.3075   41.4868   69.4617 H   0  0  0  0  0  0
    9.7137   44.3864   66.3273 H   0  0  0  0  0  0
    8.9452   43.3758   65.1399 H   0  0  0  0  0  0
    9.4324   42.6951   68.0589 H   0  0  0  0  0  0
    7.8781   43.0495   67.3268 H   0  0  0  0  0  0
   11.4712   41.7227   67.3345 H   0  0  0  0  0  0
   11.8556   43.4160   67.4242 H   0  0  0  0  0  0
   11.6374   44.6159   64.9309 H   0  0  0  0  0  0
   11.1702   43.4608   63.7149 H   0  0  0  0  0  0
    9.3129   34.4978   71.4913 H   0  0  0  0  0  0
   10.1207   37.4160   74.5426 H   0  0  0  0  0  0
   13.8053   43.7586   64.5907 H   0  0  0  0  0  0
   13.2063   42.2628   63.8877 H   0  0  0  0  0  0
   13.3218   41.2079   65.9626 H   0  0  0  0  0  0
   13.9877   42.6813   66.6617 H   0  0  0  0  0  0
   10.6386   32.8560   72.7416 H   0  0  0  0  0  0
   11.3523   35.7383   75.8262 H   0  0  0  0  0  0
   11.6781   33.4806   74.8880 H   0  0  0  0  0  0
  1 12  1  0  0  0
  1 14  1  0  0  0
  1 15  1  0  0  0
  2  3  1  0  0  0
  2  4  1  0  0  0
  3  6  1  0  0  0
  3  7  2  0  0  0
  4 11  1  0  0  0
  4 23  1  0  0  0
  4 24  1  0  0  0
  5 10  1  0  0  0
  5  8  2  0  0  0
  5  9  1  0  0  0
  6  9  2  0  0  0
  6 25  1  0  0  0
  7  8  1  0  0  0
  7 26  1  0  0  0
  8 27  1  0  0  0
  9 28  1  0  0  0
 10 13  1  0  0  0
 11 16  2  0  0  0
 11 17  1  0  0  0
 12 13  1  0  0  0
 12 29  1  0  0  0
 12 30  1  0  0  0
 13 31  1  0  0  0
 13 32  1  0  0  0
 14 19  1  0  0  0
 14 33  1  0  0  0
 14 34  1  0  0  0
 15 18  1  0  0  0
 15 35  1  0  0  0
 15 36  1  0  0  0
 16 20  1  0  0  0
 16 37  1  0  0  0
 17 21  2  0  0  0
 17 38  1  0  0  0
 18 19  1  0  0  0
 18 39  1  0  0  0
 18 40  1  0  0  0
 19 41  1  0  0  0
 19 42  1  0  0  0
 20 22  2  0  0  0
 20 43  1  0  0  0
 21 22  1  0  0  0
 21 44  1  0  0  0
 22 45  1  0  0  0
M  END
> <s_m_entry_id>
6728

> <s_m_entry_name>
dock_pv.158

> <s_m_Source_Path>
/home/csk/Desktop/cluster/DUD-E-result/lkha4

> <s_m_Source_File>
dock_pv.maegz

> <i_m_Source_File_Index>
158

> <chembl_id>
CHEMBL163144

> <chembl_pref_name>
None

> <i_lp_mmshare_version>
53161

> <i_f3d_flags>
0

> <r_lp_tautomer_probability>
1

> <s_lp_Force_Field>
OPLS_2005

> <r_lp_Energy>
32.734339

> <b_lp_Chiralities_Consistent>
1

> <s_lp_Variant>
CHEMBL4618_lig66-1

> <s_i_glide_gridfile>
glide-grid_3chp

> <i_i_glide_lignum>
84

> <i_i_glide_rotatable_bonds>
7

> <r_i_docking_score>
-9.66041039861683

> <r_i_glide_ligand_efficiency>
-0.439109563573492

> <r_i_glide_ligand_efficiency_sa>
-1.23040226633211

> <r_i_glide_ligand_efficiency_ln>
-2.36135667345291

> <r_i_glide_gscore>
-9.66041039861683

> <r_i_glide_lipo>
-5.88416209771691

> <r_i_glide_hbond>
0

> <r_i_glide_metal>
0

> <r_i_glide_rewards>
-2.17104481748309

> <r_i_glide_evdw>
-44.9460105895996

> <r_i_glide_ecoul>
-3.28098034858704

> <r_i_glide_erotb>
1.13424409835121

> <r_i_glide_esite>
0

> <r_i_glide_emodel>
-70.7894849004323

> <r_i_glide_energy>
-48.2269909381866

> <r_i_glide_einternal>
8.31059646606445

> <i_i_glide_confnum>
26

> <i_i_glide_posenum>
375

> <r_i_glide_eff_state_penalty>
0

> <s_user_duplicate_titles>
CHEMBL4618_lig66,271323

> <s_m_subgroup_title>
dock_pv

> <s_m_subgroupid>
dock_pv

> <b_m_subgroup_collapsed>
1

$$$$
CHEMBL4618_lig154
                    3D
 Schrodinger Suite 2021-1.
 55 56  0  0  1  0            999 V2000
   16.3742   42.6031   65.0202 C   0  0  0  0  0  0
   14.9724   43.0179   64.5915 C   0  0  0  0  0  0
   16.6608   41.4160   65.1397 O   0  0  0  0  0  0
   13.8049   42.1377   65.0958 C   0  0  0  0  0  0
   12.6488   42.9492   65.5001 N   0  0  2  0  0  0
    8.1068   37.7772   69.8328 C   0  0  0  0  0  0
    7.7314   36.7199   70.8691 C   0  0  0  0  0  0
    8.7240   39.7613   67.9324 C   0  0  0  0  0  0
   17.2134   43.6282   65.2712 O   0  0  0  0  0  0
    8.2585   39.1036   70.2176 C   0  0  0  0  0  0
    8.1786   37.4614   68.4752 C   0  0  0  0  0  0
    8.5199   40.0879   69.2726 C   0  0  0  0  0  0
    8.5225   38.4400   67.5379 C   0  0  0  0  0  0
    8.7988   36.2739   71.8812 C   0  0  0  0  0  0
   10.2556   42.7627   66.3566 C   0  0  0  0  0  0
    9.1159   40.6832   66.9763 O   0  0  0  0  0  0
   11.6296   42.0884   66.1245 C   0  0  0  0  0  0
    9.3858   42.0317   67.3806 C   0  0  0  0  0  0
   12.1278   43.7387   64.3829 C   0  0  0  0  0  0
   18.5702   43.3504   65.6050 C   0  0  0  0  0  0
    9.2825   37.1625   72.8432 C   0  0  0  0  0  0
    9.2181   34.9407   71.9309 C   0  0  0  0  0  0
   19.2949   44.6394   65.9859 C   0  0  0  0  0  0
   10.1479   36.7193   73.8431 C   0  0  0  0  0  0
   10.1044   34.4992   72.9097 C   0  0  0  0  0  0
   10.5289   35.3847   73.8891 C   0  0  0  0  0  0
   14.8332   44.0485   64.9170 H   0  0  0  0  0  0
   14.9538   43.0160   63.5005 H   0  0  0  0  0  0
   13.5208   41.4275   64.3156 H   0  0  0  0  0  0
   14.1207   41.5280   65.9394 H   0  0  0  0  0  0
    6.9136   37.1320   71.4557 H   0  0  0  0  0  0
    7.3231   35.8560   70.3400 H   0  0  0  0  0  0
    8.1241   39.4088   71.2442 H   0  0  0  0  0  0
    8.0228   36.4459   68.1530 H   0  0  0  0  0  0
    8.5632   41.1146   69.5850 H   0  0  0  0  0  0
    8.6450   38.1749   66.4985 H   0  0  0  0  0  0
   10.3667   43.8142   66.6229 H   0  0  0  0  0  0
    9.6992   42.7478   65.4193 H   0  0  0  0  0  0
   11.4702   41.1848   65.5357 H   0  0  0  0  0  0
   12.0117   41.7269   67.0801 H   0  0  0  0  0  0
    9.9283   42.0806   68.3249 H   0  0  0  0  0  0
    8.4414   42.5614   67.5186 H   0  0  0  0  0  0
   11.3890   44.4528   64.7413 H   0  0  0  0  0  0
   12.9003   44.3243   63.8842 H   0  0  0  0  0  0
   11.6580   43.0965   63.6430 H   0  0  0  0  0  0
   19.0695   42.8829   64.7538 H   0  0  0  0  0  0
   18.6197   42.6471   66.4385 H   0  0  0  0  0  0
    8.9645   38.1927   72.8511 H   0  0  0  0  0  0
    8.8446   34.2310   71.2094 H   0  0  0  0  0  0
   20.3255   44.4326   66.2705 H   0  0  0  0  0  0
   18.8029   45.1372   66.8212 H   0  0  0  0  0  0
   19.3188   45.3231   65.1407 H   0  0  0  0  0  0
   10.5226   37.4072   74.5891 H   0  0  0  0  0  0
   10.4169   33.4655   72.9373 H   0  0  0  0  0  0
   11.1898   35.0408   74.6720 H   0  0  0  0  0  0
  1  2  1  0  0  0
  1  3  2  0  0  0
  1  9  1  0  0  0
  2  4  1  0  0  0
  2 27  1  0  0  0
  2 28  1  0  0  0
  4  5  1  0  0  0
  4 29  1  0  0  0
  4 30  1  0  0  0
  5 17  1  0  0  0
  5 19  1  0  0  0
  6 11  2  0  0  0
  6  7  1  0  0  0
  6 10  1  0  0  0
  7 14  1  0  0  0
  7 31  1  0  0  0
  7 32  1  0  0  0
  8 16  1  0  0  0
  8 12  1  0  0  0
  8 13  2  0  0  0
  9 20  1  0  0  0
 10 12  2  0  0  0
 10 33  1  0  0  0
 11 13  1  0  0  0
 11 34  1  0  0  0
 12 35  1  0  0  0
 13 36  1  0  0  0
 14 21  1  0  0  0
 14 22  2  0  0  0
 15 17  1  0  0  0
 15 18  1  0  0  0
 15 37  1  0  0  0
 15 38  1  0  0  0
 16 18  1  0  0  0
 17 39  1  0  0  0
 17 40  1  0  0  0
 18 41  1  0  0  0
 18 42  1  0  0  0
 19 43  1  0  0  0
 19 44  1  0  0  0
 19 45  1  0  0  0
 20 23  1  0  0  0
 20 46  1  0  0  0
 20 47  1  0  0  0
 21 24  2  0  0  0
 21 48  1  0  0  0
 22 25  1  0  0  0
 22 49  1  0  0  0
 23 50  1  0  0  0
 23 51  1  0  0  0
 23 52  1  0  0  0
 24 26  1  0  0  0
 24 53  1  0  0  0
 25 26  2  0  0  0
 25 54  1  0  0  0
 26 55  1  0  0  0
M  END
> <s_m_entry_id>
6729

> <s_m_entry_name>
dock_pv.159

> <s_m_Source_Path>
/home/csk/Desktop/cluster/DUD-E-result/lkha4

> <s_m_Source_File>
dock_pv.maegz

> <i_m_Source_File_Index>
159

> <chembl_id>
CHEMBL115857

> <chembl_pref_name>
None

> <i_lp_mmshare_version>
53161

> <i_f3d_flags>
0

> <r_lp_tautomer_probability>
1

> <s_lp_Force_Field>
OPLS_2005

> <r_lp_Energy>
22.327981

> <b_lp_Chiralities_Consistent>
1

> <s_lp_Variant>
CHEMBL4618_lig154-1

> <s_i_glide_gridfile>
glide-grid_3chp

> <i_i_glide_lignum>
180

> <i_i_glide_rotatable_bonds>
12

> <r_i_docking_score>
-9.65019859480693

> <r_i_glide_ligand_efficiency>
-0.371161484415651

> <r_i_glide_ligand_efficiency_sa>
-1.09956443713145

> <r_i_glide_ligand_efficiency_ln>
-2.26631747510611

> <r_i_glide_gscore>
-9.65019859480693

> <r_i_glide_lipo>
-5.37502020727823

> <r_i_glide_hbond>
-0.32

> <r_i_glide_metal>
0

> <r_i_glide_rewards>
-1.88515691825212

> <r_i_glide_evdw>
-49.2970886230469

> <r_i_glide_ecoul>
-7.79806184768677

> <r_i_glide_erotb>
1.66454223902878

> <r_i_glide_esite>
-0.1

> <r_i_glide_emodel>
-86.2298688077575

> <r_i_glide_energy>
-57.0951504707336

> <r_i_glide_einternal>
10.5411825180054

> <i_i_glide_confnum>
199

> <i_i_glide_posenum>
325

> <r_i_glide_eff_state_penalty>
0

> <s_user_duplicate_titles>
CHEMBL4618_lig154,193316

> <s_m_subgroup_title>
dock_pv

> <s_m_subgroupid>
dock_pv

> <b_m_subgroup_collapsed>
1

$$$$
CHEMBL4618_lig98
                    3D
 Schrodinger Suite 2021-1.
 47 50  0  0  1  0            999 V2000
   12.8615   42.6951   65.1400 N   0  0  1  0  0  0
   13.9851   43.4703   64.6084 C   0  0  2  0  0  0
   15.8070   42.0038   65.1397 N   0  0  2  0  0  0
   14.3678   42.6162   63.4319 C   0  0  0  0  0  0
   14.7011   41.4528   64.3405 C   0  0  2  0  0  0
   13.4041   41.3331   65.1899 C   0  0  0  0  0  0
   15.2709   43.3340   65.4673 C   0  0  0  0  0  0
    8.0500   39.3209   68.8601 C   0  0  0  0  0  0
   12.2886   43.2063   66.3755 C   0  0  0  0  0  0
    7.3212   38.4212   69.8389 C   0  0  0  0  0  0
    9.5350   40.9317   67.1396 C   0  0  0  0  0  0
    8.1240   40.6965   69.0780 C   0  0  0  0  0  0
    8.5923   38.7728   67.7033 C   0  0  0  0  0  0
    9.3212   39.5856   66.8449 C   0  0  0  0  0  0
    8.8645   41.5040   68.2264 C   0  0  0  0  0  0
    8.1871   37.5966   70.7721 C   0  0  0  0  0  0
   10.4466   41.5798   66.3311 O   0  0  0  0  0  0
   10.7739   42.9569   66.5124 C   0  0  0  0  0  0
    8.2158   36.2164   70.6303 C   0  0  0  0  0  0
    8.8672   38.1983   71.8247 C   0  0  0  0  0  0
    8.9141   35.4251   71.5407 C   0  0  0  0  0  0
    9.5914   37.4155   72.7247 C   0  0  0  0  0  0
    9.6052   36.0305   72.5859 C   0  0  0  0  0  0
   13.7204   44.4938   64.3369 H   0  0  0  0  0  0
   16.5563   42.2154   64.4856 H   0  0  0  0  0  0
   13.5486   42.4159   62.7409 H   0  0  0  0  0  0
   15.2128   43.0103   62.8579 H   0  0  0  0  0  0
   14.9314   40.5405   63.7935 H   0  0  0  0  0  0
   12.7014   40.6340   64.7404 H   0  0  0  0  0  0
   13.5992   40.9192   66.1807 H   0  0  0  0  0  0
   15.9927   44.0859   65.1443 H   0  0  0  0  0  0
   15.0962   43.5187   66.5290 H   0  0  0  0  0  0
   12.8410   42.8538   67.2450 H   0  0  0  0  0  0
   12.4134   44.2817   66.3401 H   0  0  0  0  0  0
    6.6695   39.0153   70.4697 H   0  0  0  0  0  0
    6.6637   37.7627   69.2698 H   0  0  0  0  0  0
    7.6767   41.1561   69.9387 H   0  0  0  0  0  0
    8.4991   37.7165   67.4962 H   0  0  0  0  0  0
    9.7921   39.1480   65.9767 H   0  0  0  0  0  0
    8.9294   42.5508   68.4717 H   0  0  0  0  0  0
   10.4907   43.3833   67.4724 H   0  0  0  0  0  0
   10.2314   43.5328   65.7618 H   0  0  0  0  0  0
    7.6811   35.7766   69.8069 H   0  0  0  0  0  0
    8.8056   39.2678   71.9396 H   0  0  0  0  0  0
    8.9155   34.3497   71.4416 H   0  0  0  0  0  0
   10.1258   37.8781   73.5398 H   0  0  0  0  0  0
   10.1519   35.4234   73.2915 H   0  0  0  0  0  0
  1  2  1  0  0  0
  1  6  1  0  0  0
  1  9  1  0  0  0
  2  4  1  0  0  0
  2  7  1  0  0  0
  2 24  1  0  0  0
  3  5  1  0  0  0
  3  7  1  0  0  0
  3 25  1  0  0  0
  4  5  1  0  0  0
  4 26  1  0  0  0
  4 27  1  0  0  0
  5  6  1  0  0  0
  5 28  1  0  0  0
  6 29  1  0  0  0
  6 30  1  0  0  0
  7 31  1  0  0  0
  7 32  1  0  0  0
  8 12  2  0  0  0
  8 10  1  0  0  0
  8 13  1  0  0  0
  9 18  1  0  0  0
  9 33  1  0  0  0
  9 34  1  0  0  0
 10 16  1  0  0  0
 10 35  1  0  0  0
 10 36  1  0  0  0
 11 17  1  0  0  0
 11 14  1  0  0  0
 11 15  2  0  0  0
 12 15  1  0  0  0
 12 37  1  0  0  0
 13 14  2  0  0  0
 13 38  1  0  0  0
 14 39  1  0  0  0
 15 40  1  0  0  0
 16 19  2  0  0  0
 16 20  1  0  0  0
 17 18  1  0  0  0
 18 41  1  0  0  0
 18 42  1  0  0  0
 19 21  1  0  0  0
 19 43  1  0  0  0
 20 22  2  0  0  0
 20 44  1  0  0  0
 21 23  2  0  0  0
 21 45  1  0  0  0
 22 23  1  0  0  0
 22 46  1  0  0  0
 23 47  1  0  0  0
M  END
> <s_m_entry_id>
6730

> <s_m_entry_name>
dock_pv.160

> <s_m_Source_Path>
/home/csk/Desktop/cluster/DUD-E-result/lkha4

> <s_m_Source_File>
dock_pv.maegz

> <i_m_Source_File_Index>
160

> <chembl_id>
CHEMBL163822

> <chembl_pref_name>
None

> <i_lp_mmshare_version>
53161

> <i_f3d_flags>
0

> <r_lp_tautomer_probability>
1

> <s_lp_Force_Field>
OPLS_2005

> <r_lp_Energy>
91.451278

> <b_lp_Chiralities_Consistent>
1

> <s_lp_Variant>
CHEMBL4618_lig98-2

> <s_i_glide_gridfile>
glide-grid_3chp

> <i_i_glide_lignum>
122

> <i_i_glide_rotatable_bonds>
6

> <r_i_docking_score>
-9.64656820655275

> <r_i_glide_ligand_efficiency>
-0.419416008980554

> <r_i_glide_ligand_efficiency_sa>
-1.19276333751429

> <r_i_glide_ligand_efficiency_ln>
-2.33262766258891

> <r_i_glide_gscore>
-9.64656820655275

> <r_i_glide_lipo>
-4.78683671516776

> <r_i_glide_hbond>
-0.288041541155304

> <r_i_glide_metal>
0

> <r_i_glide_rewards>
-2.20624405677544

> <r_i_glide_evdw>
-38.7603530883789

> <r_i_glide_ecoul>
-9.33290672302246

> <r_i_glide_erotb>
0.972507769418061

> <r_i_glide_esite>
0

> <r_i_glide_emodel>
-63.2901518676282

> <r_i_glide_energy>
-48.0932598114014

> <r_i_glide_einternal>
3.10904383659363

> <i_i_glide_confnum>
3

> <i_i_glide_posenum>
217

> <r_i_glide_eff_state_penalty>
0

> <s_user_duplicate_titles>
CHEMBL4618_lig98,271494

> <s_m_subgroup_title>
dock_pv

> <s_m_subgroupid>
dock_pv

> <b_m_subgroup_collapsed>
1

$$$$
CHEMBL4618_lig136
                    3D
 Schrodinger Suite 2021-1.
 52 53  0  0  1  0            999 V2000
   16.2844   42.6218   65.0818 C   0  0  0  0  0  0
   16.5212   41.4160   65.1385 O   0  0  0  0  0  0
    8.1212   37.8833   69.7035 C   0  0  0  0  0  0
    7.7282   36.8275   70.7394 C   0  0  0  0  0  0
    8.6882   39.9080   67.8284 C   0  0  0  0  0  0
   11.4499   42.4325   66.3374 N   0  0  1  0  0  0
   17.1843   43.5967   65.2923 O   0  0  0  0  0  0
    8.2724   39.2031   70.1050 C   0  0  0  0  0  0
    8.2018   37.5883   68.3399 C   0  0  0  0  0  0
    8.5208   40.2127   69.1807 C   0  0  0  0  0  0
    8.5203   38.5877   67.4182 C   0  0  0  0  0  0
    8.7666   36.3615   71.7710 C   0  0  0  0  0  0
    8.9993   40.8336   66.8523 O   0  0  0  0  0  0
   14.8708   43.1475   64.8249 C   0  0  0  0  0  0
   10.0752   42.8788   66.1394 C   0  0  0  0  0  0
   12.3874   43.0728   65.4303 C   0  0  0  0  0  0
   18.5448   43.2624   65.5341 C   0  0  0  0  0  0
    9.1669   42.2149   67.1853 C   0  0  0  0  0  0
    9.2750   37.2321   72.7385 C   0  0  0  0  0  0
    9.1285   35.0138   71.8303 C   0  0  0  0  0  0
   13.7822   42.4832   65.6875 C   0  0  0  0  0  0
   19.3741   44.5412   65.5509 C   0  0  0  0  0  0
   10.0307   34.5480   72.7816 C   0  0  0  0  0  0
   10.1419   36.7578   73.7244 C   0  0  0  0  0  0
   10.5192   35.4202   73.7431 C   0  0  0  0  0  0
    6.8956   37.2419   71.3068 H   0  0  0  0  0  0
    7.3225   35.9637   70.2129 H   0  0  0  0  0  0
   11.7276   42.5776   67.2983 H   0  0  0  0  0  0
    8.1295   39.4561   71.1424 H   0  0  0  0  0  0
    8.0527   36.5843   67.9791 H   0  0  0  0  0  0
    8.5710   41.2259   69.5407 H   0  0  0  0  0  0
    8.6261   38.3379   66.3721 H   0  0  0  0  0  0
   14.8579   44.2201   65.0049 H   0  0  0  0  0  0
   14.6491   43.0136   63.7648 H   0  0  0  0  0  0
   10.0149   43.9616   66.2490 H   0  0  0  0  0  0
    9.7287   42.6207   65.1397 H   0  0  0  0  0  0
   12.3993   44.1516   65.5975 H   0  0  0  0  0  0
   12.1012   42.9044   64.3908 H   0  0  0  0  0  0
   18.9183   42.6015   64.7497 H   0  0  0  0  0  0
   18.6384   42.7354   66.4851 H   0  0  0  0  0  0
    9.6181   42.3769   68.1644 H   0  0  0  0  0  0
    8.1871   42.6958   67.1943 H   0  0  0  0  0  0
    8.9748   38.2665   72.7551 H   0  0  0  0  0  0
    8.7016   34.3064   71.1398 H   0  0  0  0  0  0
   13.7604   41.4066   65.4999 H   0  0  0  0  0  0
   14.0368   42.6162   66.7394 H   0  0  0  0  0  0
   20.4205   44.3207   65.7617 H   0  0  0  0  0  0
   19.0115   45.2402   66.3040 H   0  0  0  0  0  0
   19.3211   45.0181   64.5734 H   0  0  0  0  0  0
   10.3081   33.5040   72.8054 H   0  0  0  0  0  0
   10.5208   37.4174   74.4882 H   0  0  0  0  0  0
   11.1885   35.0573   74.5100 H   0  0  0  0  0  0
  1  2  2  0  0  0
  1  7  1  0  0  0
  1 14  1  0  0  0
  3  9  2  0  0  0
  3  4  1  0  0  0
  3  8  1  0  0  0
  4 12  1  0  0  0
  4 26  1  0  0  0
  4 27  1  0  0  0
  5 13  1  0  0  0
  5 10  1  0  0  0
  5 11  2  0  0  0
  6 16  1  0  0  0
  6 15  1  0  0  0
  6 28  1  0  0  0
  7 17  1  0  0  0
  8 10  2  0  0  0
  8 29  1  0  0  0
  9 11  1  0  0  0
  9 30  1  0  0  0
 10 31  1  0  0  0
 11 32  1  0  0  0
 12 19  2  0  0  0
 12 20  1  0  0  0
 13 18  1  0  0  0
 14 21  1  0  0  0
 14 33  1  0  0  0
 14 34  1  0  0  0
 15 18  1  0  0  0
 15 35  1  0  0  0
 15 36  1  0  0  0
 16 21  1  0  0  0
 16 37  1  0  0  0
 16 38  1  0  0  0
 17 22  1  0  0  0
 17 39  1  0  0  0
 17 40  1  0  0  0
 18 41  1  0  0  0
 18 42  1  0  0  0
 19 24  1  0  0  0
 19 43  1  0  0  0
 20 23  2  0  0  0
 20 44  1  0  0  0
 21 45  1  0  0  0
 21 46  1  0  0  0
 22 47  1  0  0  0
 22 48  1  0  0  0
 22 49  1  0  0  0
 23 25  1  0  0  0
 23 50  1  0  0  0
 24 25  2  0  0  0
 24 51  1  0  0  0
 25 52  1  0  0  0
M  END
> <s_m_entry_id>
6731

> <s_m_entry_name>
dock_pv.161

> <s_m_Source_Path>
/home/csk/Desktop/cluster/DUD-E-result/lkha4

> <s_m_Source_File>
dock_pv.maegz

> <i_m_Source_File_Index>
161

> <chembl_id>
CHEMBL119024

> <chembl_pref_name>
None

> <i_lp_mmshare_version>
53161

> <i_f3d_flags>
0

> <r_lp_tautomer_probability>
1

> <s_lp_Force_Field>
OPLS_2005

> <r_lp_Energy>
16.124554

> <b_lp_Chiralities_Consistent>
1

> <s_lp_Variant>
CHEMBL4618_lig136-1

> <s_i_glide_gridfile>
glide-grid_3chp

> <i_i_glide_lignum>
162

> <i_i_glide_rotatable_bonds>
12

> <r_i_docking_score>
-9.64543766180017

> <r_i_glide_ligand_efficiency>
-0.385817506472007

> <r_i_glide_ligand_efficiency_sa>
-1.12813723142676

> <r_i_glide_ligand_efficiency_ln>
-2.28625777628843

> <r_i_glide_gscore>
-9.64543766180017

> <r_i_glide_lipo>
-5.24711837928776

> <r_i_glide_hbond>
-0.32

> <r_i_glide_metal>
0

> <r_i_glide_rewards>
-1.98100026837838

> <r_i_glide_evdw>
-48.3648300170898

> <r_i_glide_ecoul>
-9.11374568939209

> <r_i_glide_erotb>
1.78798434012927

> <r_i_glide_esite>
-0.1

> <r_i_glide_emodel>
-89.4061063024794

> <r_i_glide_energy>
-57.4785757064819

> <r_i_glide_einternal>
4.87234163284302

> <i_i_glide_confnum>
81

> <i_i_glide_posenum>
281

> <r_i_glide_eff_state_penalty>
0

> <s_user_duplicate_titles>
CHEMBL4618_lig136

> <s_m_subgroup_title>
dock_pv

> <s_m_subgroupid>
dock_pv

> <b_m_subgroup_collapsed>
1

$$$$
CHEMBL4618_lig435
                    3D
 Schrodinger Suite 2021-1.
 50 55  0  0  1  0            999 V2000
    8.0741   37.3975   69.0306 O   0  0  0  0  0  0
    9.1402   38.2160   71.4481 S   0  0  0  0  0  0
    8.4824   37.0460   70.3145 C   0  0  0  0  0  0
    8.5209   35.8162   70.7379 N   0  0  0  0  0  0
    9.2666   35.6842   71.8645 C   0  0  0  0  0  0
    9.6842   36.8907   72.4673 C   0  0  0  0  0  0
    9.7210   34.4783   72.4092 C   0  0  0  0  0  0
   10.4462   34.4376   73.5530 N   0  0  0  0  0  0
   10.7545   35.6058   74.1673 C   0  0  0  0  0  0
   10.4491   36.8679   73.6464 C   0  0  0  0  0  0
    7.5229   41.0490   68.7401 C   0  0  0  0  0  0
    7.4759   39.7154   69.1400 C   0  0  0  0  0  0
    8.1662   38.6876   68.5345 C   0  0  0  0  0  0
    8.9211   38.9906   67.4107 C   0  0  0  0  0  0
    8.9271   42.5849   67.2043 C   0  0  0  0  0  0
    8.4685   41.3841   67.7892 C   0  0  0  0  0  0
    9.1796   40.3458   67.1608 C   0  0  0  0  0  0
   10.1239   40.8640   66.3398 O   0  0  0  0  0  0
    9.9958   42.2233   66.4128 C   0  0  0  0  0  0
   10.8778   43.0324   65.5155 C   0  0  0  0  0  0
   12.2505   42.5171   65.4300 N   0  0  2  0  0  0
   13.1722   43.1122   66.4133 C   0  0  0  0  0  0
   14.2054   43.8851   65.5513 C   0  0  1  0  0  0
   15.0020   42.8388   64.8838 N   0  0  0  0  0  0
   14.1443   42.2157   63.8810 C   0  0  0  0  0  0
   12.8335   42.9657   64.1604 C   0  0  2  0  0  0
   16.2682   42.4589   65.1399 C   0  0  0  0  0  0
   16.7502   41.4160   64.6915 O   0  0  0  0  0  0
   17.1069   43.3105   66.0905 C   0  0  0  0  0  0
   13.2988   44.3690   64.4246 C   0  0  0  0  0  0
    9.4925   33.5349   71.9399 H   0  0  0  0  0  0
   11.3204   35.5104   75.0839 H   0  0  0  0  0  0
   10.8262   37.7695   74.1034 H   0  0  0  0  0  0
    6.9219   41.8162   69.1985 H   0  0  0  0  0  0
    6.9210   39.4004   69.9706 H   0  0  0  0  0  0
    9.3210   38.2116   66.8068 H   0  0  0  0  0  0
    8.5472   43.5819   67.3657 H   0  0  0  0  0  0
   10.8594   44.0786   65.8207 H   0  0  0  0  0  0
   10.4182   43.0163   64.5310 H   0  0  0  0  0  0
   13.6413   42.3669   67.0551 H   0  0  0  0  0  0
   12.6447   43.7939   67.0796 H   0  0  0  0  0  0
   14.7911   44.6160   66.1034 H   0  0  0  0  0  0
   14.0695   41.1282   63.9197 H   0  0  0  0  0  0
   14.5494   42.5389   62.9204 H   0  0  0  0  0  0
   12.1561   42.9133   63.3198 H   0  0  0  0  0  0
   17.2538   44.3021   65.6622 H   0  0  0  0  0  0
   16.6228   43.4142   67.0618 H   0  0  0  0  0  0
   18.0898   42.8627   66.2409 H   0  0  0  0  0  0
   12.4909   45.0160   64.7404 H   0  0  0  0  0  0
   13.7210   44.8259   63.5409 H   0  0  0  0  0  0
  1  3  1  0  0  0
  1 13  1  0  0  0
  2  3  1  0  0  0
  2  6  1  0  0  0
  3  4  2  0  0  0
  4  5  1  0  0  0
  5  6  1  0  0  0
  5  7  2  0  0  0
  6 10  2  0  0  0
  7  8  1  0  0  0
  7 31  1  0  0  0
  8  9  2  0  0  0
  9 10  1  0  0  0
  9 32  1  0  0  0
 10 33  1  0  0  0
 11 16  2  0  0  0
 11 12  1  0  0  0
 11 34  1  0  0  0
 12 13  2  0  0  0
 12 35  1  0  0  0
 13 14  1  0  0  0
 14 17  2  0  0  0
 14 36  1  0  0  0
 15 16  1  0  0  0
 15 19  2  0  0  0
 15 37  1  0  0  0
 16 17  1  0  0  0
 17 18  1  0  0  0
 18 19  1  0  0  0
 19 20  1  0  0  0
 20 21  1  0  0  0
 20 38  1  0  0  0
 20 39  1  0  0  0
 21 22  1  0  0  0
 21 26  1  0  0  0
 22 23  1  0  0  0
 22 40  1  0  0  0
 22 41  1  0  0  0
 23 24  1  0  0  0
 23 30  1  0  0  0
 23 42  1  0  0  0
 24 25  1  0  0  0
 24 27  1  0  0  0
 25 26  1  0  0  0
 25 43  1  0  0  0
 25 44  1  0  0  0
 26 30  1  0  0  0
 26 45  1  0  0  0
 27 28  2  0  0  0
 27 29  1  0  0  0
 29 46  1  0  0  0
 29 47  1  0  0  0
 29 48  1  0  0  0
 30 49  1  0  0  0
 30 50  1  0  0  0
M  END
> <s_m_entry_id>
6732

> <s_m_entry_name>
dock_pv.162

> <s_m_Source_Path>
/home/csk/Desktop/cluster/DUD-E-result/lkha4

> <s_m_Source_File>
dock_pv.maegz

> <i_m_Source_File_Index>
162

> <chembl_id>
CHEMBL2313270

> <chembl_pref_name>
None

> <i_lp_mmshare_version>
53161

> <i_f3d_flags>
0

> <r_lp_tautomer_probability>
1

> <s_lp_Force_Field>
OPLS_2005

> <r_lp_Energy>
84.164874

> <b_lp_Chiralities_Consistent>
1

> <s_lp_Variant>
CHEMBL4618_lig435-2

> <s_i_glide_gridfile>
glide-grid_3chp

> <i_i_glide_lignum>
507

> <i_i_glide_rotatable_bonds>
5

> <r_i_docking_score>
-9.64009919245323

> <r_i_glide_ligand_efficiency>
-0.321336639748441

> <r_i_glide_ligand_efficiency_sa>
-0.998467651248345

> <r_i_glide_ligand_efficiency_ln>
-2.1903355738189

> <r_i_glide_gscore>
-9.64009919245323

> <r_i_glide_lipo>
-5.3230953582379

> <r_i_glide_hbond>
-0.0739139685788616

> <r_i_glide_metal>
0

> <r_i_glide_rewards>
-1.42726084056429

> <r_i_glide_evdw>
-43.6852531433105

> <r_i_glide_ecoul>
-5.90638256072998

> <r_i_glide_erotb>
0.447782355423934

> <r_i_glide_esite>
-0.193391339221089

> <r_i_glide_emodel>
-50.0020025942943

> <r_i_glide_energy>
-49.5916357040405

> <r_i_glide_einternal>
3.68147349357605

> <i_i_glide_confnum>
1

> <i_i_glide_posenum>
120

> <r_i_glide_eff_state_penalty>
0

> <s_user_duplicate_titles>
CHEMBL4618_lig435

> <s_m_subgroup_title>
dock_pv

> <s_m_subgroupid>
dock_pv

> <b_m_subgroup_collapsed>
1

$$$$
CHEMBL4618_lig289
                    3D
 Schrodinger Suite 2021-1.
 45 48  0  0  1  0            999 V2000
    9.6619   35.0252   72.7933 C   0  0  0  0  0  0
   10.1281   36.1388   73.4695 C   0  0  0  0  0  0
    9.9442   37.4157   72.9504 C   0  0  0  0  0  0
    8.8966   35.1598   71.6398 C   0  0  0  0  0  0
    8.6420   36.4495   71.1396 C   0  0  0  0  0  0
    9.1949   37.5893   71.7725 C   0  0  0  0  0  0
    8.9394   38.7765   71.1477 N   0  0  0  0  0  0
    8.1630   38.6161   70.1217 C   0  0  0  0  0  0
    7.7209   36.9872   69.7331 S   0  0  0  0  0  0
    7.6411   39.6169   69.3411 O   0  0  0  0  0  0
    8.4748   40.2764   68.4732 C   0  0  0  0  0  0
    8.5212   41.6740   68.4647 C   0  0  0  0  0  0
    9.4172   42.3373   67.6181 C   0  0  0  0  0  0
   10.2498   41.5965   66.7666 C   0  0  0  0  0  0
   10.1211   40.2182   66.7334 C   0  0  0  0  0  0
    9.2454   39.5529   67.5702 C   0  0  0  0  0  0
   11.2176   42.0968   65.9213 O   0  0  0  0  0  0
   11.6103   43.4560   65.9890 C   0  0  0  0  0  0
   12.5415   43.8047   64.8017 C   0  0  0  0  0  0
   13.8535   43.1457   64.7429 N   0  0  0  0  0  0
   13.8567   41.7838   64.2059 C   0  0  0  0  0  0
   15.3093   41.3235   63.9400 C   0  0  0  0  0  0
   16.1220   41.4156   65.1128 O   0  0  0  0  0  0
   16.1537   42.7700   65.5837 C   0  0  0  0  0  0
   14.7226   43.2807   65.9136 C   0  0  0  0  0  0
    9.8569   34.0410   73.1961 H   0  0  0  0  0  0
   10.6885   36.0068   74.3843 H   0  0  0  0  0  0
   10.3697   38.2358   73.4904 H   0  0  0  0  0  0
    8.5210   34.2693   71.1692 H   0  0  0  0  0  0
    7.8851   42.2374   69.1330 H   0  0  0  0  0  0
    9.4599   43.4148   67.6373 H   0  0  0  0  0  0
   10.7245   39.6569   66.0357 H   0  0  0  0  0  0
    9.1883   38.4752   67.5303 H   0  0  0  0  0  0
   12.0984   43.6548   66.9421 H   0  0  0  0  0  0
   10.7320   44.0982   65.9235 H   0  0  0  0  0  0
   12.7168   44.8792   64.7699 H   0  0  0  0  0  0
   12.0136   43.5933   63.8716 H   0  0  0  0  0  0
   13.3212   41.7851   63.2559 H   0  0  0  0  0  0
   13.3222   41.0978   64.8647 H   0  0  0  0  0  0
   15.2989   40.2998   63.5647 H   0  0  0  0  0  0
   15.7538   41.9252   63.1415 H   0  0  0  0  0  0
   16.7819   42.8223   66.4732 H   0  0  0  0  0  0
   16.6307   43.4148   64.8414 H   0  0  0  0  0  0
   14.2808   42.7550   66.7590 H   0  0  0  0  0  0
   14.7768   44.3285   66.2013 H   0  0  0  0  0  0
  1  2  2  0  0  0
  1  4  1  0  0  0
  1 26  1  0  0  0
  2  3  1  0  0  0
  2 27  1  0  0  0
  3  6  2  0  0  0
  3 28  1  0  0  0
  4  5  2  0  0  0
  4 29  1  0  0  0
  5  9  1  0  0  0
  5  6  1  0  0  0
  6  7  1  0  0  0
  7  8  2  0  0  0
  8  9  1  0  0  0
  8 10  1  0  0  0
 10 11  1  0  0  0
 11 12  2  0  0  0
 11 16  1  0  0  0
 12 13  1  0  0  0
 12 30  1  0  0  0
 13 14  2  0  0  0
 13 31  1  0  0  0
 14 15  1  0  0  0
 14 17  1  0  0  0
 15 16  2  0  0  0
 15 32  1  0  0  0
 16 33  1  0  0  0
 17 18  1  0  0  0
 18 19  1  0  0  0
 18 34  1  0  0  0
 18 35  1  0  0  0
 19 20  1  0  0  0
 19 36  1  0  0  0
 19 37  1  0  0  0
 20 21  1  0  0  0
 20 25  1  0  0  0
 21 22  1  0  0  0
 21 38  1  0  0  0
 21 39  1  0  0  0
 22 23  1  0  0  0
 22 40  1  0  0  0
 22 41  1  0  0  0
 23 24  1  0  0  0
 24 25  1  0  0  0
 24 42  1  0  0  0
 24 43  1  0  0  0
 25 44  1  0  0  0
 25 45  1  0  0  0
M  END
> <s_m_entry_id>
6733

> <s_m_entry_name>
dock_pv.163

> <s_m_Source_Path>
/home/csk/Desktop/cluster/DUD-E-result/lkha4

> <s_m_Source_File>
dock_pv.maegz

> <i_m_Source_File_Index>
163

> <chembl_id>
CHEMBL520287

> <chembl_pref_name>
None

> <i_lp_mmshare_version>
53161

> <i_f3d_flags>
0

> <r_lp_tautomer_probability>
1

> <s_lp_Force_Field>
OPLS_2005

> <r_lp_Energy>
36.300752

> <b_lp_Chiralities_Consistent>
1

> <s_lp_Variant>
CHEMBL4618_lig289-1

> <s_i_glide_gridfile>
glide-grid_3chp

> <i_i_glide_lignum>
327

> <i_i_glide_rotatable_bonds>
6

> <r_i_docking_score>
-9.6390177703122

> <r_i_glide_ligand_efficiency>
-0.385560710812488

> <r_i_glide_ligand_efficiency_sa>
-1.12738635636404

> <r_i_glide_ligand_efficiency_ln>
-2.28473606961715

> <r_i_glide_gscore>
-9.6390177703122

> <r_i_glide_lipo>
-5.07355860920507

> <r_i_glide_hbond>
-0.305992243457042

> <r_i_glide_metal>
0

> <r_i_glide_rewards>
-1.58534358684174

> <r_i_glide_evdw>
-47.1688575744629

> <r_i_glide_ecoul>
-7.12420845031738

> <r_i_glide_erotb>
0.752950815462396

> <r_i_glide_esite>
0

> <r_i_glide_emodel>
-81.9536058977985

> <r_i_glide_energy>
-54.2930660247803

> <r_i_glide_einternal>
12.3801593780518

> <i_i_glide_confnum>
34

> <i_i_glide_posenum>
234

> <r_i_glide_eff_state_penalty>
0

> <s_user_duplicate_titles>
CHEMBL4618_lig289,467581

> <s_m_subgroup_title>
dock_pv

> <s_m_subgroupid>
dock_pv

> <b_m_subgroup_collapsed>
1

$$$$
CHEMBL4618_lig406
                    3D
 Schrodinger Suite 2021-1.
 51 55  0  0  1  0            999 V2000
   13.0483   43.0324   66.4369 C   0  0  0  0  0  0
   11.9799   42.6089   65.5198 N   0  0  2  0  0  0
   12.5139   43.0158   64.2118 C   0  0  1  0  0  0
   14.0986   43.6960   65.5227 C   0  0  2  0  0  0
   13.2216   44.3193   64.4392 C   0  0  0  0  0  0
   13.6935   42.1290   63.7897 C   0  0  0  0  0  0
   14.7052   42.6161   64.7307 N   0  0  0  0  0  0
   10.7960   35.2771   74.3258 C   0  0  0  0  0  0
   10.3494   36.5508   73.9656 C   0  0  0  0  0  0
    9.7887   34.2754   72.3436 N   0  0  0  0  0  0
   10.5209   34.1938   73.4884 C   0  0  0  0  0  0
    9.3210   35.4857   72.0273 C   0  0  0  0  0  0
    9.6119   36.6513   72.7772 C   0  0  0  0  0  0
    8.9210   38.0323   71.9401 S   0  0  0  0  0  0
    8.2862   36.9409   70.7420 C   0  0  0  0  0  0
    8.5210   35.6862   70.9512 N   0  0  0  0  0  0
    7.5506   37.4133   69.6828 O   0  0  0  0  0  0
    8.0349   38.4428   68.9099 C   0  0  0  0  0  0
    8.4814   38.1561   67.6297 C   0  0  0  0  0  0
    8.9210   39.1710   66.7950 C   0  0  0  0  0  0
    8.9781   40.4811   67.2579 C   0  0  0  0  0  0
    8.5210   40.7841   68.5425 C   0  0  0  0  0  0
    8.0548   39.7600   69.3520 C   0  0  0  0  0  0
    9.5139   41.4031   66.3986 O   0  0  0  0  0  0
    9.9003   42.6731   66.8907 C   0  0  0  0  0  0
   10.7046   43.3006   65.7579 C   0  0  0  0  0  0
   16.0043   42.2760   64.7436 C   0  0  0  0  0  0
   16.5564   41.5448   63.5364 C   0  0  0  0  0  0
   16.7600   42.5357   65.6780 O   0  0  0  0  0  0
   13.4660   42.2116   67.0174 H   0  0  0  0  0  0
   12.6763   43.7586   67.1568 H   0  0  0  0  0  0
   11.7421   43.0777   63.4562 H   0  0  0  0  0  0
   14.8285   44.3228   66.0335 H   0  0  0  0  0  0
   13.7209   44.6882   63.5478 H   0  0  0  0  0  0
   12.5208   45.0749   64.7401 H   0  0  0  0  0  0
   14.0126   42.4124   62.7864 H   0  0  0  0  0  0
   13.4873   41.0596   63.8362 H   0  0  0  0  0  0
   11.3620   35.1326   75.2353 H   0  0  0  0  0  0
   10.5636   37.4154   74.5757 H   0  0  0  0  0  0
   10.8818   33.2070   73.7440 H   0  0  0  0  0  0
    8.5205   37.1341   67.2980 H   0  0  0  0  0  0
    9.2870   38.9284   65.8097 H   0  0  0  0  0  0
    8.5287   41.7934   68.9248 H   0  0  0  0  0  0
    7.7210   39.9791   70.3400 H   0  0  0  0  0  0
   10.5023   42.6003   67.7990 H   0  0  0  0  0  0
    9.0190   43.2789   67.1097 H   0  0  0  0  0  0
   10.8562   44.3553   65.9400 H   0  0  0  0  0  0
   10.0887   43.2428   64.8607 H   0  0  0  0  0  0
   16.0366   40.6170   63.3107 H   0  0  0  0  0  0
   16.4139   42.2094   62.6863 H   0  0  0  0  0  0
   17.6330   41.4160   63.6181 H   0  0  0  0  0  0
  1  2  1  0  0  0
  1  4  1  0  0  0
  1 30  1  0  0  0
  1 31  1  0  0  0
  2  3  1  0  0  0
  2 26  1  0  0  0
  3  5  1  0  0  0
  3  6  1  0  0  0
  3 32  1  0  0  0
  4  5  1  0  0  0
  4  7  1  0  0  0
  4 33  1  0  0  0
  5 34  1  0  0  0
  5 35  1  0  0  0
  6  7  1  0  0  0
  6 36  1  0  0  0
  6 37  1  0  0  0
  7 27  1  0  0  0
  8  9  2  0  0  0
  8 11  1  0  0  0
  8 38  1  0  0  0
  9 13  1  0  0  0
  9 39  1  0  0  0
 10 12  1  0  0  0
 10 11  2  0  0  0
 11 40  1  0  0  0
 12 13  2  0  0  0
 12 16  1  0  0  0
 13 14  1  0  0  0
 14 15  1  0  0  0
 15 16  2  0  0  0
 15 17  1  0  0  0
 17 18  1  0  0  0
 18 19  2  0  0  0
 18 23  1  0  0  0
 19 20  1  0  0  0
 19 41  1  0  0  0
 20 21  2  0  0  0
 20 42  1  0  0  0
 21 22  1  0  0  0
 21 24  1  0  0  0
 22 23  2  0  0  0
 22 43  1  0  0  0
 23 44  1  0  0  0
 24 25  1  0  0  0
 25 26  1  0  0  0
 25 45  1  0  0  0
 25 46  1  0  0  0
 26 47  1  0  0  0
 26 48  1  0  0  0
 27 28  1  0  0  0
 27 29  2  0  0  0
 28 49  1  0  0  0
 28 50  1  0  0  0
 28 51  1  0  0  0
M  END
> <s_m_entry_id>
6734

> <s_m_entry_name>
dock_pv.164

> <s_m_Source_Path>
/home/csk/Desktop/cluster/DUD-E-result/lkha4

> <s_m_Source_File>
dock_pv.maegz

> <i_m_Source_File_Index>
164

> <chembl_id>
CHEMBL2207740

> <chembl_pref_name>
None

> <i_lp_mmshare_version>
53161

> <i_f3d_flags>
0

> <r_lp_tautomer_probability>
1

> <s_lp_Force_Field>
OPLS_2005

> <r_lp_Energy>
83.881613

> <b_lp_Chiralities_Consistent>
1

> <s_lp_Variant>
CHEMBL4618_lig406-1

> <s_i_glide_gridfile>
glide-grid_3chp

> <i_i_glide_lignum>
472

> <i_i_glide_rotatable_bonds>
7

> <r_i_docking_score>
-9.62709443504403

> <r_i_glide_ligand_efficiency>
-0.331968773622208

> <r_i_glide_ligand_efficiency_sa>
-1.01991324765702

> <r_i_glide_ligand_efficiency_ln>
-2.20436050357364

> <r_i_glide_gscore>
-9.62709443504403

> <r_i_glide_lipo>
-5.07825513526546

> <r_i_glide_hbond>
-0.32

> <r_i_glide_metal>
0

> <r_i_glide_rewards>
-1.14266166497369

> <r_i_glide_evdw>
-50.0393867492676

> <r_i_glide_ecoul>
-7.35691165924072

> <r_i_glide_erotb>
0.701498567721789

> <r_i_glide_esite>
-0.182170116177184

> <r_i_glide_emodel>
-83.4387225828219

> <r_i_glide_energy>
-57.3962984085083

> <r_i_glide_einternal>
12.1581592559814

> <i_i_glide_confnum>
1

> <i_i_glide_posenum>
173

> <r_i_glide_eff_state_penalty>
0

> <s_user_duplicate_titles>
CHEMBL4618_lig406

> <s_m_subgroup_title>
dock_pv

> <s_m_subgroupid>
dock_pv

> <b_m_subgroup_collapsed>
1

$$$$
CHEMBL4618_lig162
                    3D
 Schrodinger Suite 2021-1.
 52 53  0  0  1  0            999 V2000
   15.8859   42.4620   64.9539 C   0  0  0  0  0  0
   16.5118   41.4160   64.7421 O   0  0  0  0  0  0
    8.1236   37.5622   71.1047 C   0  0  0  0  0  0
   11.1135   41.9912   66.5752 N   0  0  1  0  0  0
    8.0739   36.9116   72.4836 C   0  0  0  0  0  0
    8.2948   38.8646   68.6195 C   0  0  0  0  0  0
   16.3849   43.5696   65.5400 O   0  0  0  0  0  0
    7.7235   36.9051   69.9387 C   0  0  0  0  0  0
    8.5227   38.8859   71.0255 C   0  0  0  0  0  0
    7.8268   37.5511   68.7051 C   0  0  0  0  0  0
    8.5981   39.5366   69.8041 C   0  0  0  0  0  0
    9.1639   35.8937   72.7996 C   0  0  0  0  0  0
    8.4335   39.4173   67.3585 O   0  0  0  0  0  0
    8.9148   40.7577   67.1747 C   0  0  0  0  0  0
   14.4029   42.5941   64.5849 C   0  0  0  0  0  0
   13.4116   42.8596   65.7576 C   0  0  0  0  0  0
   10.4165   40.7082   66.8088 C   0  0  0  0  0  0
   12.4484   41.6716   66.0291 C   0  0  0  0  0  0
   10.3398   42.8777   65.7006 C   0  0  0  0  0  0
   17.7700   43.6550   65.8429 C   0  0  0  0  0  0
    9.9312   36.0298   73.9612 C   0  0  0  0  0  0
    9.3209   34.7634   71.9960 C   0  0  0  0  0  0
   10.2082   33.7582   72.3554 C   0  0  0  0  0  0
   10.8092   35.0159   74.3367 C   0  0  0  0  0  0
   10.9246   33.8787   73.5402 C   0  0  0  0  0  0
    8.1210   37.6996   73.2341 H   0  0  0  0  0  0
    7.1057   36.4530   72.6498 H   0  0  0  0  0  0
    7.3578   35.8903   69.9708 H   0  0  0  0  0  0
    8.7554   39.4161   71.9308 H   0  0  0  0  0  0
    7.5563   37.0194   67.8072 H   0  0  0  0  0  0
    8.9199   40.5621   69.8158 H   0  0  0  0  0  0
    8.7093   41.4466   67.9916 H   0  0  0  0  0  0
    8.3434   41.1597   66.3401 H   0  0  0  0  0  0
   14.3420   43.4160   63.8737 H   0  0  0  0  0  0
   14.1066   41.7144   64.0120 H   0  0  0  0  0  0
   13.9682   43.0352   66.6795 H   0  0  0  0  0  0
   12.8919   43.8033   65.6113 H   0  0  0  0  0  0
   10.5243   40.0530   65.9412 H   0  0  0  0  0  0
   10.9210   40.2162   67.6376 H   0  0  0  0  0  0
   12.3422   41.0582   65.1393 H   0  0  0  0  0  0
   12.9534   41.0185   66.7398 H   0  0  0  0  0  0
    9.3872   43.1416   66.1602 H   0  0  0  0  0  0
   10.8389   43.8258   65.5168 H   0  0  0  0  0  0
   10.1311   42.4111   64.7402 H   0  0  0  0  0  0
   17.9918   44.6225   66.2929 H   0  0  0  0  0  0
   18.3731   43.5570   64.9385 H   0  0  0  0  0  0
   18.0703   42.8759   66.5448 H   0  0  0  0  0  0
    9.8133   36.8934   74.6005 H   0  0  0  0  0  0
    8.6914   34.6177   71.1388 H   0  0  0  0  0  0
   10.3008   32.8675   71.7511 H   0  0  0  0  0  0
   11.3743   35.0959   75.2545 H   0  0  0  0  0  0
   11.5873   33.0801   73.8427 H   0  0  0  0  0  0
  1  2  2  0  0  0
  1  7  1  0  0  0
  1 15  1  0  0  0
  3  9  2  0  0  0
  3  5  1  0  0  0
  3  8  1  0  0  0
  4 18  1  0  0  0
  4 17  1  0  0  0
  4 19  1  0  0  0
  5 12  1  0  0  0
  5 26  1  0  0  0
  5 27  1  0  0  0
  6 13  1  0  0  0
  6 10  1  0  0  0
  6 11  2  0  0  0
  7 20  1  0  0  0
  8 10  2  0  0  0
  8 28  1  0  0  0
  9 11  1  0  0  0
  9 29  1  0  0  0
 10 30  1  0  0  0
 11 31  1  0  0  0
 12 21  2  0  0  0
 12 22  1  0  0  0
 13 14  1  0  0  0
 14 17  1  0  0  0
 14 32  1  0  0  0
 14 33  1  0  0  0
 15 16  1  0  0  0
 15 34  1  0  0  0
 15 35  1  0  0  0
 16 18  1  0  0  0
 16 36  1  0  0  0
 16 37  1  0  0  0
 17 38  1  0  0  0
 17 39  1  0  0  0
 18 40  1  0  0  0
 18 41  1  0  0  0
 19 42  1  0  0  0
 19 43  1  0  0  0
 19 44  1  0  0  0
 20 45  1  0  0  0
 20 46  1  0  0  0
 20 47  1  0  0  0
 21 24  1  0  0  0
 21 48  1  0  0  0
 22 23  2  0  0  0
 22 49  1  0  0  0
 23 25  1  0  0  0
 23 50  1  0  0  0
 24 25  2  0  0  0
 24 51  1  0  0  0
 25 52  1  0  0  0
M  END
> <s_m_entry_id>
6735

> <s_m_entry_name>
dock_pv.165

> <s_m_Source_Path>
/home/csk/Desktop/cluster/DUD-E-result/lkha4

> <s_m_Source_File>
dock_pv.maegz

> <i_m_Source_File_Index>
165

> <chembl_id>
CHEMBL331917

> <chembl_pref_name>
None

> <i_lp_mmshare_version>
53161

> <i_f3d_flags>
0

> <r_lp_tautomer_probability>
1

> <s_lp_Force_Field>
OPLS_2005

> <r_lp_Energy>
23.582308

> <b_lp_Chiralities_Consistent>
1

> <s_lp_Variant>
CHEMBL4618_lig162-1

> <s_i_glide_gridfile>
glide-grid_3chp

> <i_i_glide_lignum>
188

> <i_i_glide_rotatable_bonds>
11

> <r_i_docking_score>
-9.62198524137136

> <r_i_glide_ligand_efficiency>
-0.384879409654854

> <r_i_glide_ligand_efficiency_sa>
-1.12539421969619

> <r_i_glide_ligand_efficiency_ln>
-2.28069884983447

> <r_i_glide_gscore>
-9.62198524137136

> <r_i_glide_lipo>
-5.57783149850167

> <r_i_glide_hbond>
-0.167949251609697

> <r_i_glide_metal>
0

> <r_i_glide_rewards>
-1.98021590547177

> <r_i_glide_evdw>
-49.4293670654297

> <r_i_glide_ecoul>
-6.33307027816772

> <r_i_glide_erotb>
1.62544030920843

> <r_i_glide_esite>
-0.1

> <r_i_glide_emodel>
-81.5898209184841

> <r_i_glide_energy>
-55.7624373435974

> <r_i_glide_einternal>
16.0711402893066

> <i_i_glide_confnum>
128

> <i_i_glide_posenum>
218

> <r_i_glide_eff_state_penalty>
0

> <s_user_duplicate_titles>
CHEMBL4618_lig162,192325

> <s_m_subgroup_title>
dock_pv

> <s_m_subgroupid>
dock_pv

> <b_m_subgroup_collapsed>
1

$$$$
CHEMBL4618_lig287
                    3D
 Schrodinger Suite 2021-1.
 48 51  0  0  1  0            999 V2000
   10.2891   36.1116   73.6318 C   0  0  0  0  0  0
    9.7257   34.9629   73.0808 C   0  0  0  0  0  0
    8.9210   35.0189   71.9400 C   0  0  0  0  0  0
   10.1210   37.3588   73.0291 C   0  0  0  0  0  0
    9.3192   37.4104   71.8808 C   0  0  0  0  0  0
    8.6914   36.2689   71.3503 C   0  0  0  0  0  0
    7.9336   36.6160   70.2716 N   0  0  0  0  0  0
    8.1861   37.8948   70.1389 C   0  0  0  0  0  0
    9.0092   38.4696   71.0730 O   0  0  0  0  0  0
    7.5978   38.6731   69.1772 O   0  0  0  0  0  0
    8.2461   39.7641   68.6574 C   0  0  0  0  0  0
    7.7522   41.0479   68.8692 C   0  0  0  0  0  0
    8.3214   42.1344   68.2161 C   0  0  0  0  0  0
    9.3829   41.9480   67.3340 C   0  0  0  0  0  0
    9.8978   40.6576   67.1400 C   0  0  0  0  0  0
    9.3210   39.5739   67.7940 C   0  0  0  0  0  0
    9.8538   43.0863   66.7174 O   0  0  0  0  0  0
   10.7202   43.0062   65.5920 C   0  0  0  0  0  0
   12.0998   43.6254   65.9300 C   0  0  0  0  0  0
   13.3353   42.8698   65.6494 N   0  0  1  0  0  0
   13.2688   41.9194   64.5349 C   0  0  0  0  0  0
   14.5823   41.1726   64.3452 C   0  0  0  0  0  0
   15.7258   42.1330   64.0702 C   0  0  0  0  0  0
   15.8155   43.1504   65.2149 C   0  0  0  0  0  0
   14.4571   43.8160   65.5207 C   0  0  0  0  0  0
   16.9210   41.4160   63.9400 O   0  0  0  0  0  0
   10.8894   36.0267   74.5272 H   0  0  0  0  0  0
    9.8988   34.0099   73.5615 H   0  0  0  0  0  0
    8.4624   34.1269   71.5400 H   0  0  0  0  0  0
   10.5922   38.2217   73.4544 H   0  0  0  0  0  0
    6.9210   41.2074   69.5328 H   0  0  0  0  0  0
    7.9172   43.1251   68.3728 H   0  0  0  0  0  0
   10.7391   40.4636   66.4942 H   0  0  0  0  0  0
    9.6945   38.5776   67.6136 H   0  0  0  0  0  0
   10.2575   43.6263   64.8244 H   0  0  0  0  0  0
   10.7399   42.0263   65.1400 H   0  0  0  0  0  0
   12.1228   43.8160   67.0017 H   0  0  0  0  0  0
   12.1365   44.5995   65.4395 H   0  0  0  0  0  0
   12.9785   42.4456   63.6231 H   0  0  0  0  0  0
   12.5210   41.1602   64.7402 H   0  0  0  0  0  0
   14.4800   40.4444   63.5400 H   0  0  0  0  0  0
   14.7696   40.6160   65.2584 H   0  0  0  0  0  0
   15.5618   42.6328   63.1156 H   0  0  0  0  0  0
   16.2213   42.7070   66.1229 H   0  0  0  0  0  0
   16.5373   43.9224   64.9496 H   0  0  0  0  0  0
   14.2244   44.5442   64.7404 H   0  0  0  0  0  0
   14.5363   44.3713   66.4546 H   0  0  0  0  0  0
   17.4957   41.9597   63.3690 H   0  0  0  0  0  0
  1  2  2  0  0  0
  1  4  1  0  0  0
  1 27  1  0  0  0
  2  3  1  0  0  0
  2 28  1  0  0  0
  3  6  2  0  0  0
  3 29  1  0  0  0
  4  5  2  0  0  0
  4 30  1  0  0  0
  5  9  1  0  0  0
  5  6  1  0  0  0
  6  7  1  0  0  0
  7  8  2  0  0  0
  8  9  1  0  0  0
  8 10  1  0  0  0
 10 11  1  0  0  0
 11 16  1  0  0  0
 11 12  2  0  0  0
 12 13  1  0  0  0
 12 31  1  0  0  0
 13 14  2  0  0  0
 13 32  1  0  0  0
 14 15  1  0  0  0
 14 17  1  0  0  0
 15 16  2  0  0  0
 15 33  1  0  0  0
 16 34  1  0  0  0
 17 18  1  0  0  0
 18 19  1  0  0  0
 18 35  1  0  0  0
 18 36  1  0  0  0
 19 20  1  0  0  0
 19 37  1  0  0  0
 19 38  1  0  0  0
 20 21  1  0  0  0
 20 25  1  0  0  0
 21 22  1  0  0  0
 21 39  1  0  0  0
 21 40  1  0  0  0
 22 23  1  0  0  0
 22 41  1  0  0  0
 22 42  1  0  0  0
 23 24  1  0  0  0
 23 26  1  0  0  0
 23 43  1  0  0  0
 24 25  1  0  0  0
 24 44  1  0  0  0
 24 45  1  0  0  0
 25 46  1  0  0  0
 25 47  1  0  0  0
 26 48  1  0  0  0
M  END
> <s_m_entry_id>
6736

> <s_m_entry_name>
dock_pv.166

> <s_m_Source_Path>
/home/csk/Desktop/cluster/DUD-E-result/lkha4

> <s_m_Source_File>
dock_pv.maegz

> <i_m_Source_File_Index>
166

> <chembl_id>
CHEMBL481343

> <chembl_pref_name>
None

> <i_lp_mmshare_version>
53161

> <i_f3d_flags>
0

> <r_lp_tautomer_probability>
1

> <s_lp_Force_Field>
OPLS_2005

> <r_lp_Energy>
29.756416

> <b_lp_Chiralities_Consistent>
1

> <s_lp_Variant>
CHEMBL4618_lig287-1

> <s_i_glide_gridfile>
glide-grid_3chp

> <i_i_glide_lignum>
325

> <i_i_glide_rotatable_bonds>
7

> <r_i_docking_score>
-9.6145232023544

> <r_i_glide_ligand_efficiency>
-0.369789353936708

> <r_i_glide_ligand_efficiency_sa>
-1.09549950598665

> <r_i_glide_ligand_efficiency_ln>
-2.25793922624915

> <r_i_glide_gscore>
-9.6145232023544

> <r_i_glide_lipo>
-4.88105380337137

> <r_i_glide_hbond>
-0.136664992285123

> <r_i_glide_metal>
0

> <r_i_glide_rewards>
-1.60180205812766

> <r_i_glide_evdw>
-47.0002632141113

> <r_i_glide_ecoul>
-10.3854064941406

> <r_i_glide_erotb>
0.912821786256415

> <r_i_glide_esite>
0

> <r_i_glide_emodel>
-91.1260019232733

> <r_i_glide_energy>
-57.385669708252

> <r_i_glide_einternal>
14.495044708252

> <i_i_glide_confnum>
52

> <i_i_glide_posenum>
355

> <r_i_glide_eff_state_penalty>
0

> <s_user_duplicate_titles>
CHEMBL4618_lig287,467637

> <s_m_subgroup_title>
dock_pv

> <s_m_subgroupid>
dock_pv

> <b_m_subgroup_collapsed>
1

$$$$
CHEMBL4618_lig282
                    3D
 Schrodinger Suite 2021-1.
 58 62  0  0  1  0            999 V2000
    9.2800   35.6438   72.8161 C   0  0  0  0  0  0
   10.1217   36.6933   73.1345 C   0  0  0  0  0  0
   10.2100   37.8159   72.3160 C   0  0  0  0  0  0
    8.3945   35.7308   71.7447 C   0  0  0  0  0  0
    8.3825   36.9132   70.9858 C   0  0  0  0  0  0
    9.3094   37.9491   71.2529 C   0  0  0  0  0  0
    9.2538   39.0161   70.4166 N   0  0  0  0  0  0
    8.2832   38.8958   69.5544 C   0  0  0  0  0  0
    7.3633   37.4158   69.6391 S   0  0  0  0  0  0
    7.8433   39.8581   68.6690 O   0  0  0  0  0  0
    8.7572   40.5918   67.9363 C   0  0  0  0  0  0
    9.7208   39.9419   67.1734 C   0  0  0  0  0  0
   10.7050   40.6614   66.4981 C   0  0  0  0  0  0
   10.7188   42.0562   66.5325 C   0  0  0  0  0  0
    9.6588   42.7051   67.1708 C   0  0  0  0  0  0
    8.6929   41.9863   67.8870 C   0  0  0  0  0  0
   11.7253   42.8227   65.9575 O   0  0  0  0  0  0
   13.0341   42.2433   65.7729 C   0  0  0  0  0  0
   14.0816   43.3484   65.4705 C   0  0  0  0  0  0
   15.4482   43.0197   65.9398 N   0  0  1  0  0  0
   16.3515   42.6412   64.8442 C   0  0  0  0  0  0
   17.8016   42.3747   65.3173 C   0  0  0  0  0  0
   18.4581   43.4379   66.2375 C   0  0  0  0  0  0
   17.3956   43.7729   67.3178 C   0  0  0  0  0  0
   16.0160   44.1196   66.7318 C   0  0  0  0  0  0
   18.6476   44.6045   65.4604 O   0  0  0  0  0  0
   19.8018   42.8990   66.7862 C   0  0  0  0  0  0
   20.9206   42.8936   65.9379 C   0  0  0  0  0  0
   22.1337   42.3537   66.3539 C   0  0  0  0  0  0
   22.2379   41.7924   67.6217 C   0  0  0  0  0  0
   21.1390   41.7670   68.4738 C   0  0  0  0  0  0
   19.9268   42.3119   68.0565 C   0  0  0  0  0  0
    9.3211   34.7500   73.4225 H   0  0  0  0  0  0
   10.7974   36.5884   73.9715 H   0  0  0  0  0  0
   10.9887   38.5391   72.4870 H   0  0  0  0  0  0
    7.7240   34.9093   71.5388 H   0  0  0  0  0  0
    9.7210   38.8627   67.1385 H   0  0  0  0  0  0
   11.4541   40.1224   65.9396 H   0  0  0  0  0  0
    9.6089   43.7825   67.1400 H   0  0  0  0  0  0
    7.9067   42.5095   68.4138 H   0  0  0  0  0  0
   13.0208   41.5217   64.9548 H   0  0  0  0  0  0
   13.3202   41.7029   66.6775 H   0  0  0  0  0  0
   13.7245   44.2651   65.9336 H   0  0  0  0  0  0
   14.0824   43.5643   64.4009 H   0  0  0  0  0  0
   16.3824   43.4160   64.0846 H   0  0  0  0  0  0
   15.9413   41.7644   64.3423 H   0  0  0  0  0  0
   18.4306   42.2164   64.4405 H   0  0  0  0  0  0
   17.8532   41.4158   65.8050 H   0  0  0  0  0  0
   17.2826   42.9969   68.0719 H   0  0  0  0  0  0
   17.7538   44.6237   67.8986 H   0  0  0  0  0  0
   16.1210   45.0090   66.1136 H   0  0  0  0  0  0
   15.3320   44.3717   67.5394 H   0  0  0  0  0  0
   18.7749   44.3286   64.5434 H   0  0  0  0  0  0
   20.8516   43.2944   64.9365 H   0  0  0  0  0  0
   22.9872   42.3422   65.6886 H   0  0  0  0  0  0
   23.1762   41.3511   67.9304 H   0  0  0  0  0  0
   21.2236   41.3108   69.4498 H   0  0  0  0  0  0
   19.0987   42.2501   68.7421 H   0  0  0  0  0  0
  1  4  1  0  0  0
  1  2  2  0  0  0
  1 33  1  0  0  0
  2  3  1  0  0  0
  2 34  1  0  0  0
  3  6  2  0  0  0
  3 35  1  0  0  0
  4  5  2  0  0  0
  4 36  1  0  0  0
  5  9  1  0  0  0
  5  6  1  0  0  0
  6  7  1  0  0  0
  7  8  2  0  0  0
  8  9  1  0  0  0
  8 10  1  0  0  0
 10 11  1  0  0  0
 11 16  1  0  0  0
 11 12  2  0  0  0
 12 13  1  0  0  0
 12 37  1  0  0  0
 13 14  2  0  0  0
 13 38  1  0  0  0
 14 17  1  0  0  0
 14 15  1  0  0  0
 15 16  2  0  0  0
 15 39  1  0  0  0
 16 40  1  0  0  0
 17 18  1  0  0  0
 18 19  1  0  0  0
 18 41  1  0  0  0
 18 42  1  0  0  0
 19 20  1  0  0  0
 19 43  1  0  0  0
 19 44  1  0  0  0
 20 21  1  0  0  0
 20 25  1  0  0  0
 21 22  1  0  0  0
 21 45  1  0  0  0
 21 46  1  0  0  0
 22 23  1  0  0  0
 22 47  1  0  0  0
 22 48  1  0  0  0
 23 24  1  0  0  0
 23 26  1  0  0  0
 23 27  1  0  0  0
 24 25  1  0  0  0
 24 49  1  0  0  0
 24 50  1  0  0  0
 25 51  1  0  0  0
 25 52  1  0  0  0
 26 53  1  0  0  0
 27 28  2  0  0  0
 27 32  1  0  0  0
 28 29  1  0  0  0
 28 54  1  0  0  0
 29 30  2  0  0  0
 29 55  1  0  0  0
 30 31  1  0  0  0
 30 56  1  0  0  0
 31 32  2  0  0  0
 31 57  1  0  0  0
 32 58  1  0  0  0
M  END
> <s_m_entry_id>
6737

> <s_m_entry_name>
dock_pv.167

> <s_m_Source_Path>
/home/csk/Desktop/cluster/DUD-E-result/lkha4

> <s_m_Source_File>
dock_pv.maegz

> <i_m_Source_File_Index>
167

> <chembl_id>
CHEMBL480136

> <chembl_pref_name>
None

> <i_lp_mmshare_version>
53161

> <i_f3d_flags>
0

> <r_lp_tautomer_probability>
1

> <s_lp_Force_Field>
OPLS_2005

> <r_lp_Energy>
41.307454

> <b_lp_Chiralities_Consistent>
1

> <s_lp_Variant>
CHEMBL4618_lig282-1

> <s_i_glide_gridfile>
glide-grid_3chp

> <i_i_glide_lignum>
320

> <i_i_glide_rotatable_bonds>
8

> <r_i_docking_score>
-9.61317679090693

> <r_i_glide_ligand_efficiency>
-0.300411774715841

> <r_i_glide_ligand_efficiency_sa>
-0.953747933313308

> <r_i_glide_ligand_efficiency_ln>
-2.15265232878641

> <r_i_glide_gscore>
-9.61317679090693

> <r_i_glide_lipo>
-5.327889358161

> <r_i_glide_hbond>
-0.174059813674409

> <r_i_glide_metal>
0

> <r_i_glide_rewards>
-0.877150148368826

> <r_i_glide_evdw>
-49.7071800231934

> <r_i_glide_ecoul>
-9.67582702636719

> <r_i_glide_erotb>
0.702655584412059

> <r_i_glide_esite>
0

> <r_i_glide_emodel>
-85.8426706626941

> <r_i_glide_energy>
-59.3830070495605

> <r_i_glide_einternal>
9.69098472595215

> <i_i_glide_confnum>
7

> <i_i_glide_posenum>
5

> <r_i_glide_eff_state_penalty>
0

> <s_user_duplicate_titles>
CHEMBL4618_lig282,466732

> <s_m_subgroup_title>
dock_pv

> <s_m_subgroupid>
dock_pv

> <b_m_subgroup_collapsed>
1

$$$$
CHEMBL4618_lig145
                    3D
 Schrodinger Suite 2021-1.
 51 52  0  0  1  0            999 V2000
   16.8529   42.4002   65.0841 S   0  0  0  0  0  0
   15.5030   43.3949   65.9413 C   0  0  0  0  0  0
   16.8541   41.0160   65.5400 O   0  0  0  0  0  0
   18.0801   43.1953   65.1402 O   0  0  0  0  0  0
   16.3584   42.2160   63.4615 N   0  0  0  0  0  0
   14.1369   42.6824   66.0293 C   0  0  0  0  0  0
   13.1252   43.4821   65.3501 N   0  0  2  0  0  0
    7.9734   38.0859   69.6262 C   0  0  0  0  0  0
    7.4748   37.1382   70.7031 C   0  0  0  0  0  0
    8.8049   39.8845   67.6642 C   0  0  0  0  0  0
    8.2082   39.4169   69.9401 C   0  0  0  0  0  0
    8.1070   37.6617   68.3076 C   0  0  0  0  0  0
    8.5624   40.3304   68.9618 C   0  0  0  0  0  0
    8.5255   38.5608   67.3307 C   0  0  0  0  0  0
    8.5395   36.5842   71.6425 C   0  0  0  0  0  0
   11.0281   42.1294   65.8617 C   0  0  0  0  0  0
    9.3352   40.6770   66.6762 O   0  0  0  0  0  0
   11.8036   43.4514   65.9853 C   0  0  0  0  0  0
   10.0209   41.8821   66.9970 C   0  0  0  0  0  0
   13.1342   43.2672   63.9098 C   0  0  0  0  0  0
    9.0876   37.3786   72.6502 C   0  0  0  0  0  0
    8.9207   35.2473   71.5401 C   0  0  0  0  0  0
    9.8328   34.6909   72.4273 C   0  0  0  0  0  0
    9.9971   36.8214   73.5504 C   0  0  0  0  0  0
   10.3503   35.4778   73.4512 C   0  0  0  0  0  0
   15.8731   43.6383   66.9359 H   0  0  0  0  0  0
   15.4491   44.3282   65.3869 H   0  0  0  0  0  0
   16.6658   42.9638   62.8247 H   0  0  0  0  0  0
   15.4305   41.8335   63.2459 H   0  0  0  0  0  0
   14.1632   41.6637   65.6356 H   0  0  0  0  0  0
   13.8657   42.6018   67.0831 H   0  0  0  0  0  0
    6.7136   37.6433   71.2990 H   0  0  0  0  0  0
    6.9603   36.3156   70.2108 H   0  0  0  0  0  0
    8.1209   39.7530   70.9574 H   0  0  0  0  0  0
    7.9119   36.6345   68.0429 H   0  0  0  0  0  0
    8.7189   41.3631   69.2331 H   0  0  0  0  0  0
    8.6842   38.2238   66.3179 H   0  0  0  0  0  0
   10.4286   42.2201   64.9573 H   0  0  0  0  0  0
   11.6809   41.2733   65.6797 H   0  0  0  0  0  0
   11.9005   43.7537   67.0284 H   0  0  0  0  0  0
   11.2069   44.2412   65.5312 H   0  0  0  0  0  0
   10.5598   41.8052   67.9421 H   0  0  0  0  0  0
    9.3047   42.7024   67.0792 H   0  0  0  0  0  0
   12.4045   43.9171   63.4289 H   0  0  0  0  0  0
   14.1141   43.4997   63.4890 H   0  0  0  0  0  0
   12.9182   42.2298   63.6549 H   0  0  0  0  0  0
    8.7893   38.4127   72.7470 H   0  0  0  0  0  0
    8.5209   34.6294   70.7526 H   0  0  0  0  0  0
   10.1190   33.6529   72.3405 H   0  0  0  0  0  0
   10.4178   37.4168   74.3451 H   0  0  0  0  0  0
   11.0455   35.0496   74.1576 H   0  0  0  0  0  0
  1  2  1  0  0  0
  1  3  2  0  0  0
  1  4  2  0  0  0
  1  5  1  0  0  0
  2  6  1  0  0  0
  2 26  1  0  0  0
  2 27  1  0  0  0
  5 28  1  0  0  0
  5 29  1  0  0  0
  6  7  1  0  0  0
  6 30  1  0  0  0
  6 31  1  0  0  0
  7 18  1  0  0  0
  7 20  1  0  0  0
  8 12  1  0  0  0
  8  9  1  0  0  0
  8 11  2  0  0  0
  9 15  1  0  0  0
  9 32  1  0  0  0
  9 33  1  0  0  0
 10 17  1  0  0  0
 10 13  2  0  0  0
 10 14  1  0  0  0
 11 13  1  0  0  0
 11 34  1  0  0  0
 12 14  2  0  0  0
 12 35  1  0  0  0
 13 36  1  0  0  0
 14 37  1  0  0  0
 15 21  1  0  0  0
 15 22  2  0  0  0
 16 18  1  0  0  0
 16 19  1  0  0  0
 16 38  1  0  0  0
 16 39  1  0  0  0
 17 19  1  0  0  0
 18 40  1  0  0  0
 18 41  1  0  0  0
 19 42  1  0  0  0
 19 43  1  0  0  0
 20 44  1  0  0  0
 20 45  1  0  0  0
 20 46  1  0  0  0
 21 24  2  0  0  0
 21 47  1  0  0  0
 22 23  1  0  0  0
 22 48  1  0  0  0
 23 25  2  0  0  0
 23 49  1  0  0  0
 24 25  1  0  0  0
 24 50  1  0  0  0
 25 51  1  0  0  0
M  END
> <s_m_entry_id>
6738

> <s_m_entry_name>
dock_pv.168

> <s_m_Source_Path>
/home/csk/Desktop/cluster/DUD-E-result/lkha4

> <s_m_Source_File>
dock_pv.maegz

> <i_m_Source_File_Index>
168

> <chembl_id>
CHEMBL421048

> <chembl_pref_name>
None

> <i_lp_mmshare_version>
53161

> <i_f3d_flags>
0

> <r_lp_tautomer_probability>
1

> <s_lp_Force_Field>
OPLS_2005

> <r_lp_Energy>
18.122662

> <b_lp_Chiralities_Consistent>
1

> <s_lp_Variant>
CHEMBL4618_lig145-1

> <s_i_glide_gridfile>
glide-grid_3chp

> <i_i_glide_lignum>
171

> <i_i_glide_rotatable_bonds>
10

> <r_i_docking_score>
-9.61303305803713

> <r_i_glide_ligand_efficiency>
-0.384521322321485

> <r_i_glide_ligand_efficiency_sa>
-1.12434716598271

> <r_i_glide_ligand_efficiency_ln>
-2.27857691410897

> <r_i_glide_gscore>
-9.61303305803713

> <r_i_glide_lipo>
-5.03904742102694

> <r_i_glide_hbond>
-0.142869276516011

> <r_i_glide_metal>
0

> <r_i_glide_rewards>
-1.81554194367887

> <r_i_glide_evdw>
-32.0946502685547

> <r_i_glide_ecoul>
-12.840765953064

> <r_i_glide_erotb>
1.31527298957202

> <r_i_glide_esite>
-0.4

> <r_i_glide_emodel>
-62.5988224426627

> <r_i_glide_energy>
-44.9354162216187

> <r_i_glide_einternal>
14.2724828720093

> <i_i_glide_confnum>
40

> <i_i_glide_posenum>
320

> <r_i_glide_eff_state_penalty>
0

> <s_user_duplicate_titles>
CHEMBL4618_lig145,192720

> <s_m_subgroup_title>
dock_pv

> <s_m_subgroupid>
dock_pv

> <b_m_subgroup_collapsed>
1

$$$$
CHEMBL4618_lig241
                    3D
 Schrodinger Suite 2021-1.
 71 74  0  0  1  0            999 V2000
    8.0995   39.8725   68.6110 C   0  0  0  0  0  0
    9.0230   39.3895   67.6908 C   0  0  0  0  0  0
    9.7996   40.2748   66.9551 C   0  0  0  0  0  0
    9.6664   41.6584   67.1381 C   0  0  0  0  0  0
    8.6852   42.1432   68.0059 C   0  0  0  0  0  0
    7.9052   41.2497   68.7401 C   0  0  0  0  0  0
   10.4686   42.5934   66.4527 N   0  0  0  0  0  0
   11.7568   42.4241   66.0734 C   0  0  0  0  0  0
   12.3892   43.5783   65.2525 C   0  0  0  0  0  0
   12.4113   41.4160   66.3400 O   0  0  0  0  0  0
   13.7232   43.3081   64.6898 N   0  0  2  0  0  0
    7.3211   38.9913   69.3247 O   0  0  0  0  0  0
    7.9276   38.1495   70.2282 C   0  0  0  0  0  0
    8.5359   38.6517   71.3725 C   0  0  0  0  0  0
    9.1646   37.8010   72.2788 C   0  0  0  0  0  0
    9.1760   36.4247   72.0571 C   0  0  0  0  0  0
    8.5210   35.9235   70.9336 C   0  0  0  0  0  0
    7.9070   36.7768   70.0192 C   0  0  0  0  0  0
   13.7588   42.1787   63.7620 C   0  0  0  0  0  0
   14.8389   43.3012   65.6488 C   0  0  0  0  0  0
   16.2593   43.0921   65.0356 C   0  0  0  0  0  0
   17.2833   44.1863   65.3930 C   0  0  0  0  0  0
   18.1759   43.8277   66.4987 N   0  0  1  0  0  0
   19.1916   42.8524   66.0536 C   0  0  0  0  0  0
   18.8502   45.0403   66.9540 C   0  0  0  0  0  0
   20.1645   42.4212   67.1515 C   0  0  0  0  0  0
   21.5068   42.2051   66.8390 C   0  0  0  0  0  0
   22.3981   41.8164   67.8347 C   0  0  0  0  0  0
   21.9579   41.6462   69.1543 C   0  0  0  0  0  0
   20.6075   41.8564   69.4583 C   0  0  0  0  0  0
   19.7208   42.2345   68.4625 C   0  0  0  0  0  0
   22.9228   41.2072   70.2250 C   0  0  0  0  0  0
   22.3600   41.0160   71.4504 O   0  0  0  0  0  0
   24.1172   41.0159   70.0052 O   0  0  0  0  0  0
    9.9110   35.4929   72.9692 C   0  0  0  0  0  0
   10.1335   34.2188   72.5432 O   0  0  0  0  0  0
   10.8582   33.6612   73.5398 C   0  0  0  0  0  0
   11.0152   34.6296   74.5127 C   0  0  0  0  0  0
   10.4377   35.7606   74.1465 N   0  0  0  0  0  0
    9.1489   38.3257   67.5525 H   0  0  0  0  0  0
   10.5096   39.8669   66.2508 H   0  0  0  0  0  0
    8.5319   43.2062   68.1323 H   0  0  0  0  0  0
    7.1555   41.6293   69.4190 H   0  0  0  0  0  0
   10.0475   43.4955   66.2916 H   0  0  0  0  0  0
   12.4146   44.4596   65.8861 H   0  0  0  0  0  0
   11.7070   43.8255   64.4382 H   0  0  0  0  0  0
    8.5213   39.7179   71.5408 H   0  0  0  0  0  0
    9.6613   38.2159   73.1401 H   0  0  0  0  0  0
    8.5211   34.8636   70.7445 H   0  0  0  0  0  0
    7.4347   36.3752   69.1399 H   0  0  0  0  0  0
   12.9210   42.2161   63.0809 H   0  0  0  0  0  0
   14.6423   42.2163   63.1399 H   0  0  0  0  0  0
   13.7478   41.2128   64.2673 H   0  0  0  0  0  0
   14.6444   42.4894   66.3403 H   0  0  0  0  0  0
   14.8025   44.2160   66.2402 H   0  0  0  0  0  0
   16.2701   43.0160   63.9508 H   0  0  0  0  0  0
   16.5906   42.1172   65.3843 H   0  0  0  0  0  0
   16.7316   45.0879   65.6569 H   0  0  0  0  0  0
   17.8689   44.4492   64.5093 H   0  0  0  0  0  0
   19.7585   43.2693   65.2173 H   0  0  0  0  0  0
   18.7195   41.9487   65.6709 H   0  0  0  0  0  0
   18.1301   45.8161   67.2131 H   0  0  0  0  0  0
   19.4448   44.8575   67.8490 H   0  0  0  0  0  0
   19.5213   45.4160   66.1809 H   0  0  0  0  0  0
   21.8629   42.3234   65.8257 H   0  0  0  0  0  0
   23.4286   41.6330   67.5628 H   0  0  0  0  0  0
   20.2247   41.7192   70.4600 H   0  0  0  0  0  0
   18.6809   42.3867   68.7137 H   0  0  0  0  0  0
   22.9101   40.4274   71.9844 H   0  0  0  0  0  0
   11.1296   32.6177   73.4385 H   0  0  0  0  0  0
   11.5168   34.5142   75.4640 H   0  0  0  0  0  0
  1 12  1  0  0  0
  1  6  1  0  0  0
  1  2  2  0  0  0
  2  3  1  0  0  0
  2 40  1  0  0  0
  3  4  2  0  0  0
  3 41  1  0  0  0
  4  7  1  0  0  0
  4  5  1  0  0  0
  5  6  2  0  0  0
  5 42  1  0  0  0
  6 43  1  0  0  0
  7  8  1  0  0  0
  7 44  1  0  0  0
  8 10  2  0  0  0
  8  9  1  0  0  0
  9 11  1  0  0  0
  9 45  1  0  0  0
  9 46  1  0  0  0
 11 19  1  0  0  0
 11 20  1  0  0  0
 12 13  1  0  0  0
 13 14  2  0  0  0
 13 18  1  0  0  0
 14 15  1  0  0  0
 14 47  1  0  0  0
 15 16  2  0  0  0
 15 48  1  0  0  0
 16 17  1  0  0  0
 16 35  1  0  0  0
 17 18  2  0  0  0
 17 49  1  0  0  0
 18 50  1  0  0  0
 19 51  1  0  0  0
 19 52  1  0  0  0
 19 53  1  0  0  0
 20 21  1  0  0  0
 20 54  1  0  0  0
 20 55  1  0  0  0
 21 22  1  0  0  0
 21 56  1  0  0  0
 21 57  1  0  0  0
 22 23  1  0  0  0
 22 58  1  0  0  0
 22 59  1  0  0  0
 23 24  1  0  0  0
 23 25  1  0  0  0
 24 26  1  0  0  0
 24 60  1  0  0  0
 24 61  1  0  0  0
 25 62  1  0  0  0
 25 63  1  0  0  0
 25 64  1  0  0  0
 26 27  2  0  0  0
 26 31  1  0  0  0
 27 28  1  0  0  0
 27 65  1  0  0  0
 28 29  2  0  0  0
 28 66  1  0  0  0
 29 30  1  0  0  0
 29 32  1  0  0  0
 30 31  2  0  0  0
 30 67  1  0  0  0
 31 68  1  0  0  0
 32 33  1  0  0  0
 32 34  2  0  0  0
 33 69  1  0  0  0
 35 36  1  0  0  0
 35 39  2  0  0  0
 36 37  1  0  0  0
 37 38  2  0  0  0
 37 70  1  0  0  0
 38 39  1  0  0  0
 38 71  1  0  0  0
M  END
> <s_m_entry_id>
6739

> <s_m_entry_name>
dock_pv.169

> <s_m_Source_Path>
/home/csk/Desktop/cluster/DUD-E-result/lkha4

> <s_m_Source_File>
dock_pv.maegz

> <i_m_Source_File_Index>
169

> <chembl_id>
CHEMBL470755

> <chembl_pref_name>
None

> <i_lp_mmshare_version>
53161

> <i_f3d_flags>
0

> <r_lp_tautomer_probability>
1

> <s_lp_Force_Field>
OPLS_2005

> <r_lp_Energy>
43.245787

> <b_lp_Chiralities_Consistent>
1

> <s_lp_Variant>
CHEMBL4618_lig241-1

> <s_i_glide_gridfile>
glide-grid_3chp

> <i_i_glide_lignum>
276

> <i_i_glide_rotatable_bonds>
15

> <r_i_docking_score>
-9.60850608447737

> <r_i_glide_ligand_efficiency>
-0.246371950884035

> <r_i_glide_ligand_efficiency_sa>
-0.835499378055363

> <r_i_glide_ligand_efficiency_ln>
-2.06033645817711

> <r_i_glide_gscore>
-9.60850608447737

> <r_i_glide_lipo>
-5.13787236485039

> <r_i_glide_hbond>
-0.0089634412440864

> <r_i_glide_metal>
0

> <r_i_glide_rewards>
-0.677688069647158

> <r_i_glide_evdw>
-71.4248809814453

> <r_i_glide_ecoul>
-8.30006980895996

> <r_i_glide_erotb>
1.03227231168052

> <r_i_glide_esite>
0

> <r_i_glide_emodel>
-125.863581951557

> <r_i_glide_energy>
-79.7249507904053

> <r_i_glide_einternal>
12.2487306594849

> <i_i_glide_confnum>
9

> <i_i_glide_posenum>
159

> <r_i_glide_eff_state_penalty>
0

> <s_user_duplicate_titles>
CHEMBL4618_lig241,466917

> <s_m_subgroup_title>
dock_pv

> <s_m_subgroupid>
dock_pv

> <b_m_subgroup_collapsed>
1

$$$$
CHEMBL4618_lig122
                    3D
 Schrodinger Suite 2021-1.
 45 48  0  0  1  0            999 V2000
   16.5213   41.8159   64.1932 N   0  0  0  0  0  0
   16.9920   42.6724   65.1486 C   0  0  0  0  0  0
   18.4970   43.8473   66.5443 N   0  3  0  0  0  0
   14.7905   42.9184   65.1400 N   0  0  0  0  0  0
   15.2260   41.9981   64.2130 C   0  0  0  0  0  0
   15.9267   43.3397   65.8045 C   0  0  0  0  0  0
   18.3097   42.9660   65.5401 C   0  0  0  0  0  0
   16.1530   44.2143   66.8686 C   0  0  0  0  0  0
   19.6750   44.1280   66.8926 O   0  5  0  0  0  0
   17.4873   44.4412   67.2116 C   0  0  0  0  0  0
    8.4996   40.3934   68.2266 C   0  0  0  0  0  0
    7.5323   39.4983   68.9902 C   0  0  0  0  0  0
   10.2994   42.0080   66.7983 C   0  0  0  0  0  0
   13.4219   43.3922   65.3292 C   0  0  0  0  0  0
    8.3639   41.7859   68.2457 C   0  0  0  0  0  0
    9.4831   39.8158   67.4376 C   0  0  0  0  0  0
   10.3793   40.6160   66.7401 C   0  0  0  0  0  0
    9.2500   42.5825   67.5180 C   0  0  0  0  0  0
    8.1155   38.4635   69.9507 C   0  0  0  0  0  0
   11.2195   42.8365   66.1791 O   0  0  0  0  0  0
   12.5026   42.2859   65.8533 C   0  0  0  0  0  0
    8.1190   37.1071   69.6233 C   0  0  0  0  0  0
    8.5285   38.8481   71.2216 C   0  0  0  0  0  0
    8.5194   36.1699   70.5749 C   0  0  0  0  0  0
    8.9349   37.9052   72.1614 C   0  0  0  0  0  0
    8.9211   36.5617   71.8405 C   0  0  0  0  0  0
   14.5159   41.5377   63.5400 H   0  0  0  0  0  0
   19.1946   42.5563   65.0743 H   0  0  0  0  0  0
   15.3342   44.6326   67.4252 H   0  0  0  0  0  0
   17.7857   45.0814   68.0278 H   0  0  0  0  0  0
    6.8500   40.1371   69.5399 H   0  0  0  0  0  0
    6.9209   38.9612   68.2726 H   0  0  0  0  0  0
   13.4352   44.2159   66.0359 H   0  0  0  0  0  0
   13.0623   43.7852   64.3785 H   0  0  0  0  0  0
    7.5713   42.2556   68.8118 H   0  0  0  0  0  0
    9.5687   38.7404   67.3809 H   0  0  0  0  0  0
   11.1337   40.1236   66.1493 H   0  0  0  0  0  0
    9.1297   43.6524   67.5339 H   0  0  0  0  0  0
   12.4114   41.5089   65.0969 H   0  0  0  0  0  0
   12.9467   41.8307   66.7399 H   0  0  0  0  0  0
    7.7914   36.7744   68.6496 H   0  0  0  0  0  0
    8.5212   39.8849   71.4995 H   0  0  0  0  0  0
    8.5210   35.1198   70.3400 H   0  0  0  0  0  0
    9.2587   38.2156   73.1399 H   0  0  0  0  0  0
    9.2270   35.8237   72.5675 H   0  0  0  0  0  0
  1  2  1  0  0  0
  1  5  2  0  0  0
  2  6  2  0  0  0
  2  7  1  0  0  0
  3  7  2  0  0  0
  3  9  1  0  0  0
  3 10  1  0  0  0
  4  5  1  0  0  0
  4 14  1  0  0  0
  4  6  1  0  0  0
  5 27  1  0  0  0
  6  8  1  0  0  0
  7 28  1  0  0  0
  8 10  2  0  0  0
  8 29  1  0  0  0
 10 30  1  0  0  0
 11 15  1  0  0  0
 11 12  1  0  0  0
 11 16  2  0  0  0
 12 19  1  0  0  0
 12 31  1  0  0  0
 12 32  1  0  0  0
 13 20  1  0  0  0
 13 17  2  0  0  0
 13 18  1  0  0  0
 14 21  1  0  0  0
 14 33  1  0  0  0
 14 34  1  0  0  0
 15 18  2  0  0  0
 15 35  1  0  0  0
 16 17  1  0  0  0
 16 36  1  0  0  0
 17 37  1  0  0  0
 18 38  1  0  0  0
 19 22  1  0  0  0
 19 23  2  0  0  0
 20 21  1  0  0  0
 21 39  1  0  0  0
 21 40  1  0  0  0
 22 24  2  0  0  0
 22 41  1  0  0  0
 23 25  1  0  0  0
 23 42  1  0  0  0
 24 26  1  0  0  0
 24 43  1  0  0  0
 25 26  2  0  0  0
 25 44  1  0  0  0
 26 45  1  0  0  0
M  CHG  2   3   1   9  -1
M  END
> <s_m_entry_id>
6740

> <s_m_entry_name>
dock_pv.170

> <s_m_Source_Path>
/home/csk/Desktop/cluster/DUD-E-result/lkha4

> <s_m_Source_File>
dock_pv.maegz

> <i_m_Source_File_Index>
170

> <chembl_id>
CHEMBL276096

> <chembl_pref_name>
None

> <i_lp_mmshare_version>
53161

> <i_f3d_flags>
0

> <r_lp_tautomer_probability>
1

> <s_lp_Force_Field>
OPLS_2005

> <r_lp_Energy>
20.038822

> <b_lp_Chiralities_Consistent>
1

> <s_lp_Variant>
CHEMBL4618_lig122-1

> <s_i_glide_gridfile>
glide-grid_3chp

> <i_i_glide_lignum>
148

> <i_i_glide_rotatable_bonds>
6

> <r_i_docking_score>
-9.60134346809757

> <r_i_glide_ligand_efficiency>
-0.369282441080676

> <r_i_glide_ligand_efficiency_sa>
-1.09399777864526

> <r_i_glide_ligand_efficiency_ln>
-2.25484400890517

> <r_i_glide_gscore>
-9.60134346809757

> <r_i_glide_lipo>
-4.89967038348994

> <r_i_glide_hbond>
0

> <r_i_glide_metal>
0

> <r_i_glide_rewards>
-2.21980209520486

> <r_i_glide_evdw>
-44.6623649597168

> <r_i_glide_ecoul>
-5.80972671508789

> <r_i_glide_erotb>
0.796298523651758

> <r_i_glide_esite>
-0.173592257805499

> <r_i_glide_emodel>
-74.3138047710455

> <r_i_glide_energy>
-50.4720916748047

> <r_i_glide_einternal>
8.14728927612305

> <i_i_glide_confnum>
7

> <i_i_glide_posenum>
215

> <r_i_glide_eff_state_penalty>
0

> <s_user_duplicate_titles>
CHEMBL4618_lig122,14732

> <s_m_subgroup_title>
dock_pv

> <s_m_subgroupid>
dock_pv

> <b_m_subgroup_collapsed>
1

$$$$
CHEMBL4618_lig199
                    3D
 Schrodinger Suite 2021-1.
 41 42  0  0  1  0            999 V2000
    8.6295   41.0026   67.9138 C   0  0  0  0  0  0
    8.3589   42.3119   67.5084 C   0  0  0  0  0  0
    9.2722   43.0149   66.7182 C   0  0  0  0  0  0
   10.4807   42.4177   66.3511 C   0  0  0  0  0  0
   10.7410   41.1005   66.7394 C   0  0  0  0  0  0
    9.8204   40.3993   67.5051 C   0  0  0  0  0  0
   11.3934   43.1220   65.5424 N   0  0  0  0  0  0
   12.7387   43.0932   65.6770 C   0  0  0  0  0  0
   13.3200   42.6160   66.6489 O   0  0  0  0  0  0
   13.5954   43.6774   64.5482 C   0  0  0  0  0  0
   14.4725   42.5779   63.8668 C   0  0  0  0  0  0
   16.0378   42.5744   63.9500 C   0  0  1  0  0  0
   16.6809   42.9855   65.2987 C   0  0  0  0  0  0
   16.5211   41.2489   63.5400 N   0  0  0  0  0  0
   16.5249   44.3123   65.5401 O   0  0  0  0  0  0
   17.3204   42.2157   66.0086 O   0  0  0  0  0  0
    7.6880   40.3470   68.6821 O   0  0  0  0  0  0
    7.9921   39.1759   69.3388 C   0  0  0  0  0  0
    8.5217   39.2380   70.6223 C   0  0  0  0  0  0
    8.7660   38.0818   71.3546 C   0  0  0  0  0  0
    8.4766   36.8480   70.7839 C   0  0  0  0  0  0
    7.9526   36.7770   69.4953 C   0  0  0  0  0  0
    7.7194   37.9379   68.7616 C   0  0  0  0  0  0
    7.4328   42.7851   67.8056 H   0  0  0  0  0  0
    9.0368   44.0239   66.4132 H   0  0  0  0  0  0
   11.6541   40.6155   66.4272 H   0  0  0  0  0  0
   10.0509   39.3851   67.7873 H   0  0  0  0  0  0
   10.9992   43.7196   64.8357 H   0  0  0  0  0  0
   14.1750   44.4853   64.9784 H   0  0  0  0  0  0
   12.9721   44.1678   63.7983 H   0  0  0  0  0  0
   14.2107   42.6163   62.8086 H   0  0  0  0  0  0
   14.1213   41.5886   64.1724 H   0  0  0  0  0  0
   16.4979   43.2245   63.2102 H   0  0  0  0  0  0
   15.9312   41.0155   62.7229 H   0  0  0  0  0  0
   17.4056   41.4863   63.0837 H   0  0  0  0  0  0
   16.0605   44.6864   64.7838 H   0  0  0  0  0  0
    8.6798   40.2097   71.0574 H   0  0  0  0  0  0
    9.1506   38.1444   72.3623 H   0  0  0  0  0  0
    8.6431   35.9399   71.3447 H   0  0  0  0  0  0
    7.7211   35.8164   69.0674 H   0  0  0  0  0  0
    7.3001   37.8823   67.7676 H   0  0  0  0  0  0
  1  6  1  0  0  0
  1  2  2  0  0  0
  1 17  1  0  0  0
  2  3  1  0  0  0
  2 24  1  0  0  0
  3  4  2  0  0  0
  3 25  1  0  0  0
  4  7  1  0  0  0
  4  5  1  0  0  0
  5  6  2  0  0  0
  5 26  1  0  0  0
  6 27  1  0  0  0
  7  8  1  0  0  0
  7 28  1  0  0  0
  8  9  2  0  0  0
  8 10  1  0  0  0
 10 11  1  0  0  0
 10 29  1  0  0  0
 10 30  1  0  0  0
 11 12  1  0  0  0
 11 31  1  0  0  0
 11 32  1  0  0  0
 12 13  1  0  0  0
 12 14  1  0  0  0
 12 33  1  0  0  0
 13 15  1  0  0  0
 13 16  2  0  0  0
 14 34  1  0  0  0
 14 35  1  0  0  0
 15 36  1  0  0  0
 17 18  1  0  0  0
 18 19  2  0  0  0
 18 23  1  0  0  0
 19 20  1  0  0  0
 19 37  1  0  0  0
 20 21  2  0  0  0
 20 38  1  0  0  0
 21 22  1  0  0  0
 21 39  1  0  0  0
 22 23  2  0  0  0
 22 40  1  0  0  0
 23 41  1  0  0  0
M  END
> <s_m_entry_id>
6741

> <s_m_entry_name>
dock_pv.171

> <s_m_Source_Path>
/home/csk/Desktop/cluster/DUD-E-result/lkha4

> <s_m_Source_File>
dock_pv.maegz

> <i_m_Source_File_Index>
171

> <chembl_id>
CHEMBL442816

> <chembl_pref_name>
None

> <i_lp_mmshare_version>
53161

> <i_f3d_flags>
0

> <r_lp_tautomer_probability>
1

> <s_lp_Force_Field>
OPLS_2005

> <r_lp_Energy>
20.354549

> <b_lp_Chiralities_Consistent>
1

> <s_lp_Variant>
CHEMBL4618_lig199-1

> <s_i_glide_gridfile>
glide-grid_3chp

> <i_i_glide_lignum>
227

> <i_i_glide_rotatable_bonds>
9

> <r_i_docking_score>
-9.59482479279425

> <r_i_glide_ligand_efficiency>
-0.41716629533888

> <r_i_glide_ligand_efficiency_sa>
-1.1863654511813

> <r_i_glide_ligand_efficiency_ln>
-2.32011563595876

> <r_i_glide_gscore>
-9.59482479279425

> <r_i_glide_lipo>
-3.76476396233842

> <r_i_glide_hbond>
-0.447763489102399

> <r_i_glide_metal>
0

> <r_i_glide_rewards>
-1.60220458917162

> <r_i_glide_evdw>
-35.234317779541

> <r_i_glide_ecoul>
-22.8218936920166

> <r_i_glide_erotb>
1.50490719059773

> <r_i_glide_esite>
-0.1

> <r_i_glide_emodel>
-90.600581201395

> <r_i_glide_energy>
-58.0562114715576

> <r_i_glide_einternal>
11.052903175354

> <i_i_glide_confnum>
44

> <i_i_glide_posenum>
373

> <r_i_glide_eff_state_penalty>
0

> <s_user_duplicate_titles>
CHEMBL4618_lig199,507010

> <s_m_subgroup_title>
dock_pv

> <s_m_subgroupid>
dock_pv

> <b_m_subgroup_collapsed>
1

$$$$
CHEMBL4618_lig279
                    3D
 Schrodinger Suite 2021-1.
 58 62  0  0  1  0            999 V2000
   11.3209   34.9565   75.1071 C   0  0  0  0  0  0
   11.3209   33.8215   74.2973 C   0  0  0  0  0  0
   10.5388   33.7704   73.1375 C   0  0  0  0  0  0
   10.6187   36.1092   74.7521 C   0  0  0  0  0  0
    9.9098   36.0886   73.5461 C   0  0  0  0  0  0
    9.8243   34.9164   72.7560 C   0  0  0  0  0  0
    9.0187   35.0160   71.6643 N   0  0  0  0  0  0
    8.5769   36.2287   71.5066 C   0  0  0  0  0  0
    9.0403   37.3725   72.7400 S   0  0  0  0  0  0
    7.7306   36.6132   70.4935 O   0  0  0  0  0  0
    8.0077   37.6996   69.6930 C   0  0  0  0  0  0
    8.1209   39.0021   70.1729 C   0  0  0  0  0  0
    8.3465   40.0588   69.3062 C   0  0  0  0  0  0
    8.5212   39.8262   67.9410 C   0  0  0  0  0  0
    8.4255   38.5249   67.4600 C   0  0  0  0  0  0
    8.1238   37.4773   68.3277 C   0  0  0  0  0  0
    8.7452   40.8180   67.0145 O   0  0  0  0  0  0
    8.7219   42.1800   67.4309 C   0  0  0  0  0  0
    9.3095   43.0584   66.3202 C   0  0  0  0  0  0
   10.6557   42.6732   65.8583 N   0  0  1  0  0  0
   11.1272   43.6926   64.9244 C   0  0  0  0  0  0
   12.5458   43.4735   64.3896 C   0  0  0  0  0  0
   13.5714   43.2515   65.5122 C   0  0  0  0  0  0
   13.0401   42.2033   66.4820 C   0  0  0  0  0  0
   11.6032   42.4675   66.9594 C   0  0  0  0  0  0
   14.9280   42.9615   65.0664 N   0  0  0  0  0  0
   16.0382   43.4165   65.6879 C   0  0  0  0  0  0
   17.2114   42.9669   64.8244 C   0  0  0  0  0  0
   16.6448   42.0079   63.7931 C   0  0  0  0  0  0
   15.1519   42.1253   63.9014 C   0  0  0  0  0  0
   16.1254   44.0642   66.7314 O   0  0  0  0  0  0
   11.8901   34.9463   76.0241 H   0  0  0  0  0  0
   11.8844   32.9529   74.6060 H   0  0  0  0  0  0
   10.4959   32.8671   72.5466 H   0  0  0  0  0  0
   10.6436   36.9955   75.3713 H   0  0  0  0  0  0
    7.9808   39.2228   71.2148 H   0  0  0  0  0  0
    8.3605   41.0498   69.7238 H   0  0  0  0  0  0
    8.5470   38.3320   66.4045 H   0  0  0  0  0  0
    8.0234   36.4782   67.9414 H   0  0  0  0  0  0
    9.2924   42.3551   68.3445 H   0  0  0  0  0  0
    7.6932   42.4823   67.6353 H   0  0  0  0  0  0
    9.2990   44.0942   66.6615 H   0  0  0  0  0  0
    8.6297   43.0068   65.4734 H   0  0  0  0  0  0
   11.1152   44.6160   65.4763 H   0  0  0  0  0  0
   10.4280   43.7989   64.0984 H   0  0  0  0  0  0
   12.8421   44.3339   63.7893 H   0  0  0  0  0  0
   12.5215   42.6250   63.7087 H   0  0  0  0  0  0
   13.6003   44.1884   66.0719 H   0  0  0  0  0  0
   13.0872   41.1980   66.0594 H   0  0  0  0  0  0
   13.7184   42.2161   67.3281 H   0  0  0  0  0  0
   11.5851   43.3333   67.6206 H   0  0  0  0  0  0
   11.2682   41.6107   67.5407 H   0  0  0  0  0  0
   17.6143   43.8565   64.3404 H   0  0  0  0  0  0
   18.0097   42.5287   65.4232 H   0  0  0  0  0  0
   16.9210   42.2158   62.7651 H   0  0  0  0  0  0
   16.9994   41.0161   63.9943 H   0  0  0  0  0  0
   14.6615   41.1555   63.9871 H   0  0  0  0  0  0
   14.7492   42.6162   63.0134 H   0  0  0  0  0  0
  1  4  1  0  0  0
  1  2  2  0  0  0
  1 32  1  0  0  0
  2  3  1  0  0  0
  2 33  1  0  0  0
  3  6  2  0  0  0
  3 34  1  0  0  0
  4  5  2  0  0  0
  4 35  1  0  0  0
  5  9  1  0  0  0
  5  6  1  0  0  0
  6  7  1  0  0  0
  7  8  2  0  0  0
  8  9  1  0  0  0
  8 10  1  0  0  0
 10 11  1  0  0  0
 11 16  1  0  0  0
 11 12  2  0  0  0
 12 13  1  0  0  0
 12 36  1  0  0  0
 13 14  2  0  0  0
 13 37  1  0  0  0
 14 15  1  0  0  0
 14 17  1  0  0  0
 15 16  2  0  0  0
 15 38  1  0  0  0
 16 39  1  0  0  0
 17 18  1  0  0  0
 18 19  1  0  0  0
 18 40  1  0  0  0
 18 41  1  0  0  0
 19 20  1  0  0  0
 19 42  1  0  0  0
 19 43  1  0  0  0
 20 21  1  0  0  0
 20 25  1  0  0  0
 21 22  1  0  0  0
 21 44  1  0  0  0
 21 45  1  0  0  0
 22 23  1  0  0  0
 22 46  1  0  0  0
 22 47  1  0  0  0
 23 24  1  0  0  0
 23 26  1  0  0  0
 23 48  1  0  0  0
 24 25  1  0  0  0
 24 49  1  0  0  0
 24 50  1  0  0  0
 25 51  1  0  0  0
 25 52  1  0  0  0
 26 27  1  0  0  0
 26 30  1  0  0  0
 27 28  1  0  0  0
 27 31  2  0  0  0
 28 29  1  0  0  0
 28 53  1  0  0  0
 28 54  1  0  0  0
 29 30  1  0  0  0
 29 55  1  0  0  0
 29 56  1  0  0  0
 30 57  1  0  0  0
 30 58  1  0  0  0
M  END
> <s_m_entry_id>
6742

> <s_m_entry_name>
dock_pv.172

> <s_m_Source_Path>
/home/csk/Desktop/cluster/DUD-E-result/lkha4

> <s_m_Source_File>
dock_pv.maegz

> <i_m_Source_File_Index>
172

> <chembl_id>
CHEMBL480336

> <chembl_pref_name>
None

> <i_lp_mmshare_version>
53161

> <i_f3d_flags>
0

> <r_lp_tautomer_probability>
1

> <s_lp_Force_Field>
OPLS_2005

> <r_lp_Energy>
48.354234

> <b_lp_Chiralities_Consistent>
1

> <s_lp_Variant>
CHEMBL4618_lig279-1

> <s_i_glide_gridfile>
glide-grid_3chp

> <i_i_glide_lignum>
317

> <i_i_glide_rotatable_bonds>
7

> <r_i_docking_score>
-9.58586801596497

> <r_i_glide_ligand_efficiency>
-0.309221548902096

> <r_i_glide_ligand_efficiency_sa>
-0.971382589911637

> <r_i_glide_ligand_efficiency_ln>
-2.16190700917416

> <r_i_glide_gscore>
-9.58586801596497

> <r_i_glide_lipo>
-5.65707695861964

> <r_i_glide_hbond>
0

> <r_i_glide_metal>
0

> <r_i_glide_rewards>
-1.12256319748889

> <r_i_glide_evdw>
-56.5882835388184

> <r_i_glide_ecoul>
-3.5314610004425

> <r_i_glide_erotb>
0.72913459318284

> <r_i_glide_esite>
-0.176229126031982

> <r_i_glide_emodel>
-82.1565100504905

> <r_i_glide_energy>
-60.1197445392609

> <r_i_glide_einternal>
12.7220191955566

> <i_i_glide_confnum>
8

> <i_i_glide_posenum>
82

> <r_i_glide_eff_state_penalty>
0

> <s_user_duplicate_titles>
CHEMBL4618_lig279,466770

> <s_m_subgroup_title>
dock_pv

> <s_m_subgroupid>
dock_pv

> <b_m_subgroup_collapsed>
1

$$$$
CHEMBL4618_lig151
                    3D
 Schrodinger Suite 2021-1.
 55 56  0  0  1  0            999 V2000
   15.9540   42.4332   64.7569 C   0  0  0  0  0  0
   16.6393   41.4173   64.7556 O   0  0  0  0  0  0
    8.1236   37.8861   69.7094 C   0  0  0  0  0  0
    7.7221   36.8251   70.7325 C   0  0  0  0  0  0
    8.6293   39.9375   67.8533 C   0  0  0  0  0  0
   10.5934   42.7604   65.5399 N   0  0  1  0  0  0
   16.1782   43.5114   65.5389 O   0  0  0  0  0  0
    8.2626   39.2011   70.1259 C   0  0  0  0  0  0
    8.2118   37.6060   68.3396 C   0  0  0  0  0  0
    8.4844   40.2225   69.2092 C   0  0  0  0  0  0
    8.5168   38.6176   67.4278 C   0  0  0  0  0  0
    8.7602   36.3627   71.7624 C   0  0  0  0  0  0
    8.8639   40.9066   66.8965 O   0  0  0  0  0  0
   14.7047   42.5187   63.8843 C   0  0  0  0  0  0
    9.2984   43.1450   66.0919 C   0  0  0  0  0  0
   11.7091   43.1294   66.3949 C   0  0  0  0  0  0
   17.2571   43.5120   66.4674 C   0  0  0  0  0  0
    8.8856   42.2790   67.2915 C   0  0  0  0  0  0
    9.2837   37.2439   72.7143 C   0  0  0  0  0  0
    9.1253   35.0149   71.8229 C   0  0  0  0  0  0
   13.4789   43.2087   64.5227 C   0  0  0  0  0  0
   13.0192   42.5587   65.8472 C   0  0  0  0  0  0
   17.5886   44.9539   66.8307 C   0  0  0  0  0  0
   10.1689   36.7781   73.6819 C   0  0  0  0  0  0
   10.0388   34.5563   72.7625 C   0  0  0  0  0  0
   10.5372   35.4392   73.7124 C   0  0  0  0  0  0
    6.8840   37.2327   71.3029 H   0  0  0  0  0  0
    7.3234   35.9637   70.1982 H   0  0  0  0  0  0
   10.5994   41.7558   65.4037 H   0  0  0  0  0  0
    8.1225   39.4442   71.1671 H   0  0  0  0  0  0
    8.0785   36.6071   67.9504 H   0  0  0  0  0  0
    8.5147   41.2389   69.5517 H   0  0  0  0  0  0
    8.6193   38.3803   66.3808 H   0  0  0  0  0  0
   14.9806   43.0160   62.9539 H   0  0  0  0  0  0
   14.4296   41.5036   63.5963 H   0  0  0  0  0  0
    9.2848   44.2053   66.3443 H   0  0  0  0  0  0
    8.5499   43.0035   65.3199 H   0  0  0  0  0  0
   11.5737   42.7837   67.4202 H   0  0  0  0  0  0
   11.7760   44.2159   66.4095 H   0  0  0  0  0  0
   18.1436   43.0306   66.0454 H   0  0  0  0  0  0
   16.9717   42.9521   67.3589 H   0  0  0  0  0  0
    9.5736   42.4493   68.1208 H   0  0  0  0  0  0
    7.8893   42.5798   67.6283 H   0  0  0  0  0  0
    8.9948   38.2805   72.7328 H   0  0  0  0  0  0
    8.6945   34.3023   71.1400 H   0  0  0  0  0  0
   13.6958   44.2665   64.6840 H   0  0  0  0  0  0
   12.6654   43.1808   63.7977 H   0  0  0  0  0  0
   12.9324   41.4778   65.7314 H   0  0  0  0  0  0
   13.7862   42.7159   66.6044 H   0  0  0  0  0  0
   18.3772   44.9939   67.5823 H   0  0  0  0  0  0
   16.7120   45.4710   67.2231 H   0  0  0  0  0  0
   17.9430   45.4739   65.9404 H   0  0  0  0  0  0
   10.5739   37.4557   74.4145 H   0  0  0  0  0  0
   10.3200   33.5138   72.7888 H   0  0  0  0  0  0
   11.2213   35.0835   74.4733 H   0  0  0  0  0  0
  1  2  2  0  0  0
  1  7  1  0  0  0
  1 14  1  0  0  0
  3  9  1  0  0  0
  3  4  1  0  0  0
  3  8  2  0  0  0
  4 12  1  0  0  0
  4 27  1  0  0  0
  4 28  1  0  0  0
  5 13  1  0  0  0
  5 10  2  0  0  0
  5 11  1  0  0  0
  6 16  1  0  0  0
  6 15  1  0  0  0
  6 29  1  0  0  0
  7 17  1  0  0  0
  8 10  1  0  0  0
  8 30  1  0  0  0
  9 11  2  0  0  0
  9 31  1  0  0  0
 10 32  1  0  0  0
 11 33  1  0  0  0
 12 19  2  0  0  0
 12 20  1  0  0  0
 13 18  1  0  0  0
 14 21  1  0  0  0
 14 34  1  0  0  0
 14 35  1  0  0  0
 15 18  1  0  0  0
 15 36  1  0  0  0
 15 37  1  0  0  0
 16 22  1  0  0  0
 16 38  1  0  0  0
 16 39  1  0  0  0
 17 23  1  0  0  0
 17 40  1  0  0  0
 17 41  1  0  0  0
 18 42  1  0  0  0
 18 43  1  0  0  0
 19 24  1  0  0  0
 19 44  1  0  0  0
 20 25  2  0  0  0
 20 45  1  0  0  0
 21 22  1  0  0  0
 21 46  1  0  0  0
 21 47  1  0  0  0
 22 48  1  0  0  0
 22 49  1  0  0  0
 23 50  1  0  0  0
 23 51  1  0  0  0
 23 52  1  0  0  0
 24 26  2  0  0  0
 24 53  1  0  0  0
 25 26  1  0  0  0
 25 54  1  0  0  0
 26 55  1  0  0  0
M  END
> <s_m_entry_id>
6743

> <s_m_entry_name>
dock_pv.173

> <s_m_Source_Path>
/home/csk/Desktop/cluster/DUD-E-result/lkha4

> <s_m_Source_File>
dock_pv.maegz

> <i_m_Source_File_Index>
173

> <chembl_id>
CHEMBL117472

> <chembl_pref_name>
None

> <i_lp_mmshare_version>
53161

> <i_f3d_flags>
0

> <r_lp_tautomer_probability>
1

> <s_lp_Force_Field>
OPLS_2005

> <r_lp_Energy>
16.507405

> <b_lp_Chiralities_Consistent>
1

> <s_lp_Variant>
CHEMBL4618_lig151-1

> <s_i_glide_gridfile>
glide-grid_3chp

> <i_i_glide_lignum>
177

> <i_i_glide_rotatable_bonds>
13

> <r_i_docking_score>
-9.58439209970376

> <r_i_glide_ligand_efficiency>
-0.368630465373222

> <r_i_glide_ligand_efficiency_sa>
-1.09206630317733

> <r_i_glide_ligand_efficiency_ln>
-2.25086303565986

> <r_i_glide_gscore>
-9.58439209970376

> <r_i_glide_lipo>
-5.51424709018744

> <r_i_glide_hbond>
-0.150359743680895

> <r_i_glide_metal>
0

> <r_i_glide_rewards>
-1.88536571311753

> <r_i_glide_evdw>
-48.1607208251953

> <r_i_glide_ecoul>
-8.94831848144531

> <r_i_glide_erotb>
1.81586426075867

> <r_i_glide_esite>
-0.1

> <r_i_glide_emodel>
-91.55372065939

> <r_i_glide_energy>
-57.1090393066406

> <r_i_glide_einternal>
5.38911247253418

> <i_i_glide_confnum>
104

> <i_i_glide_posenum>
5

> <r_i_glide_eff_state_penalty>
0

> <s_user_duplicate_titles>
CHEMBL4618_lig151

> <s_m_subgroup_title>
dock_pv

> <s_m_subgroupid>
dock_pv

> <b_m_subgroup_collapsed>
1

$$$$
CHEMBL4618_lig156
                    3D
 Schrodinger Suite 2021-1.
 55 56  0  0  1  0            999 V2000
   16.6627   42.6166   65.3200 C   0  0  0  0  0  0
   16.9210   41.4160   65.1399 O   0  0  0  0  0  0
    8.1188   37.8860   69.6732 C   0  0  0  0  0  0
    7.7274   36.8153   70.6955 C   0  0  0  0  0  0
    8.6963   39.9322   67.8184 C   0  0  0  0  0  0
   14.2341   42.1262   65.1348 N   0  0  2  0  0  0
   17.5531   43.6319   65.3744 O   0  0  0  0  0  0
    8.2744   39.2004   70.0866 C   0  0  0  0  0  0
    8.2026   37.6069   68.3095 C   0  0  0  0  0  0
    8.5208   38.6151   67.3952 C   0  0  0  0  0  0
    8.5209   40.2212   69.1738 C   0  0  0  0  0  0
    8.7587   36.3751   71.7451 C   0  0  0  0  0  0
   15.2279   43.1084   65.5660 C   0  0  0  0  0  0
    9.0284   40.8751   66.8610 O   0  0  0  0  0  0
   13.3058   42.6647   64.1521 C   0  0  0  0  0  0
   18.9475   43.4147   65.1809 C   0  0  0  0  0  0
    9.2010   42.2440   67.2392 C   0  0  0  0  0  0
    9.0994   35.0238   71.8680 C   0  0  0  0  0  0
    9.3014   37.2873   72.6541 C   0  0  0  0  0  0
   12.1072   43.3844   64.8066 C   0  0  0  0  0  0
    9.8972   43.0157   66.1058 C   0  0  0  0  0  0
   11.3414   42.5394   65.8515 C   0  0  0  0  0  0
   19.6491   43.1153   66.5119 C   0  0  0  0  0  0
   10.1828   36.8585   73.6422 C   0  0  0  0  0  0
    9.9990   34.5960   72.8399 C   0  0  0  0  0  0
   10.5207   35.5139   73.7409 C   0  0  0  0  0  0
    6.8781   37.2095   71.2499 H   0  0  0  0  0  0
    7.3497   35.9437   70.1588 H   0  0  0  0  0  0
   13.6952   41.7844   65.9203 H   0  0  0  0  0  0
    8.1341   39.4309   71.1278 H   0  0  0  0  0  0
    8.0557   36.6037   67.9462 H   0  0  0  0  0  0
    8.6307   38.3738   66.3480 H   0  0  0  0  0  0
    8.5847   41.2328   69.5399 H   0  0  0  0  0  0
   15.1052   43.3040   66.6314 H   0  0  0  0  0  0
   15.0871   44.0713   65.0731 H   0  0  0  0  0  0
   13.8138   43.3004   63.4233 H   0  0  0  0  0  0
   12.9329   41.8133   63.5917 H   0  0  0  0  0  0
   19.3692   44.3186   64.7410 H   0  0  0  0  0  0
   19.1328   42.6136   64.4657 H   0  0  0  0  0  0
    9.8102   42.3435   68.1391 H   0  0  0  0  0  0
    8.2252   42.6855   67.4505 H   0  0  0  0  0  0
    8.6695   34.2957   71.1984 H   0  0  0  0  0  0
    9.0281   38.3268   72.6313 H   0  0  0  0  0  0
   12.4388   44.3175   65.2616 H   0  0  0  0  0  0
   11.4265   43.6724   64.0058 H   0  0  0  0  0  0
    9.8911   44.0823   66.3357 H   0  0  0  0  0  0
    9.3051   42.9117   65.1993 H   0  0  0  0  0  0
   11.3106   41.4945   65.5399 H   0  0  0  0  0  0
   11.8988   42.5503   66.7898 H   0  0  0  0  0  0
   20.7171   42.9624   66.3550 H   0  0  0  0  0  0
   19.2528   42.2140   66.9772 H   0  0  0  0  0  0
   19.5270   43.9389   67.2155 H   0  0  0  0  0  0
   10.5998   37.5659   74.3412 H   0  0  0  0  0  0
   10.2599   33.5506   72.9163 H   0  0  0  0  0  0
   11.1985   35.1815   74.5141 H   0  0  0  0  0  0
  1  2  2  0  0  0
  1  7  1  0  0  0
  1 13  1  0  0  0
  3  8  2  0  0  0
  3  4  1  0  0  0
  3  9  1  0  0  0
  4 12  1  0  0  0
  4 27  1  0  0  0
  4 28  1  0  0  0
  5 14  1  0  0  0
  5 10  1  0  0  0
  5 11  2  0  0  0
  6 13  1  0  0  0
  6 15  1  0  0  0
  6 29  1  0  0  0
  7 16  1  0  0  0
  8 11  1  0  0  0
  8 30  1  0  0  0
  9 10  2  0  0  0
  9 31  1  0  0  0
 10 32  1  0  0  0
 11 33  1  0  0  0
 12 18  1  0  0  0
 12 19  2  0  0  0
 13 34  1  0  0  0
 13 35  1  0  0  0
 14 17  1  0  0  0
 15 20  1  0  0  0
 15 36  1  0  0  0
 15 37  1  0  0  0
 16 23  1  0  0  0
 16 38  1  0  0  0
 16 39  1  0  0  0
 17 21  1  0  0  0
 17 40  1  0  0  0
 17 41  1  0  0  0
 18 25  2  0  0  0
 18 42  1  0  0  0
 19 24  1  0  0  0
 19 43  1  0  0  0
 20 22  1  0  0  0
 20 44  1  0  0  0
 20 45  1  0  0  0
 21 22  1  0  0  0
 21 46  1  0  0  0
 21 47  1  0  0  0
 22 48  1  0  0  0
 22 49  1  0  0  0
 23 50  1  0  0  0
 23 51  1  0  0  0
 23 52  1  0  0  0
 24 26  2  0  0  0
 24 53  1  0  0  0
 25 26  1  0  0  0
 25 54  1  0  0  0
 26 55  1  0  0  0
M  END
> <s_m_entry_id>
6744

> <s_m_entry_name>
dock_pv.174

> <s_m_Source_Path>
/home/csk/Desktop/cluster/DUD-E-result/lkha4

> <s_m_Source_File>
dock_pv.maegz

> <i_m_Source_File_Index>
174

> <chembl_id>
CHEMBL117314

> <chembl_pref_name>
None

> <i_lp_mmshare_version>
53161

> <i_f3d_flags>
0

> <r_lp_tautomer_probability>
1

> <s_lp_Force_Field>
OPLS_2005

> <r_lp_Energy>
16.100094

> <b_lp_Chiralities_Consistent>
1

> <s_lp_Variant>
CHEMBL4618_lig156-1

> <s_i_glide_gridfile>
glide-grid_3chp

> <i_i_glide_lignum>
182

> <i_i_glide_rotatable_bonds>
13

> <r_i_docking_score>
-9.58316138824969

> <r_i_glide_ligand_efficiency>
-0.368583130317296

> <r_i_glide_ligand_efficiency_sa>
-1.0919260732604

> <r_i_glide_ligand_efficiency_ln>
-2.25057400711316

> <r_i_glide_gscore>
-9.58316138824969

> <r_i_glide_lipo>
-5.44217718888783

> <r_i_glide_hbond>
-0.32

> <r_i_glide_metal>
0

> <r_i_glide_rewards>
-1.88542190639433

> <r_i_glide_evdw>
-48.4018440246582

> <r_i_glide_ecoul>
-8.20889568328857

> <r_i_glide_erotb>
1.81586426075867

> <r_i_glide_esite>
-0.1

> <r_i_glide_emodel>
-87.738744434031

> <r_i_glide_energy>
-56.6107397079468

> <r_i_glide_einternal>
7.57075691223145

> <i_i_glide_confnum>
180

> <i_i_glide_posenum>
375

> <r_i_glide_eff_state_penalty>
0

> <s_user_duplicate_titles>
CHEMBL4618_lig156,192539

> <s_m_subgroup_title>
dock_pv

> <s_m_subgroupid>
dock_pv

> <b_m_subgroup_collapsed>
1

$$$$
CHEMBL4618_lig166
                    3D
 Schrodinger Suite 2021-1.
 52 53  0  0  1  0            999 V2000
   16.0152   42.5471   65.0875 C   0  0  0  0  0  0
   16.5197   41.4160   65.1308 O   0  0  0  0  0  0
    8.1760   37.9898   69.7476 C   0  0  0  0  0  0
    7.7374   36.9656   70.7943 C   0  0  0  0  0  0
    8.6176   39.9530   67.7865 C   0  0  0  0  0  0
   13.5461   42.0383   64.7108 N   0  0  2  0  0  0
   16.4955   43.6469   65.7117 O   0  0  0  0  0  0
    8.3596   39.3208   70.1072 C   0  0  0  0  0  0
    8.2364   37.6428   68.3987 C   0  0  0  0  0  0
    8.5023   38.6119   67.4330 C   0  0  0  0  0  0
    8.5213   40.3066   69.1385 C   0  0  0  0  0  0
    8.7715   36.4401   71.7903 C   0  0  0  0  0  0
   14.7191   42.8202   64.3105 C   0  0  0  0  0  0
    8.7843   40.8392   66.7400 O   0  0  0  0  0  0
   12.9057   42.4680   65.9493 C   0  0  0  0  0  0
   17.7119   43.6110   66.4534 C   0  0  0  0  0  0
    9.0831   42.2145   66.9664 C   0  0  0  0  0  0
    9.3467   37.2860   72.7378 C   0  0  0  0  0  0
    9.0668   35.0750   71.8310 C   0  0  0  0  0  0
   11.4164   42.0782   65.8763 C   0  0  0  0  0  0
   10.6009   42.3982   67.1416 C   0  0  0  0  0  0
   18.9437   43.6765   65.5359 C   0  0  0  0  0  0
   10.2117   36.7707   73.7025 C   0  0  0  0  0  0
    9.9673   34.5665   72.7617 C   0  0  0  0  0  0
   10.5211   35.4148   73.7114 C   0  0  0  0  0  0
    6.9125   37.4000   71.3623 H   0  0  0  0  0  0
    7.3203   36.1125   70.2623 H   0  0  0  0  0  0
   13.7630   41.0505   64.7573 H   0  0  0  0  0  0
    8.2953   39.6091   71.1434 H   0  0  0  0  0  0
    8.0883   36.6180   68.0951 H   0  0  0  0  0  0
    8.5672   38.3263   66.3930 H   0  0  0  0  0  0
    8.5910   41.3321   69.4627 H   0  0  0  0  0  0
   14.4731   43.8794   64.3477 H   0  0  0  0  0  0
   14.9274   42.6054   63.2608 H   0  0  0  0  0  0
   13.3944   42.0002   66.8018 H   0  0  0  0  0  0
   12.9901   43.5484   66.0854 H   0  0  0  0  0  0
   17.7519   42.7273   67.0931 H   0  0  0  0  0  0
   17.7179   44.4733   67.1201 H   0  0  0  0  0  0
    8.5212   42.6406   67.7975 H   0  0  0  0  0  0
    8.7502   42.7734   66.0910 H   0  0  0  0  0  0
    9.0943   38.3332   72.7557 H   0  0  0  0  0  0
    8.5903   34.3967   71.1412 H   0  0  0  0  0  0
   10.9660   42.6069   65.0342 H   0  0  0  0  0  0
   11.3218   41.0115   65.6625 H   0  0  0  0  0  0
   10.9225   41.7408   67.9400 H   0  0  0  0  0  0
   10.8044   43.4159   67.4667 H   0  0  0  0  0  0
   19.8645   43.7140   66.1172 H   0  0  0  0  0  0
   18.9158   44.5586   64.8944 H   0  0  0  0  0  0
   19.0040   42.8033   64.8852 H   0  0  0  0  0  0
   10.6382   37.4163   74.4538 H   0  0  0  0  0  0
   10.1957   33.5106   72.7770 H   0  0  0  0  0  0
   11.1909   35.0179   74.4606 H   0  0  0  0  0  0
  1  2  2  0  0  0
  1  7  1  0  0  0
  1 13  1  0  0  0
  3  8  1  0  0  0
  3  4  1  0  0  0
  3  9  2  0  0  0
  4 12  1  0  0  0
  4 26  1  0  0  0
  4 27  1  0  0  0
  5 14  1  0  0  0
  5 10  2  0  0  0
  5 11  1  0  0  0
  6 13  1  0  0  0
  6 15  1  0  0  0
  6 28  1  0  0  0
  7 16  1  0  0  0
  8 11  2  0  0  0
  8 29  1  0  0  0
  9 10  1  0  0  0
  9 30  1  0  0  0
 10 31  1  0  0  0
 11 32  1  0  0  0
 12 18  1  0  0  0
 12 19  2  0  0  0
 13 33  1  0  0  0
 13 34  1  0  0  0
 14 17  1  0  0  0
 15 20  1  0  0  0
 15 35  1  0  0  0
 15 36  1  0  0  0
 16 22  1  0  0  0
 16 37  1  0  0  0
 16 38  1  0  0  0
 17 21  1  0  0  0
 17 39  1  0  0  0
 17 40  1  0  0  0
 18 23  2  0  0  0
 18 41  1  0  0  0
 19 24  1  0  0  0
 19 42  1  0  0  0
 20 21  1  0  0  0
 20 43  1  0  0  0
 20 44  1  0  0  0
 21 45  1  0  0  0
 21 46  1  0  0  0
 22 47  1  0  0  0
 22 48  1  0  0  0
 22 49  1  0  0  0
 23 25  1  0  0  0
 23 50  1  0  0  0
 24 25  2  0  0  0
 24 51  1  0  0  0
 25 52  1  0  0  0
M  END
> <s_m_entry_id>
6745

> <s_m_entry_name>
dock_pv.175

> <s_m_Source_Path>
/home/csk/Desktop/cluster/DUD-E-result/lkha4

> <s_m_Source_File>
dock_pv.maegz

> <i_m_Source_File_Index>
175

> <chembl_id>
CHEMBL420502

> <chembl_pref_name>
None

> <i_lp_mmshare_version>
53161

> <i_f3d_flags>
0

> <r_lp_tautomer_probability>
1

> <s_lp_Force_Field>
OPLS_2005

> <r_lp_Energy>
19.463582

> <b_lp_Chiralities_Consistent>
1

> <s_lp_Variant>
CHEMBL4618_lig166-1

> <s_i_glide_gridfile>
glide-grid_3chp

> <i_i_glide_lignum>
192

> <i_i_glide_rotatable_bonds>
12

> <r_i_docking_score>
-9.58314439501781

> <r_i_glide_ligand_efficiency>
-0.383325775800712

> <r_i_glide_ligand_efficiency_sa>
-1.12085136675286

> <r_i_glide_ligand_efficiency_ln>
-2.27149240528244

> <r_i_glide_gscore>
-9.58314439501781

> <r_i_glide_lipo>
-5.30292640136758

> <r_i_glide_hbond>
-0.32

> <r_i_glide_metal>
0

> <r_i_glide_rewards>
-1.97970486673848

> <r_i_glide_evdw>
-46.4475402832031

> <r_i_glide_ecoul>
-8.97413635253906

> <r_i_glide_erotb>
1.78798434012927

> <r_i_glide_esite>
-0.1

> <r_i_glide_emodel>
-83.6506597824476

> <r_i_glide_energy>
-55.4216766357422

> <r_i_glide_einternal>
8.32078456878662

> <i_i_glide_confnum>
163

> <i_i_glide_posenum>
13

> <r_i_glide_eff_state_penalty>
0

> <s_user_duplicate_titles>
CHEMBL4618_lig166,192712

> <s_m_subgroup_title>
dock_pv

> <s_m_subgroupid>
dock_pv

> <b_m_subgroup_collapsed>
1

$$$$
CHEMBL4618_lig269
                    3D
 Schrodinger Suite 2021-1.
 43 46  0  0  1  0            999 V2000
   10.3667   35.8022   73.7385 C   0  0  0  0  0  0
    9.8931   34.6713   73.0836 C   0  0  0  0  0  0
    9.1009   34.7825   71.9389 C   0  0  0  0  0  0
   10.1197   37.0795   73.2398 C   0  0  0  0  0  0
    9.3574   37.1947   72.0690 C   0  0  0  0  0  0
    8.8266   36.0565   71.4198 C   0  0  0  0  0  0
    8.1205   36.3103   70.2808 N   0  0  0  0  0  0
    8.1271   37.5793   69.9811 C   0  0  0  0  0  0
    8.9213   38.6160   71.1402 S   0  0  0  0  0  0
    7.5796   38.1191   68.8319 O   0  0  0  0  0  0
    8.1210   39.2655   68.2822 C   0  0  0  0  0  0
    7.8296   40.5512   68.7486 C   0  0  0  0  0  0
    8.5211   41.6570   68.2463 C   0  0  0  0  0  0
    9.5019   41.4908   67.2629 C   0  0  0  0  0  0
    9.7146   40.2158   66.7403 C   0  0  0  0  0  0
    9.0123   39.1187   67.2292 C   0  0  0  0  0  0
   10.3012   42.7198   66.8008 C   0  0  0  0  0  0
   11.3651   42.5206   65.7950 N   0  0  0  0  0  0
   11.7455   43.8162   65.2184 C   0  0  0  0  0  0
   12.9139   43.7735   64.2094 C   0  0  0  0  0  0
   14.1158   42.9660   64.6997 C   0  0  0  0  0  0
   13.6131   41.6132   65.2027 C   0  0  0  0  0  0
   12.5476   41.8139   66.3094 C   0  0  0  0  0  0
   10.9511   35.6829   74.6423 H   0  0  0  0  0  0
   10.1191   33.6924   73.4879 H   0  0  0  0  0  0
    8.7095   33.8979   71.4601 H   0  0  0  0  0  0
   10.5205   37.9491   73.7405 H   0  0  0  0  0  0
    7.1119   40.6867   69.5403 H   0  0  0  0  0  0
    8.3091   42.6386   68.6492 H   0  0  0  0  0  0
   10.4308   40.0498   65.9461 H   0  0  0  0  0  0
    9.2126   38.1351   66.8324 H   0  0  0  0  0  0
   10.7268   43.2035   67.6817 H   0  0  0  0  0  0
    9.5632   43.4205   66.4033 H   0  0  0  0  0  0
   12.0074   44.5000   66.0217 H   0  0  0  0  0  0
   10.8563   44.2162   64.7400 H   0  0  0  0  0  0
   13.2310   44.7893   63.9707 H   0  0  0  0  0  0
   12.5585   43.3656   63.2702 H   0  0  0  0  0  0
   14.8380   42.8379   63.8919 H   0  0  0  0  0  0
   14.6266   43.5038   65.4992 H   0  0  0  0  0  0
   13.1994   41.0302   64.3803 H   0  0  0  0  0  0
   14.4545   41.0166   65.5438 H   0  0  0  0  0  0
   12.9586   42.3912   67.1398 H   0  0  0  0  0  0
   12.2708   40.8515   66.7312 H   0  0  0  0  0  0
  1  2  2  0  0  0
  1  4  1  0  0  0
  1 24  1  0  0  0
  2  3  1  0  0  0
  2 25  1  0  0  0
  3  6  2  0  0  0
  3 26  1  0  0  0
  4  5  2  0  0  0
  4 27  1  0  0  0
  5  9  1  0  0  0
  5  6  1  0  0  0
  6  7  1  0  0  0
  7  8  2  0  0  0
  8  9  1  0  0  0
  8 10  1  0  0  0
 10 11  1  0  0  0
 11 12  2  0  0  0
 11 16  1  0  0  0
 12 13  1  0  0  0
 12 28  1  0  0  0
 13 14  2  0  0  0
 13 29  1  0  0  0
 14 15  1  0  0  0
 14 17  1  0  0  0
 15 16  2  0  0  0
 15 30  1  0  0  0
 16 31  1  0  0  0
 17 18  1  0  0  0
 17 32  1  0  0  0
 17 33  1  0  0  0
 18 19  1  0  0  0
 18 23  1  0  0  0
 19 20  1  0  0  0
 19 34  1  0  0  0
 19 35  1  0  0  0
 20 21  1  0  0  0
 20 36  1  0  0  0
 20 37  1  0  0  0
 21 22  1  0  0  0
 21 38  1  0  0  0
 21 39  1  0  0  0
 22 23  1  0  0  0
 22 40  1  0  0  0
 22 41  1  0  0  0
 23 42  1  0  0  0
 23 43  1  0  0  0
M  END
> <s_m_entry_id>
6746

> <s_m_entry_name>
dock_pv.176

> <s_m_Source_Path>
/home/csk/Desktop/cluster/DUD-E-result/lkha4

> <s_m_Source_File>
dock_pv.maegz

> <i_m_Source_File_Index>
176

> <chembl_id>
CHEMBL454760

> <chembl_pref_name>
None

> <i_lp_mmshare_version>
53161

> <i_f3d_flags>
0

> <r_lp_tautomer_probability>
1

> <s_lp_Force_Field>
OPLS_2005

> <r_lp_Energy>
25.052944

> <b_lp_Chiralities_Consistent>
1

> <s_lp_Variant>
CHEMBL4618_lig269-1

> <s_i_glide_gridfile>
glide-grid_3chp

> <i_i_glide_lignum>
307

> <i_i_glide_rotatable_bonds>
4

> <r_i_docking_score>
-9.55599859122544

> <r_i_glide_ligand_efficiency>
-0.415478199618497

> <r_i_glide_ligand_efficiency_sa>
-1.18156473150829

> <r_i_glide_ligand_efficiency_ln>
-2.31072710836289

> <r_i_glide_gscore>
-9.55599859122544

> <r_i_glide_lipo>
-5.67185973586697

> <r_i_glide_hbond>
0

> <r_i_glide_metal>
0

> <r_i_glide_rewards>
-2.09699386363636

> <r_i_glide_evdw>
-43.6579933166504

> <r_i_glide_ecoul>
-2.10604310035706

> <r_i_glide_erotb>
0.711661139163979

> <r_i_glide_esite>
0

> <r_i_glide_emodel>
-67.6863955751898

> <r_i_glide_energy>
-45.7640364170074

> <r_i_glide_einternal>
5.52213382720947

> <i_i_glide_confnum>
41

> <i_i_glide_posenum>
200

> <r_i_glide_eff_state_penalty>
0

> <s_user_duplicate_titles>
CHEMBL4618_lig269,466927

> <s_m_subgroup_title>
dock_pv

> <s_m_subgroupid>
dock_pv

> <b_m_subgroup_collapsed>
1

$$$$
CHEMBL4618_lig467
                    3D
 Schrodinger Suite 2021-1.
 61 66  0  0  1  0            999 V2000
   10.8554   33.1245   72.4923 O   0  0  0  0  0  0
   10.9156   33.8952   73.4505 C   0  0  0  0  0  0
   11.6884   33.6780   74.5166 O   0  0  0  0  0  0
   11.4675   34.6162   75.5400 C   0  0  0  0  0  0
   10.6574   35.7054   74.9187 C   0  0  0  0  0  0
   10.2859   35.1217   73.6564 N   0  0  0  0  0  0
    9.7603   35.9064   72.5539 C   0  0  0  0  0  0
    8.5222   35.3806   71.8346 C   0  0  0  0  0  0
    8.2023   36.2158   70.5990 C   0  0  0  0  0  0
    8.0084   37.5822   71.0247 N   0  0  2  0  0  0
    7.2057   38.3466   70.1063 C   0  0  0  0  0  0
    7.8832   39.1107   69.0000 C   0  0  0  0  0  0
    8.5648   38.4131   68.0195 C   0  0  0  0  0  0
    9.3213   39.0190   67.0922 N   0  0  0  0  0  0
    9.4306   40.3703   67.1266 C   0  0  0  0  0  0
   10.4141   40.9906   66.3400 C   0  0  0  0  0  0
   10.3559   42.3571   66.0913 C   0  0  0  0  0  0
   11.1702   42.9168   65.1295 O   0  0  0  0  0  0
   12.5369   42.9135   65.2958 C   0  0  0  0  0  0
   13.0769   43.4160   66.4585 C   0  0  0  0  0  0
   14.4463   43.5854   66.5420 C   0  0  0  0  0  0
   15.2893   43.1321   65.5407 C   0  0  0  0  0  0
   14.6791   42.6162   64.3853 C   0  0  0  0  0  0
   13.3206   42.5429   64.2430 N   0  0  0  0  0  0
   16.7380   43.2513   65.8740 C   0  0  0  0  0  0
   17.3933   43.3155   67.1022 C   0  0  0  0  0  0
   18.7548   43.4271   66.8245 C   0  0  0  0  0  0
   18.9814   43.4734   65.5395 N   0  0  0  0  0  0
   17.7662   43.3680   64.9837 N   0  0  0  0  0  0
    9.3842   43.1249   66.7293 C   0  0  0  0  0  0
    8.5381   42.5697   67.6930 C   0  0  0  0  0  0
    8.5684   41.1730   67.9193 C   0  0  0  0  0  0
    7.7928   40.5050   68.8921 C   0  0  0  0  0  0
    9.2182   38.2109   71.5170 C   0  0  0  0  0  0
    9.7239   37.4348   72.7406 C   0  0  0  0  0  0
   12.4036   35.0165   75.9145 H   0  0  0  0  0  0
   10.9208   34.1614   76.3656 H   0  0  0  0  0  0
    9.7882   35.9656   75.5252 H   0  0  0  0  0  0
   11.2564   36.6120   74.8284 H   0  0  0  0  0  0
   10.5209   35.7561   71.8104 H   0  0  0  0  0  0
    8.6567   34.3390   71.5396 H   0  0  0  0  0  0
    7.6639   35.4159   72.4966 H   0  0  0  0  0  0
    8.9277   36.1587   69.7996 H   0  0  0  0  0  0
    7.2876   35.8160   70.1804 H   0  0  0  0  0  0
    6.5219   37.6667   69.6130 H   0  0  0  0  0  0
    6.5984   39.0160   70.7028 H   0  0  0  0  0  0
    8.5800   37.3342   67.9972 H   0  0  0  0  0  0
   11.1148   40.3733   65.7936 H   0  0  0  0  0  0
   12.4312   43.7553   67.2500 H   0  0  0  0  0  0
   14.8440   44.0974   67.4061 H   0  0  0  0  0  0
   15.2628   42.2863   63.5360 H   0  0  0  0  0  0
   16.9474   43.2688   68.0856 H   0  0  0  0  0  0
   19.5569   43.4773   67.5454 H   0  0  0  0  0  0
   17.6640   43.4128   63.9724 H   0  0  0  0  0  0
    9.3090   44.1774   66.4966 H   0  0  0  0  0  0
    7.8360   43.1891   68.2369 H   0  0  0  0  0  0
    7.1659   41.0936   69.5394 H   0  0  0  0  0  0
    9.9698   38.3314   70.7360 H   0  0  0  0  0  0
    8.9204   39.2105   71.8326 H   0  0  0  0  0  0
    9.0601   37.6892   73.5611 H   0  0  0  0  0  0
   10.7146   37.8122   72.9994 H   0  0  0  0  0  0
  1  2  2  0  0  0
  2  3  1  0  0  0
  2  6  1  0  0  0
  3  4  1  0  0  0
  4  5  1  0  0  0
  4 36  1  0  0  0
  4 37  1  0  0  0
  5  6  1  0  0  0
  5 38  1  0  0  0
  5 39  1  0  0  0
  6  7  1  0  0  0
  7  8  1  0  0  0
  7 35  1  0  0  0
  7 40  1  0  0  0
  8  9  1  0  0  0
  8 41  1  0  0  0
  8 42  1  0  0  0
  9 10  1  0  0  0
  9 43  1  0  0  0
  9 44  1  0  0  0
 10 11  1  0  0  0
 10 34  1  0  0  0
 11 12  1  0  0  0
 11 45  1  0  0  0
 11 46  1  0  0  0
 12 13  2  0  0  0
 12 33  1  0  0  0
 13 14  1  0  0  0
 13 47  1  0  0  0
 14 15  2  0  0  0
 15 16  1  0  0  0
 15 32  1  0  0  0
 16 17  2  0  0  0
 16 48  1  0  0  0
 17 18  1  0  0  0
 17 30  1  0  0  0
 18 19  1  0  0  0
 19 20  2  0  0  0
 19 24  1  0  0  0
 20 21  1  0  0  0
 20 49  1  0  0  0
 21 22  2  0  0  0
 21 50  1  0  0  0
 22 23  1  0  0  0
 22 25  1  0  0  0
 23 24  2  0  0  0
 23 51  1  0  0  0
 25 26  2  0  0  0
 25 29  1  0  0  0
 26 27  1  0  0  0
 26 52  1  0  0  0
 27 28  2  0  0  0
 27 53  1  0  0  0
 28 29  1  0  0  0
 29 54  1  0  0  0
 30 31  2  0  0  0
 30 55  1  0  0  0
 31 32  1  0  0  0
 31 56  1  0  0  0
 32 33  2  0  0  0
 33 57  1  0  0  0
 34 35  1  0  0  0
 34 58  1  0  0  0
 34 59  1  0  0  0
 35 60  1  0  0  0
 35 61  1  0  0  0
M  END
> <s_m_entry_id>
6747

> <s_m_entry_name>
dock_pv.177

> <s_m_Source_Path>
/home/csk/Desktop/cluster/DUD-E-result/lkha4

> <s_m_Source_File>
dock_pv.maegz

> <i_m_Source_File_Index>
177

> <chembl_id>
CHEMBL3974103

> <chembl_pref_name>
None

> <i_lp_mmshare_version>
53161

> <i_f3d_flags>
0

> <r_lp_tautomer_probability>
0.5

> <s_lp_Force_Field>
OPLS_2005

> <r_lp_Energy>
42.254763

> <b_lp_Chiralities_Consistent>
1

> <s_lp_Variant>
CHEMBL4618_lig467-1

> <s_i_glide_gridfile>
glide-grid_3chp

> <i_i_glide_lignum>
549

> <i_i_glide_rotatable_bonds>
6

> <r_i_docking_score>
-9.54560594018812

> <r_i_glide_ligand_efficiency>
-0.272731598291089

> <r_i_glide_ligand_efficiency_sa>
-0.8921231418366

> <r_i_glide_ligand_efficiency_ln>
-2.09547235718078

> <r_i_glide_gscore>
-9.54560594018812

> <r_i_glide_lipo>
-5.19144463539425

> <r_i_glide_hbond>
-0.127631781834799

> <r_i_glide_metal>
0

> <r_i_glide_rewards>
-1.25097927272727

> <r_i_glide_evdw>
-44.0849189758301

> <r_i_glide_ecoul>
-8.12602710723877

> <r_i_glide_erotb>
0.547599764645521

> <r_i_glide_esite>
-0.1

> <r_i_glide_emodel>
-58.4731604809736

> <r_i_glide_energy>
-52.2109460830688

> <r_i_glide_einternal>
9.78573703765869

> <i_i_glide_confnum>
2

> <i_i_glide_posenum>
27

> <r_i_glide_eff_state_penalty>
0

> <s_user_duplicate_titles>
CHEMBL4618_lig467

> <s_m_subgroup_title>
dock_pv

> <s_m_subgroupid>
dock_pv

> <b_m_subgroup_collapsed>
1

$$$$
CHEMBL4618_lig369
                    3D
 Schrodinger Suite 2021-1.
 49 52  0  0  1  0            999 V2000
   12.5620   41.1537   65.9400 C   0  0  0  0  0  0
   12.9795   42.4278   65.5792 C   0  0  0  0  0  0
   12.0530   43.4712   65.5577 C   0  0  0  0  0  0
   10.7217   43.2420   65.9248 C   0  0  0  0  0  0
   10.3122   41.9750   66.3359 C   0  0  0  0  0  0
   11.2493   40.9446   66.3398 C   0  0  0  0  0  0
    8.9830   41.7512   66.6462 O   0  0  0  0  0  0
    8.6526   40.6935   67.4646 C   0  0  0  0  0  0
    8.5210   40.9494   68.8172 C   0  0  0  0  0  0
    8.3543   39.8961   69.7035 C   0  0  0  0  0  0
    8.1762   38.5866   69.2610 C   0  0  0  0  0  0
    8.2595   38.3415   67.8923 C   0  0  0  0  0  0
    8.5213   39.3788   66.9939 C   0  0  0  0  0  0
    7.9332   37.5025   70.0828 O   0  0  0  0  0  0
    7.9187   37.6155   71.5172 C   0  0  0  0  0  0
    9.1002   36.8029   72.0841 C   0  0  2  0  0  0
    8.8964   35.3055   71.7798 C   0  0  0  0  0  0
   10.0818   34.4370   72.2238 C   0  0  0  0  0  0
   10.4229   34.7335   73.6922 C   0  0  0  0  0  0
   10.4222   36.2369   74.0538 C   0  0  0  0  0  0
    9.2510   36.9477   73.5379 N   0  0  1  0  0  0
   14.4262   42.6165   65.2929 C   0  0  0  0  0  0
   15.1680   41.8989   64.3399 C   0  0  0  0  0  0
   16.5211   42.2160   64.3395 C   0  0  0  0  0  0
   16.9164   43.3989   65.5402 S   0  0  0  0  0  0
   15.2452   43.4980   65.9908 C   0  0  0  0  0  0
   13.2608   40.3286   65.9375 H   0  0  0  0  0  0
   12.3666   44.4624   65.2670 H   0  0  0  0  0  0
   10.0035   44.0488   65.9037 H   0  0  0  0  0  0
   10.9316   39.9437   66.5843 H   0  0  0  0  0  0
    8.6317   41.9603   69.1833 H   0  0  0  0  0  0
    8.3523   40.1528   70.7407 H   0  0  0  0  0  0
    8.1545   37.3291   67.5400 H   0  0  0  0  0  0
    8.6319   39.1553   65.9425 H   0  0  0  0  0  0
    6.9776   37.1973   71.8713 H   0  0  0  0  0  0
    7.9291   38.6197   71.9243 H   0  0  0  0  0  0
   10.0032   37.1846   71.6049 H   0  0  0  0  0  0
    8.6429   35.1418   70.7389 H   0  0  0  0  0  0
    8.0018   35.0002   72.3123 H   0  0  0  0  0  0
   10.9377   34.6173   71.5780 H   0  0  0  0  0  0
    9.8367   33.3800   72.1017 H   0  0  0  0  0  0
   11.3944   34.3034   73.9366 H   0  0  0  0  0  0
    9.7211   34.2169   74.3399 H   0  0  0  0  0  0
   11.3209   36.7309   73.6904 H   0  0  0  0  0  0
   10.4226   36.3464   75.1397 H   0  0  0  0  0  0
    9.3217   37.9207   73.8200 H   0  0  0  0  0  0
   14.7177   41.1952   63.6525 H   0  0  0  0  0  0
   17.2840   41.8844   63.6452 H   0  0  0  0  0  0
   14.9397   44.1646   66.7839 H   0  0  0  0  0  0
  1  2  2  0  0  0
  1  6  1  0  0  0
  1 27  1  0  0  0
  2  3  1  0  0  0
  2 22  1  0  0  0
  3  4  2  0  0  0
  3 28  1  0  0  0
  4  5  1  0  0  0
  4 29  1  0  0  0
  5  7  1  0  0  0
  5  6  2  0  0  0
  6 30  1  0  0  0
  7  8  1  0  0  0
  8 13  1  0  0  0
  8  9  2  0  0  0
  9 10  1  0  0  0
  9 31  1  0  0  0
 10 11  2  0  0  0
 10 32  1  0  0  0
 11 14  1  0  0  0
 11 12  1  0  0  0
 12 13  2  0  0  0
 12 33  1  0  0  0
 13 34  1  0  0  0
 14 15  1  0  0  0
 15 16  1  0  0  0
 15 35  1  0  0  0
 15 36  1  0  0  0
 16 17  1  0  0  0
 16 21  1  0  0  0
 16 37  1  0  0  0
 17 18  1  0  0  0
 17 38  1  0  0  0
 17 39  1  0  0  0
 18 19  1  0  0  0
 18 40  1  0  0  0
 18 41  1  0  0  0
 19 20  1  0  0  0
 19 42  1  0  0  0
 19 43  1  0  0  0
 20 21  1  0  0  0
 20 44  1  0  0  0
 20 45  1  0  0  0
 21 46  1  0  0  0
 22 23  1  0  0  0
 22 26  2  0  0  0
 23 24  2  0  0  0
 23 47  1  0  0  0
 24 25  1  0  0  0
 24 48  1  0  0  0
 25 26  1  0  0  0
 26 49  1  0  0  0
M  END
> <s_m_entry_id>
6748

> <s_m_entry_name>
dock_pv.178

> <s_m_Source_Path>
/home/csk/Desktop/cluster/DUD-E-result/lkha4

> <s_m_Source_File>
dock_pv.maegz

> <i_m_Source_File_Index>
178

> <chembl_id>
CHEMBL1098531

> <chembl_pref_name>
None

> <i_lp_mmshare_version>
53161

> <i_f3d_flags>
0

> <r_lp_tautomer_probability>
1

> <s_lp_Force_Field>
OPLS_2005

> <r_lp_Energy>
31.22391

> <b_lp_Chiralities_Consistent>
1

> <s_lp_Variant>
CHEMBL4618_lig369-1

> <s_i_glide_gridfile>
glide-grid_3chp

> <i_i_glide_lignum>
415

> <i_i_glide_rotatable_bonds>
6

> <r_i_docking_score>
-9.54314512064632

> <r_i_glide_ligand_efficiency>
-0.367044043101782

> <r_i_glide_ligand_efficiency_sa>
-1.08736653344046

> <r_i_glide_ligand_efficiency_ln>
-2.24117631797059

> <r_i_glide_gscore>
-9.54314512064632

> <r_i_glide_lipo>
-5.3827451209223

> <r_i_glide_hbond>
-0.301471496965026

> <r_i_glide_metal>
0

> <r_i_glide_rewards>
-1.6170590208273

> <r_i_glide_evdw>
-48.2928848266602

> <r_i_glide_ecoul>
-4.60841703414917

> <r_i_glide_erotb>
0.864037314523695

> <r_i_glide_esite>
0

> <r_i_glide_emodel>
-69.9065297845012

> <r_i_glide_energy>
-52.9013018608093

> <r_i_glide_einternal>
15.8727149963379

> <i_i_glide_confnum>
23

> <i_i_glide_posenum>
19

> <r_i_glide_eff_state_penalty>
0

> <s_user_duplicate_titles>
CHEMBL4618_lig369,627628

> <s_m_subgroup_title>
dock_pv

> <s_m_subgroupid>
dock_pv

> <b_m_subgroup_collapsed>
1

$$$$
CHEMBL4618_lig511 
                    3D
 Schrodinger Suite 2021-1.
 48 51  0  0  1  0            999 V2000
    7.6350   38.4434   68.4648 O   0  0  0  0  0  0
    8.1913   39.6231   68.0035 C   0  0  0  0  0  0
    9.3206   39.5637   67.1898 C   0  0  0  0  0  0
   10.0181   40.7163   66.8447 C   0  0  0  0  0  0
    9.5376   41.9671   67.2314 C   0  0  0  0  0  0
    8.3771   42.0397   68.0136 C   0  0  0  0  0  0
    7.7210   40.8760   68.4154 C   0  0  0  0  0  0
   10.3149   43.2481   66.9579 C   0  0  0  0  0  0
   11.1280   43.3456   65.6668 C   0  0  0  0  0  0
   12.4655   43.4143   65.7234 N   0  0  0  0  0  0
   10.5212   43.4158   64.6151 O   0  0  0  0  0  0
   13.3028   43.5980   64.5315 C   0  0  0  0  0  0
   14.4691   42.6053   64.4371 C   0  0  0  0  0  0
   15.7168   42.9271   65.2603 C   0  0  0  0  0  0
   16.9205   42.3312   64.8907 C   0  0  0  0  0  0
   18.1094   42.6530   65.5442 C   0  0  0  0  0  0
   18.0981   43.5546   66.6062 C   0  0  0  0  0  0
   16.8945   44.1274   67.0126 C   0  0  0  0  0  0
   15.7113   43.8156   66.3401 C   0  0  0  0  0  0
    8.0574   37.9215   69.6731 C   0  0  0  0  0  0
    7.8321   36.7036   70.0900 N   0  0  0  0  0  0
    9.0121   38.9201   70.7400 S   0  0  0  0  0  0
    9.2538   37.5382   71.7735 C   0  0  0  0  0  0
    8.5260   36.4413   71.2409 C   0  0  0  0  0  0
    8.6457   35.1955   71.8803 C   0  0  0  0  0  0
    9.5005   35.0652   72.9751 C   0  0  0  0  0  0
   10.1439   36.1617   73.5201 C   0  0  0  0  0  0
   10.0422   37.4123   72.9274 C   0  0  0  0  0  0
   11.1942   40.6154   66.1884 F   0  0  0  0  0  0
   16.9208   41.4160   63.9022 F   0  0  0  0  0  0
    9.7150   38.6134   66.8845 H   0  0  0  0  0  0
    7.9979   42.9967   68.3466 H   0  0  0  0  0  0
    6.8581   40.9430   69.0612 H   0  0  0  0  0  0
   10.9434   43.4169   67.8303 H   0  0  0  0  0  0
    9.5758   44.0392   66.8355 H   0  0  0  0  0  0
   12.9201   43.3930   66.6227 H   0  0  0  0  0  0
   13.6937   44.6155   64.5486 H   0  0  0  0  0  0
   12.7548   43.5704   63.5848 H   0  0  0  0  0  0
   14.7764   42.6051   63.3879 H   0  0  0  0  0  0
   14.1268   41.5863   64.6261 H   0  0  0  0  0  0
   19.0416   42.2157   65.2184 H   0  0  0  0  0  0
   19.0193   43.8011   67.1134 H   0  0  0  0  0  0
   16.8732   44.8114   67.8481 H   0  0  0  0  0  0
   14.7943   44.2728   66.6728 H   0  0  0  0  0  0
    8.1130   34.3250   71.5399 H   0  0  0  0  0  0
    9.6332   34.1025   73.4473 H   0  0  0  0  0  0
   10.7620   36.0316   74.3973 H   0  0  0  0  0  0
   10.6027   38.2199   73.3514 H   0  0  0  0  0  0
  1  2  1  0  0  0
  1 20  1  0  0  0
  2  3  2  0  0  0
  2  7  1  0  0  0
  3  4  1  0  0  0
  3 31  1  0  0  0
  4  5  2  0  0  0
  4 29  1  0  0  0
  5  6  1  0  0  0
  5  8  1  0  0  0
  6  7  2  0  0  0
  6 32  1  0  0  0
  7 33  1  0  0  0
  8  9  1  0  0  0
  8 34  1  0  0  0
  8 35  1  0  0  0
  9 10  1  0  0  0
  9 11  2  0  0  0
 10 12  1  0  0  0
 10 36  1  0  0  0
 12 13  1  0  0  0
 12 37  1  0  0  0
 12 38  1  0  0  0
 13 14  1  0  0  0
 13 39  1  0  0  0
 13 40  1  0  0  0
 14 15  2  0  0  0
 14 19  1  0  0  0
 15 16  1  0  0  0
 15 30  1  0  0  0
 16 17  2  0  0  0
 16 41  1  0  0  0
 17 18  1  0  0  0
 17 42  1  0  0  0
 18 19  2  0  0  0
 18 43  1  0  0  0
 19 44  1  0  0  0
 20 21  2  0  0  0
 20 22  1  0  0  0
 21 24  1  0  0  0
 22 23  1  0  0  0
 23 24  2  0  0  0
 23 28  1  0  0  0
 24 25  1  0  0  0
 25 26  2  0  0  0
 25 45  1  0  0  0
 26 27  1  0  0  0
 26 46  1  0  0  0
 27 28  2  0  0  0
 27 47  1  0  0  0
 28 48  1  0  0  0
M  END
> <s_m_entry_id>
6749

> <s_m_entry_name>
dock_pv.179

> <s_m_Source_Path>
/home/csk/Desktop/cluster/DUD-E-result/lkha4

> <s_m_Source_File>
dock_pv.maegz

> <i_m_Source_File_Index>
179

> <chembl_id>
CHEMBL4548077

> <chembl_pref_name>
None

> <i_lp_mmshare_version>
53161

> <i_f3d_flags>
0

> <r_lp_tautomer_probability>
1

> <s_lp_Force_Field>
OPLS_2005

> <r_lp_Energy>
16.779799

> <b_lp_Chiralities_Consistent>
1

> <s_lp_Variant>
CHEMBL4618_lig511 -1

> <s_i_glide_gridfile>
glide-grid_3chp

> <i_i_glide_lignum>
611

> <i_i_glide_rotatable_bonds>
8

> <r_i_docking_score>
-9.53438746938655

> <r_i_glide_ligand_efficiency>
-0.317812915646218

> <r_i_glide_ligand_efficiency_sa>
-0.987518621188319

> <r_i_glide_ligand_efficiency_ln>
-2.16631671851668

> <r_i_glide_gscore>
-9.53438746938655

> <r_i_glide_lipo>
-5.02817984607229

> <r_i_glide_hbond>
-0.0809473818530632

> <r_i_glide_metal>
0

> <r_i_glide_rewards>
-1.41501771972789

> <r_i_glide_evdw>
-47.9346618652344

> <r_i_glide_ecoul>
-8.55929279327393

> <r_i_glide_erotb>
0.770384490519505

> <r_i_glide_esite>
-0.1

> <r_i_glide_emodel>
-59.5874608610986

> <r_i_glide_energy>
-56.4939546585083

> <r_i_glide_einternal>
33.4800109863281

> <i_i_glide_confnum>
20

> <i_i_glide_posenum>
48

> <r_i_glide_eff_state_penalty>
0

> <s_user_duplicate_titles>
CHEMBL4618_lig511 

> <s_m_subgroup_title>
dock_pv

> <s_m_subgroupid>
dock_pv

> <b_m_subgroup_collapsed>
1

$$$$
CHEMBL4618_lig449
                    3D
 Schrodinger Suite 2021-1.
 43 47  0  0  1  0            999 V2000
    7.8489   37.0135   69.4958 O   0  0  0  0  0  0
    9.0627   37.9031   71.8184 S   0  0  0  0  0  0
    8.3943   36.6961   70.7297 C   0  0  0  0  0  0
    8.5214   35.4712   71.1400 N   0  0  0  0  0  0
    9.3496   35.3867   72.2102 C   0  0  0  0  0  0
    9.7126   36.6127   72.8092 C   0  0  0  0  0  0
    9.8154   34.2156   72.6337 N   0  0  0  0  0  0
   10.5917   34.2262   73.7466 C   0  0  0  0  0  0
   10.9208   35.3781   74.4587 C   0  0  0  0  0  0
   10.4939   36.6175   73.9755 C   0  0  0  0  0  0
    8.9274   39.3872   66.8866 C   0  0  0  0  0  0
    8.6102   38.2158   67.5745 C   0  0  0  0  0  0
    8.0671   38.2157   68.8530 C   0  0  0  0  0  0
    7.7156   39.4266   69.4194 C   0  0  0  0  0  0
    8.9321   42.0129   67.2041 C   0  0  0  0  0  0
    8.6960   40.6252   67.5035 C   0  0  0  0  0  0
    8.0347   40.6068   68.7439 C   0  0  0  0  0  0
    7.7342   41.8641   69.1512 O   0  0  0  0  0  0
    8.2918   42.6899   68.2299 C   0  0  0  0  0  0
    9.5781   42.6308   65.9832 C   0  0  0  0  0  0
   11.0249   42.4672   65.7766 N   0  0  0  0  0  0
   11.8670   43.5794   66.2005 C   0  0  0  0  0  0
   13.2733   43.4609   65.5734 C   0  0  0  0  0  0
   13.8674   42.2267   65.9402 O   0  0  0  0  0  0
   13.1003   41.1014   65.5342 C   0  0  0  0  0  0
   11.6467   41.1703   66.0593 C   0  0  0  0  0  0
   10.9322   33.2592   74.0876 H   0  0  0  0  0  0
   11.5195   35.3105   75.3578 H   0  0  0  0  0  0
   10.7744   37.5362   74.4668 H   0  0  0  0  0  0
    9.3830   39.3154   65.9170 H   0  0  0  0  0  0
    8.8606   37.2675   67.1305 H   0  0  0  0  0  0
    7.1802   39.4159   70.3402 H   0  0  0  0  0  0
    8.1205   43.7427   68.4080 H   0  0  0  0  0  0
    9.3565   43.6990   65.9568 H   0  0  0  0  0  0
    9.0546   42.2199   65.1397 H   0  0  0  0  0  0
   11.8917   43.6308   67.2874 H   0  0  0  0  0  0
   11.4280   44.5033   65.8354 H   0  0  0  0  0  0
   13.2353   43.5641   64.4865 H   0  0  0  0  0  0
   13.9222   44.2555   65.9339 H   0  0  0  0  0  0
   13.1350   41.0007   64.4494 H   0  0  0  0  0  0
   13.5850   40.2163   65.9395 H   0  0  0  0  0  0
   11.0907   40.3976   65.5406 H   0  0  0  0  0  0
   11.5832   40.9496   67.1242 H   0  0  0  0  0  0
  1  3  1  0  0  0
  1 13  1  0  0  0
  2  3  1  0  0  0
  2  6  1  0  0  0
  3  4  2  0  0  0
  4  5  1  0  0  0
  5  6  1  0  0  0
  5  7  2  0  0  0
  6 10  2  0  0  0
  7  8  1  0  0  0
  8  9  2  0  0  0
  8 27  1  0  0  0
  9 10  1  0  0  0
  9 28  1  0  0  0
 10 29  1  0  0  0
 11 16  2  0  0  0
 11 12  1  0  0  0
 11 30  1  0  0  0
 12 13  2  0  0  0
 12 31  1  0  0  0
 13 14  1  0  0  0
 14 17  2  0  0  0
 14 32  1  0  0  0
 15 16  1  0  0  0
 15 19  2  0  0  0
 15 20  1  0  0  0
 16 17  1  0  0  0
 17 18  1  0  0  0
 18 19  1  0  0  0
 19 33  1  0  0  0
 20 21  1  0  0  0
 20 34  1  0  0  0
 20 35  1  0  0  0
 21 22  1  0  0  0
 21 26  1  0  0  0
 22 23  1  0  0  0
 22 36  1  0  0  0
 22 37  1  0  0  0
 23 24  1  0  0  0
 23 38  1  0  0  0
 23 39  1  0  0  0
 24 25  1  0  0  0
 25 26  1  0  0  0
 25 40  1  0  0  0
 25 41  1  0  0  0
 26 42  1  0  0  0
 26 43  1  0  0  0
M  END
> <s_m_entry_id>
6750

> <s_m_entry_name>
dock_pv.180

> <s_m_Source_Path>
/home/csk/Desktop/cluster/DUD-E-result/lkha4

> <s_m_Source_File>
dock_pv.maegz

> <i_m_Source_File_Index>
180

> <chembl_id>
CHEMBL2313565

> <chembl_pref_name>
None

> <i_lp_mmshare_version>
53161

> <i_f3d_flags>
0

> <r_lp_tautomer_probability>
1

> <s_lp_Force_Field>
OPLS_2005

> <r_lp_Energy>
25.319362

> <b_lp_Chiralities_Consistent>
1

> <s_lp_Variant>
CHEMBL4618_lig449-1

> <s_i_glide_gridfile>
glide-grid_3chp

> <i_i_glide_lignum>
525

> <i_i_glide_rotatable_bonds>
4

> <r_i_docking_score>
-9.52853553309035

> <r_i_glide_ligand_efficiency>
-0.36648213588809

> <r_i_glide_ligand_efficiency_sa>
-1.0857018855309

> <r_i_glide_ligand_efficiency_ln>
-2.23774530427104

> <r_i_glide_gscore>
-9.52853553309035

> <r_i_glide_lipo>
-5.30592237940097

> <r_i_glide_hbond>
0

> <r_i_glide_metal>
0

> <r_i_glide_rewards>
-1.80393695454545

> <r_i_glide_evdw>
-42.9410552978516

> <r_i_glide_ecoul>
-5.61498737335205

> <r_i_glide_erotb>
0.570624671751466

> <r_i_glide_esite>
0

> <r_i_glide_emodel>
-67.8486884868631

> <r_i_glide_energy>
-48.5560426712036

> <r_i_glide_einternal>
4.86625671386719

> <i_i_glide_confnum>
65

> <i_i_glide_posenum>
304

> <r_i_glide_eff_state_penalty>
0

> <s_user_duplicate_titles>
CHEMBL4618_lig449

> <s_m_subgroup_title>
dock_pv

> <s_m_subgroupid>
dock_pv

> <b_m_subgroup_collapsed>
1

$$$$
CHEMBL4618_lig72
                    3D
 Schrodinger Suite 2021-1.
 44 46  0  0  1  0            999 V2000
   10.4939   42.1224   66.2857 N   0  0  0  0  0  0
    8.5590   39.4304   67.0900 S   0  0  0  0  0  0
    8.3075   38.7217   68.6777 C   0  0  0  0  0  0
    8.1159   37.5189   71.1757 C   0  0  0  0  0  0
    8.0719   36.8859   72.5578 C   0  0  0  0  0  0
    8.6045   39.4487   69.8192 C   0  0  0  0  0  0
    7.8416   37.4164   68.7828 C   0  0  0  0  0  0
    8.5211   38.8412   71.0616 C   0  0  0  0  0  0
    7.7213   36.8219   70.0316 C   0  0  0  0  0  0
    9.1631   35.8627   72.8449 C   0  0  0  0  0  0
    8.2918   41.2359   67.2252 C   0  0  0  0  0  0
    9.4868   42.2113   67.3523 C   0  0  0  0  0  0
   11.4419   43.2248   66.3365 C   0  0  0  0  0  0
   11.3522   40.9426   66.3485 C   0  0  0  0  0  0
    9.9428   35.9911   73.9986 C   0  0  0  0  0  0
    9.3215   34.7476   72.0169 C   0  0  0  0  0  0
   12.6854   41.2992   65.6731 C   0  0  0  0  0  0
   12.5851   42.8003   65.4225 C   0  0  0  0  0  0
   10.8374   34.9831   74.3445 C   0  0  0  0  0  0
   10.2137   33.7423   72.3605 C   0  0  0  0  0  0
   10.9396   33.8511   73.5403 C   0  0  0  0  0  0
    8.1235   37.6782   73.3012 H   0  0  0  0  0  0
    7.1056   36.4231   72.7333 H   0  0  0  0  0  0
    8.9205   40.4763   69.7557 H   0  0  0  0  0  0
    7.5771   36.8585   67.9039 H   0  0  0  0  0  0
    8.7504   39.4159   71.9400 H   0  0  0  0  0  0
    7.3401   35.8161   70.0904 H   0  0  0  0  0  0
    7.5958   41.4216   68.0444 H   0  0  0  0  0  0
    7.7301   41.5250   66.3399 H   0  0  0  0  0  0
    9.9650   42.0829   68.3240 H   0  0  0  0  0  0
    9.0789   43.2246   67.3564 H   0  0  0  0  0  0
   11.7720   43.4158   67.3593 H   0  0  0  0  0  0
   10.9475   44.1340   65.9935 H   0  0  0  0  0  0
   10.8850   40.0981   65.8476 H   0  0  0  0  0  0
   11.5059   40.6190   67.3791 H   0  0  0  0  0  0
    9.8256   36.8457   74.6518 H   0  0  0  0  0  0
    8.7103   34.6125   71.1400 H   0  0  0  0  0  0
   12.8490   40.7495   64.7457 H   0  0  0  0  0  0
   13.5157   41.0775   66.3396 H   0  0  0  0  0  0
   13.5085   43.3284   65.6601 H   0  0  0  0  0  0
   12.3469   43.0313   64.3828 H   0  0  0  0  0  0
   11.4137   35.0551   75.2554 H   0  0  0  0  0  0
   10.3087   32.8613   71.7424 H   0  0  0  0  0  0
   11.6086   33.0497   73.8271 H   0  0  0  0  0  0
  1 12  1  0  0  0
  1 13  1  0  0  0
  1 14  1  0  0  0
  2 11  1  0  0  0
  2  3  1  0  0  0
  3  6  2  0  0  0
  3  7  1  0  0  0
  4  9  1  0  0  0
  4  5  1  0  0  0
  4  8  2  0  0  0
  5 10  1  0  0  0
  5 22  1  0  0  0
  5 23  1  0  0  0
  6  8  1  0  0  0
  6 24  1  0  0  0
  7  9  2  0  0  0
  7 25  1  0  0  0
  8 26  1  0  0  0
  9 27  1  0  0  0
 10 15  2  0  0  0
 10 16  1  0  0  0
 11 12  1  0  0  0
 11 28  1  0  0  0
 11 29  1  0  0  0
 12 30  1  0  0  0
 12 31  1  0  0  0
 13 18  1  0  0  0
 13 32  1  0  0  0
 13 33  1  0  0  0
 14 17  1  0  0  0
 14 34  1  0  0  0
 14 35  1  0  0  0
 15 19  1  0  0  0
 15 36  1  0  0  0
 16 20  2  0  0  0
 16 37  1  0  0  0
 17 18  1  0  0  0
 17 38  1  0  0  0
 17 39  1  0  0  0
 18 40  1  0  0  0
 18 41  1  0  0  0
 19 21  2  0  0  0
 19 42  1  0  0  0
 20 21  1  0  0  0
 20 43  1  0  0  0
 21 44  1  0  0  0
M  END
> <s_m_entry_id>
6751

> <s_m_entry_name>
dock_pv.181

> <s_m_Source_Path>
/home/csk/Desktop/cluster/DUD-E-result/lkha4

> <s_m_Source_File>
dock_pv.maegz

> <i_m_Source_File_Index>
181

> <chembl_id>
CHEMBL162865

> <chembl_pref_name>
None

> <i_lp_mmshare_version>
53161

> <i_f3d_flags>
0

> <r_lp_tautomer_probability>
1

> <s_lp_Force_Field>
OPLS_2005

> <r_lp_Energy>
32.32233

> <b_lp_Chiralities_Consistent>
1

> <s_lp_Variant>
CHEMBL4618_lig72-1

> <s_i_glide_gridfile>
glide-grid_3chp

> <i_i_glide_lignum>
92

> <i_i_glide_rotatable_bonds>
6

> <r_i_docking_score>
-9.52712882782233

> <r_i_glide_ligand_efficiency>
-0.453672801324873

> <r_i_glide_ligand_efficiency_sa>
-1.25164885847152

> <r_i_glide_ligand_efficiency_ln>
-2.3555633513026

> <r_i_glide_gscore>
-9.52712882782233

> <r_i_glide_lipo>
-5.96629726904919

> <r_i_glide_hbond>
0

> <r_i_glide_metal>
0

> <r_i_glide_rewards>
-2.28096395454545

> <r_i_glide_evdw>
-41.4764556884766

> <r_i_glide_ecoul>
-1.61455225944519

> <r_i_glide_erotb>
1.03613801911292

> <r_i_glide_esite>
0

> <r_i_glide_emodel>
-60.5944383904927

> <r_i_glide_energy>
-43.0910079479218

> <r_i_glide_einternal>
6.43579626083374

> <i_i_glide_confnum>
11

> <i_i_glide_posenum>
391

> <r_i_glide_eff_state_penalty>
0

> <s_user_duplicate_titles>
CHEMBL4618_lig72,271056

> <s_m_subgroup_title>
dock_pv

> <s_m_subgroupid>
dock_pv

> <b_m_subgroup_collapsed>
1

$$$$
CHEMBL4618_lig203
                    3D
 Schrodinger Suite 2021-1.
 50 51  0  0  1  0            999 V2000
    8.0209   39.1545   68.8839 C   0  0  0  0  0  0
    8.5238   38.5858   67.7172 C   0  0  0  0  0  0
    9.2306   39.3733   66.8096 C   0  0  0  0  0  0
    9.4452   40.7263   67.0643 C   0  0  0  0  0  0
    8.8303   41.3200   68.1722 C   0  0  0  0  0  0
    8.1353   40.5299   69.0775 C   0  0  0  0  0  0
   10.2944   41.4160   66.1757 N   0  0  0  0  0  0
   11.0518   42.4909   66.4445 C   0  0  0  0  0  0
   11.0768   43.0160   67.5400 O   0  0  0  0  0  0
   11.9876   43.0489   65.3692 C   0  0  0  0  0  0
   13.4846   42.8890   65.7608 C   0  0  0  0  0  0
   14.4387   42.5762   64.5815 C   0  0  2  0  0  0
   14.0385   41.3053   63.9400 N   0  0  0  0  0  0
    7.3679   38.3752   69.8090 O   0  0  0  0  0  0
    8.1063   37.6266   70.6985 C   0  0  0  0  0  0
    8.1210   36.2435   70.5738 C   0  0  0  0  0  0
    8.7356   35.4432   71.5400 C   0  0  0  0  0  0
    9.4013   36.0397   72.6019 C   0  0  0  0  0  0
    9.4293   37.4239   72.7125 C   0  0  0  0  0  0
    8.7615   38.2160   71.7750 C   0  0  0  0  0  0
   15.9139   42.4950   65.0809 C   0  0  0  0  0  0
   16.5210   41.4160   65.1400 O   0  0  0  0  0  0
   16.4320   43.6455   65.5400 N   0  0  0  0  0  0
   17.7064   43.7785   66.2423 C   0  0  0  0  0  0
   18.9258   43.7961   65.3069 C   0  0  0  0  0  0
   20.1446   43.9587   66.0815 N   0  0  0  0  0  0
    8.4086   37.5271   67.5399 H   0  0  0  0  0  0
    9.6651   38.9033   65.9400 H   0  0  0  0  0  0
    8.9110   42.3786   68.3690 H   0  0  0  0  0  0
    7.7210   41.0057   69.9400 H   0  0  0  0  0  0
   10.4691   40.9604   65.2922 H   0  0  0  0  0  0
   11.7607   44.1069   65.2316 H   0  0  0  0  0  0
   11.7780   42.6160   64.3958 H   0  0  0  0  0  0
   13.6022   42.1185   66.5269 H   0  0  0  0  0  0
   13.7873   43.8160   66.2513 H   0  0  0  0  0  0
   14.3727   43.3845   63.8527 H   0  0  0  0  0  0
   14.4587   41.1372   63.0115 H   0  0  0  0  0  0
   14.1210   40.4736   64.5128 H   0  0  0  0  0  0
    7.5983   35.8160   69.7362 H   0  0  0  0  0  0
    8.7007   34.3666   71.4580 H   0  0  0  0  0  0
    9.8924   35.4273   73.3443 H   0  0  0  0  0  0
    9.9478   37.8794   73.5400 H   0  0  0  0  0  0
    8.7155   39.2876   71.8850 H   0  0  0  0  0  0
   15.8931   44.4866   65.3917 H   0  0  0  0  0  0
   17.8044   42.9797   66.9811 H   0  0  0  0  0  0
   17.6676   44.7127   66.8040 H   0  0  0  0  0  0
   18.8486   44.6160   64.5907 H   0  0  0  0  0  0
   18.9875   42.8660   64.7400 H   0  0  0  0  0  0
   20.3050   43.1242   66.6297 H   0  0  0  0  0  0
   20.9238   44.0062   65.4380 H   0  0  0  0  0  0
  1  2  2  0  0  0
  1 14  1  0  0  0
  1  6  1  0  0  0
  2  3  1  0  0  0
  2 27  1  0  0  0
  3  4  2  0  0  0
  3 28  1  0  0  0
  4  7  1  0  0  0
  4  5  1  0  0  0
  5  6  2  0  0  0
  5 29  1  0  0  0
  6 30  1  0  0  0
  7  8  1  0  0  0
  7 31  1  0  0  0
  8  9  2  0  0  0
  8 10  1  0  0  0
 10 11  1  0  0  0
 10 32  1  0  0  0
 10 33  1  0  0  0
 11 12  1  0  0  0
 11 34  1  0  0  0
 11 35  1  0  0  0
 12 13  1  0  0  0
 12 21  1  0  0  0
 12 36  1  0  0  0
 13 37  1  0  0  0
 13 38  1  0  0  0
 14 15  1  0  0  0
 15 16  2  0  0  0
 15 20  1  0  0  0
 16 17  1  0  0  0
 16 39  1  0  0  0
 17 18  2  0  0  0
 17 40  1  0  0  0
 18 19  1  0  0  0
 18 41  1  0  0  0
 19 20  2  0  0  0
 19 42  1  0  0  0
 20 43  1  0  0  0
 21 22  2  0  0  0
 21 23  1  0  0  0
 23 24  1  0  0  0
 23 44  1  0  0  0
 24 25  1  0  0  0
 24 45  1  0  0  0
 24 46  1  0  0  0
 25 26  1  0  0  0
 25 47  1  0  0  0
 25 48  1  0  0  0
 26 49  1  0  0  0
 26 50  1  0  0  0
M  END
> <s_m_entry_id>
6753

> <s_m_entry_name>
dock_pv.183

> <s_m_Source_Path>
/home/csk/Desktop/cluster/DUD-E-result/lkha4

> <s_m_Source_File>
dock_pv.maegz

> <i_m_Source_File_Index>
183

> <chembl_id>
CHEMBL508528

> <chembl_pref_name>
None

> <i_lp_mmshare_version>
53161

> <i_f3d_flags>
0

> <r_lp_tautomer_probability>
1

> <s_lp_Force_Field>
OPLS_2005

> <r_lp_Energy>
20.605563

> <b_lp_Chiralities_Consistent>
1

> <s_lp_Variant>
CHEMBL4618_lig203-1

> <s_i_glide_gridfile>
glide-grid_3chp

> <i_i_glide_lignum>
231

> <i_i_glide_rotatable_bonds>
11

> <r_i_docking_score>
-9.51123016453074

> <r_i_glide_ligand_efficiency>
-0.365816544789644

> <r_i_glide_ligand_efficiency_sa>
-1.08373007452072

> <r_i_glide_ligand_efficiency_ln>
-2.23368119524836

> <r_i_glide_gscore>
-9.51123016453074

> <r_i_glide_lipo>
-4.31500606446734

> <r_i_glide_hbond>
-0.564172866195258

> <r_i_glide_metal>
0

> <r_i_glide_rewards>
-1.41620977934933

> <r_i_glide_evdw>
-44.5349769592285

> <r_i_glide_ecoul>
-15.3911180496216

> <r_i_glide_erotb>
1.50605844500069

> <r_i_glide_esite>
-0.186483344114853

> <r_i_glide_emodel>
-93.4883186843155

> <r_i_glide_energy>
-59.9260950088501

> <r_i_glide_einternal>
10.0111522674561

> <i_i_glide_confnum>
213

> <i_i_glide_posenum>
400

> <r_i_glide_eff_state_penalty>
0

> <s_user_duplicate_titles>
CHEMBL4618_lig203,507046

> <s_m_subgroup_title>
dock_pv

> <s_m_subgroupid>
dock_pv

> <b_m_subgroup_collapsed>
1

$$$$
CHEMBL4618_lig213
                    3D
 Schrodinger Suite 2021-1.
 45 46  0  0  1  0            999 V2000
   10.8444   42.1967   65.9400 C   0  0  0  0  0  0
   11.2121   43.4307   65.4150 C   0  0  0  0  0  0
   12.5214   43.6707   64.9914 C   0  0  0  0  0  0
   13.4882   42.6678   65.0858 C   0  0  0  0  0  0
   13.1140   41.4160   65.5877 C   0  0  0  0  0  0
   11.8080   41.1926   66.0048 C   0  0  0  0  0  0
   14.8111   43.0160   64.7433 N   0  0  0  0  0  0
   15.9179   42.2434   64.7400 C   0  0  0  0  0  0
   15.9382   41.0160   64.7400 O   0  0  0  0  0  0
   17.2528   42.9685   64.8841 C   0  0  0  0  0  0
   17.6193   43.2066   66.3757 C   0  0  0  0  0  0
   18.2898   44.5769   66.6274 C   0  0  1  0  0  0
   18.3645   45.0160   68.1257 C   0  0  0  0  0  0
   19.6245   44.6160   65.9922 N   0  0  0  0  0  0
   17.3210   44.7488   68.9146 N   0  0  0  0  0  0
   19.3210   45.6548   68.5664 O   0  0  0  0  0  0
    9.5179   42.0015   66.2747 O   0  0  0  0  0  0
    9.1155   41.0033   67.1400 C   0  0  0  0  0  0
    8.7393   41.3463   68.4376 C   0  0  0  0  0  0
    8.3311   40.3447   69.3195 C   0  0  0  0  0  0
    8.2281   39.0177   68.9142 C   0  0  0  0  0  0
    8.5644   38.6771   67.6107 C   0  0  0  0  0  0
    9.0237   39.6627   66.7400 C   0  0  0  0  0  0
    8.8157   42.7935   68.8933 C   0  0  0  0  0  0
   10.4728   44.2141   65.3491 H   0  0  0  0  0  0
   12.7837   44.6474   64.6131 H   0  0  0  0  0  0
   13.8092   40.6010   65.6826 H   0  0  0  0  0  0
   11.5291   40.2160   66.3400 H   0  0  0  0  0  0
   14.9527   43.9826   64.4777 H   0  0  0  0  0  0
   17.2278   43.9096   64.3400 H   0  0  0  0  0  0
   18.0389   42.3970   64.3881 H   0  0  0  0  0  0
   18.2846   42.4086   66.7099 H   0  0  0  0  0  0
   16.7310   43.1073   67.0024 H   0  0  0  0  0  0
   17.6603   45.3421   66.1704 H   0  0  0  0  0  0
   20.1402   43.7701   66.1931 H   0  0  0  0  0  0
   19.5290   44.6154   64.9824 H   0  0  0  0  0  0
   17.3596   45.0336   69.8808 H   0  0  0  0  0  0
   16.5096   44.2405   68.5893 H   0  0  0  0  0  0
    8.1210   40.5965   70.3400 H   0  0  0  0  0  0
    7.9046   38.2583   69.6111 H   0  0  0  0  0  0
    8.5079   37.6496   67.2838 H   0  0  0  0  0  0
    9.3210   39.3700   65.7474 H   0  0  0  0  0  0
    8.5210   42.9445   69.9304 H   0  0  0  0  0  0
    9.8393   43.1476   68.7734 H   0  0  0  0  0  0
    8.1752   43.4160   68.2662 H   0  0  0  0  0  0
  1  6  1  0  0  0
  1  2  2  0  0  0
  1 17  1  0  0  0
  2  3  1  0  0  0
  2 25  1  0  0  0
  3  4  2  0  0  0
  3 26  1  0  0  0
  4  7  1  0  0  0
  4  5  1  0  0  0
  5  6  2  0  0  0
  5 27  1  0  0  0
  6 28  1  0  0  0
  7  8  1  0  0  0
  7 29  1  0  0  0
  8  9  2  0  0  0
  8 10  1  0  0  0
 10 11  1  0  0  0
 10 30  1  0  0  0
 10 31  1  0  0  0
 11 12  1  0  0  0
 11 32  1  0  0  0
 11 33  1  0  0  0
 12 13  1  0  0  0
 12 14  1  0  0  0
 12 34  1  0  0  0
 13 15  1  0  0  0
 13 16  2  0  0  0
 14 35  1  0  0  0
 14 36  1  0  0  0
 15 37  1  0  0  0
 15 38  1  0  0  0
 17 18  1  0  0  0
 18 19  2  0  0  0
 18 23  1  0  0  0
 19 20  1  0  0  0
 19 24  1  0  0  0
 20 21  2  0  0  0
 20 39  1  0  0  0
 21 22  1  0  0  0
 21 40  1  0  0  0
 22 23  2  0  0  0
 22 41  1  0  0  0
 23 42  1  0  0  0
 24 43  1  0  0  0
 24 44  1  0  0  0
 24 45  1  0  0  0
M  END
> <s_m_entry_id>
6754

> <s_m_entry_name>
dock_pv.184

> <s_m_Source_Path>
/home/csk/Desktop/cluster/DUD-E-result/lkha4

> <s_m_Source_File>
dock_pv.maegz

> <i_m_Source_File_Index>
184

> <chembl_id>
CHEMBL478983

> <chembl_pref_name>
None

> <i_lp_mmshare_version>
53161

> <i_f3d_flags>
0

> <r_lp_tautomer_probability>
1

> <s_lp_Force_Field>
OPLS_2005

> <r_lp_Energy>
18.542563

> <b_lp_Chiralities_Consistent>
1

> <s_lp_Variant>
CHEMBL4618_lig213-1

> <s_i_glide_gridfile>
glide-grid_3chp

> <i_i_glide_lignum>
241

> <i_i_glide_rotatable_bonds>
8

> <r_i_docking_score>
-9.49982678155444

> <r_i_glide_ligand_efficiency>
-0.395826115898102

> <r_i_glide_ligand_efficiency_sa>
-1.14176008993145

> <r_i_glide_ligand_efficiency_ln>
-2.27374446747214

> <r_i_glide_gscore>
-9.49982678155444

> <r_i_glide_lipo>
-3.60720691179247

> <r_i_glide_hbond>
-0.734874986401139

> <r_i_glide_metal>
0

> <r_i_glide_rewards>
-1.59889462110765

> <r_i_glide_evdw>
-37.3731498718262

> <r_i_glide_ecoul>
-17.6297702789307

> <r_i_glide_erotb>
1.22575398603731

> <r_i_glide_esite>
-0.271481212859585

> <r_i_glide_emodel>
-88.6795931605131

> <r_i_glide_energy>
-55.0029201507568

> <r_i_glide_einternal>
6.46765899658203

> <i_i_glide_confnum>
117

> <i_i_glide_posenum>
131

> <r_i_glide_eff_state_penalty>
0

> <s_user_duplicate_titles>
CHEMBL4618_lig213

> <s_m_subgroup_title>
dock_pv

> <s_m_subgroupid>
dock_pv

> <b_m_subgroup_collapsed>
1

$$$$
CHEMBL4618_lig294
                    3D
 Schrodinger Suite 2021-1.
 48 51  0  0  1  0            999 V2000
   10.8675   33.9617   73.5389 C   0  0  0  0  0  0
   10.9188   35.0199   74.4439 C   0  0  0  0  0  0
   10.2371   36.2161   74.2012 C   0  0  0  0  0  0
   10.1210   34.0359   72.3576 C   0  0  0  0  0  0
    9.4069   35.2228   72.1367 C   0  0  0  0  0  0
    9.4853   36.3313   73.0213 C   0  0  0  0  0  0
    8.7657   37.4012   72.5444 N   0  0  0  0  0  0
    8.2232   36.9507   71.4424 C   0  0  0  0  0  0
    8.5224   35.6432   71.1639 N   0  0  0  0  0  0
    7.3963   37.6970   70.6503 O   0  0  0  0  0  0
    7.9592   38.3801   69.5992 C   0  0  0  0  0  0
    7.9884   37.8159   68.3279 C   0  0  0  0  0  0
    8.5211   38.5378   67.2592 C   0  0  0  0  0  0
    9.0076   39.8288   67.4376 C   0  0  0  0  0  0
    8.9210   40.4089   68.7061 C   0  0  0  0  0  0
    8.4562   39.6663   69.7856 C   0  0  0  0  0  0
    9.5912   40.4349   66.3414 O   0  0  0  0  0  0
    9.8467   41.8411   66.3399 C   0  0  0  0  0  0
   11.2545   42.1456   66.8787 C   0  0  0  0  0  0
   12.2655   42.2924   65.8240 N   0  0  0  0  0  0
   12.8863   41.0219   65.4226 C   0  0  0  0  0  0
   13.8621   41.2335   64.2410 C   0  0  0  0  0  0
   14.9548   42.2552   64.5746 C   0  0  0  0  0  0
   14.2983   43.5489   65.0772 C   0  0  0  0  0  0
   13.2623   43.3007   66.1894 C   0  0  0  0  0  0
   11.4025   33.0502   73.7683 H   0  0  0  0  0  0
   11.4858   34.9065   75.3577 H   0  0  0  0  0  0
   10.2800   37.0233   74.9134 H   0  0  0  0  0  0
   10.0606   33.1950   71.6827 H   0  0  0  0  0  0
    8.1342   35.1302   70.3831 H   0  0  0  0  0  0
    7.6138   36.8175   68.1708 H   0  0  0  0  0  0
    8.5843   38.0908   66.2814 H   0  0  0  0  0  0
    9.2768   41.4121   68.8804 H   0  0  0  0  0  0
    8.4550   40.0977   70.7723 H   0  0  0  0  0  0
    9.0846   42.3887   66.8961 H   0  0  0  0  0  0
    9.7480   42.2128   65.3192 H   0  0  0  0  0  0
   11.5464   41.3336   67.5386 H   0  0  0  0  0  0
   11.1927   43.0427   67.4964 H   0  0  0  0  0  0
   12.1211   40.2984   65.1409 H   0  0  0  0  0  0
   13.4035   40.6087   66.2879 H   0  0  0  0  0  0
   13.3211   41.5728   63.3599 H   0  0  0  0  0  0
   14.3029   40.2847   63.9398 H   0  0  0  0  0  0
   15.6236   41.8586   65.3358 H   0  0  0  0  0  0
   15.5650   42.4603   63.6929 H   0  0  0  0  0  0
   15.0746   44.2158   65.4495 H   0  0  0  0  0  0
   13.8210   44.0942   64.2618 H   0  0  0  0  0  0
   12.7038   44.2160   66.3415 H   0  0  0  0  0  0
   13.7402   43.0515   67.1393 H   0  0  0  0  0  0
  1  2  2  0  0  0
  1  4  1  0  0  0
  1 26  1  0  0  0
  2  3  1  0  0  0
  2 27  1  0  0  0
  3  6  2  0  0  0
  3 28  1  0  0  0
  4  5  2  0  0  0
  4 29  1  0  0  0
  5  9  1  0  0  0
  5  6  1  0  0  0
  6  7  1  0  0  0
  7  8  2  0  0  0
  8  9  1  0  0  0
  8 10  1  0  0  0
  9 30  1  0  0  0
 10 11  1  0  0  0
 11 12  2  0  0  0
 11 16  1  0  0  0
 12 13  1  0  0  0
 12 31  1  0  0  0
 13 14  2  0  0  0
 13 32  1  0  0  0
 14 15  1  0  0  0
 14 17  1  0  0  0
 15 16  2  0  0  0
 15 33  1  0  0  0
 16 34  1  0  0  0
 17 18  1  0  0  0
 18 19  1  0  0  0
 18 35  1  0  0  0
 18 36  1  0  0  0
 19 20  1  0  0  0
 19 37  1  0  0  0
 19 38  1  0  0  0
 20 21  1  0  0  0
 20 25  1  0  0  0
 21 22  1  0  0  0
 21 39  1  0  0  0
 21 40  1  0  0  0
 22 23  1  0  0  0
 22 41  1  0  0  0
 22 42  1  0  0  0
 23 24  1  0  0  0
 23 43  1  0  0  0
 23 44  1  0  0  0
 24 25  1  0  0  0
 24 45  1  0  0  0
 24 46  1  0  0  0
 25 47  1  0  0  0
 25 48  1  0  0  0
M  END
> <s_m_entry_id>
6755

> <s_m_entry_name>
dock_pv.185

> <s_m_Source_Path>
/home/csk/Desktop/cluster/DUD-E-result/lkha4

> <s_m_Source_File>
dock_pv.maegz

> <i_m_Source_File_Index>
185

> <chembl_id>
CHEMBL454177

> <chembl_pref_name>
None

> <i_lp_mmshare_version>
53161

> <i_f3d_flags>
0

> <r_lp_tautomer_probability>
1

> <s_lp_Force_Field>
OPLS_2005

> <r_lp_Energy>
31.761121

> <b_lp_Chiralities_Consistent>
1

> <s_lp_Variant>
CHEMBL4618_lig294-1

> <s_i_glide_gridfile>
glide-grid_3chp

> <i_i_glide_lignum>
332

> <i_i_glide_rotatable_bonds>
6

> <r_i_docking_score>
-9.49632885159143

> <r_i_glide_ligand_efficiency>
-0.379853154063657

> <r_i_glide_ligand_efficiency_sa>
-1.11069735920651

> <r_i_glide_ligand_efficiency_ln>
-2.25091451983849

> <r_i_glide_gscore>
-9.49632885159143

> <r_i_glide_lipo>
-4.77619898474124

> <r_i_glide_hbond>
-0.313720209006982

> <r_i_glide_metal>
0

> <r_i_glide_rewards>
-2.30691370482196

> <r_i_glide_evdw>
-46.9108238220215

> <r_i_glide_ecoul>
-3.89301586151123

> <r_i_glide_erotb>
0.829997617306513

> <r_i_glide_esite>
0

> <r_i_glide_emodel>
-75.856379530553

> <r_i_glide_energy>
-50.8038396835327

> <r_i_glide_einternal>
8.71182918548584

> <i_i_glide_confnum>
4

> <i_i_glide_posenum>
183

> <r_i_glide_eff_state_penalty>
0

> <s_user_duplicate_titles>
CHEMBL4618_lig294,467519

> <s_m_subgroup_title>
dock_pv

> <s_m_subgroupid>
dock_pv

> <b_m_subgroup_collapsed>
1

$$$$
CHEMBL4618_lig132
                    3D
 Schrodinger Suite 2021-1.
 44 47  0  0  1  0            999 V2000
   14.6654   42.8579   65.1700 N   0  0  0  0  0  0
   16.2733   41.4788   64.3456 N   0  0  0  0  0  0
   15.8594   43.2623   65.7389 C   0  0  0  0  0  0
   15.0030   41.8066   64.3399 C   0  0  0  0  0  0
   16.8432   42.4113   65.1720 C   0  0  0  0  0  0
   16.0878   44.2160   66.6483 N   0  0  0  0  0  0
   13.3251   43.4129   65.3775 C   0  0  0  0  0  0
    8.4255   40.3114   68.2506 C   0  0  0  0  0  0
    7.4915   39.3671   69.0020 C   0  0  0  0  0  0
   10.1637   41.9993   66.8179 C   0  0  0  0  0  0
    8.2432   41.7003   68.2761 C   0  0  0  0  0  0
    9.4123   39.7766   67.4373 C   0  0  0  0  0  0
   10.2775   40.6095   66.7400 C   0  0  0  0  0  0
    9.0959   42.5327   67.5434 C   0  0  0  0  0  0
    8.0936   38.3577   69.9849 C   0  0  0  0  0  0
   11.0684   42.8603   66.2143 O   0  0  0  0  0  0
   12.3587   42.3305   65.8820 C   0  0  0  0  0  0
   17.3902   44.3668   67.0052 C   0  0  0  0  0  0
   18.1817   42.6163   65.5455 C   0  0  0  0  0  0
    8.0941   36.9893   69.7067 C   0  0  0  0  0  0
    8.5293   38.7808   71.2347 C   0  0  0  0  0  0
   18.4455   43.6158   66.4854 C   0  0  0  0  0  0
    8.9565   37.8669   72.1928 C   0  0  0  0  0  0
    8.5150   36.0773   70.6793 C   0  0  0  0  0  0
    8.9409   36.5120   71.9221 C   0  0  0  0  0  0
   14.2368   41.3271   63.7418 H   0  0  0  0  0  0
   13.3906   44.2159   66.1075 H   0  0  0  0  0  0
   12.9851   43.8471   64.4376 H   0  0  0  0  0  0
    6.7763   39.9795   69.5398 H   0  0  0  0  0  0
    6.9205   38.8065   68.2657 H   0  0  0  0  0  0
    7.4375   42.1400   68.8483 H   0  0  0  0  0  0
    9.5288   38.7045   67.3613 H   0  0  0  0  0  0
   11.0398   40.1375   66.1429 H   0  0  0  0  0  0
    8.9394   43.5993   67.5517 H   0  0  0  0  0  0
   12.2554   41.5652   65.1182 H   0  0  0  0  0  0
   12.7941   41.8474   66.7572 H   0  0  0  0  0  0
   17.5836   45.1258   67.7483 H   0  0  0  0  0  0
   18.9855   42.0226   65.1396 H   0  0  0  0  0  0
    7.7556   36.6243   68.7494 H   0  0  0  0  0  0
    8.5211   39.8261   71.4824 H   0  0  0  0  0  0
   19.4593   43.7980   66.8107 H   0  0  0  0  0  0
    9.3086   38.2156   73.1447 H   0  0  0  0  0  0
    8.5209   35.0187   70.4748 H   0  0  0  0  0  0
    9.2692   35.8026   72.6681 H   0  0  0  0  0  0
  1  3  1  0  0  0
  1  4  1  0  0  0
  1  7  1  0  0  0
  2  4  2  0  0  0
  2  5  1  0  0  0
  3  5  2  0  0  0
  3  6  1  0  0  0
  4 26  1  0  0  0
  5 19  1  0  0  0
  6 18  2  0  0  0
  7 17  1  0  0  0
  7 27  1  0  0  0
  7 28  1  0  0  0
  8 11  1  0  0  0
  8  9  1  0  0  0
  8 12  2  0  0  0
  9 15  1  0  0  0
  9 29  1  0  0  0
  9 30  1  0  0  0
 10 16  1  0  0  0
 10 13  2  0  0  0
 10 14  1  0  0  0
 11 14  2  0  0  0
 11 31  1  0  0  0
 12 13  1  0  0  0
 12 32  1  0  0  0
 13 33  1  0  0  0
 14 34  1  0  0  0
 15 20  1  0  0  0
 15 21  2  0  0  0
 16 17  1  0  0  0
 17 35  1  0  0  0
 17 36  1  0  0  0
 18 22  1  0  0  0
 18 37  1  0  0  0
 19 22  2  0  0  0
 19 38  1  0  0  0
 20 24  2  0  0  0
 20 39  1  0  0  0
 21 23  1  0  0  0
 21 40  1  0  0  0
 22 41  1  0  0  0
 23 25  2  0  0  0
 23 42  1  0  0  0
 24 25  1  0  0  0
 24 43  1  0  0  0
 25 44  1  0  0  0
M  END
> <s_m_entry_id>
6756

> <s_m_entry_name>
dock_pv.186

> <s_m_Source_Path>
/home/csk/Desktop/cluster/DUD-E-result/lkha4

> <s_m_Source_File>
dock_pv.maegz

> <i_m_Source_File_Index>
186

> <chembl_id>
CHEMBL14790

> <chembl_pref_name>
None

> <i_lp_mmshare_version>
53161

> <i_f3d_flags>
0

> <r_lp_tautomer_probability>
1

> <s_lp_Force_Field>
OPLS_2005

> <r_lp_Energy>
19.228613

> <b_lp_Chiralities_Consistent>
1

> <s_lp_Variant>
CHEMBL4618_lig132-1

> <s_i_glide_gridfile>
glide-grid_3chp

> <i_i_glide_lignum>
158

> <i_i_glide_rotatable_bonds>
6

> <r_i_docking_score>
-9.48756636334617

> <r_i_glide_ligand_efficiency>
-0.379502654533847

> <r_i_glide_ligand_efficiency_sa>
-1.1096724923652

> <r_i_glide_ligand_efficiency_ln>
-2.24883754753378

> <r_i_glide_gscore>
-9.48756636334617

> <r_i_glide_lipo>
-4.79156053282156

> <r_i_glide_hbond>
0

> <r_i_glide_metal>
0

> <r_i_glide_rewards>
-2.03171683238635

> <r_i_glide_evdw>
-46.4521865844727

> <r_i_glide_ecoul>
-6.30109596252441

> <r_i_glide_erotb>
0.866087884204416

> <r_i_glide_esite>
-0.262603158740385

> <r_i_glide_emodel>
-77.4810333305184

> <r_i_glide_energy>
-52.7532825469971

> <r_i_glide_einternal>
8.64208221435547

> <i_i_glide_confnum>
34

> <i_i_glide_posenum>
134

> <r_i_glide_eff_state_penalty>
0

> <s_user_duplicate_titles>
CHEMBL4618_lig132

> <s_m_subgroup_title>
dock_pv

> <s_m_subgroupid>
dock_pv

> <b_m_subgroup_collapsed>
1

$$$$
CHEMBL4618_lig208
                    3D
 Schrodinger Suite 2021-1.
 44 45  0  0  1  0            999 V2000
    8.1157   39.7818   68.5315 C   0  0  0  0  0  0
    7.8854   41.1450   68.7385 C   0  0  0  0  0  0
    8.6319   42.1036   68.0508 C   0  0  0  0  0  0
    9.6165   41.7079   67.1424 C   0  0  0  0  0  0
    9.7704   40.3405   66.8679 C   0  0  0  0  0  0
    9.0302   39.3859   67.5613 C   0  0  0  0  0  0
   10.4245   42.7086   66.5473 N   0  0  0  0  0  0
   11.7217   42.5630   66.1818 C   0  0  0  0  0  0
   12.3497   41.5175   66.3397 O   0  0  0  0  0  0
   12.4327   43.7875   65.5580 C   0  0  0  0  0  0
   13.9892   43.6268   65.3085 C   0  0  0  0  0  0
   14.4242   42.9187   63.9773 C   0  0  2  0  0  0
   13.6981   41.6984   63.9395 N   0  0  0  0  0  0
    7.3925   38.8327   69.2170 O   0  0  0  0  0  0
    8.0056   38.0529   70.1767 C   0  0  0  0  0  0
    8.0105   36.6655   70.0334 C   0  0  0  0  0  0
    8.5180   35.8529   71.0492 C   0  0  0  0  0  0
    9.0538   36.4224   72.1934 C   0  0  0  0  0  0
    9.0785   37.8023   72.3299 C   0  0  0  0  0  0
    8.5427   38.6172   71.3336 C   0  0  0  0  0  0
   15.8944   42.4846   63.6820 C   0  0  0  0  0  0
   16.7980   42.4427   64.8831 C   0  0  0  0  0  0
   17.3743   43.6457   65.1369 O   0  0  0  0  0  0
   16.9245   41.4139   65.5352 O   0  0  0  0  0  0
    7.1424   41.4611   69.4549 H   0  0  0  0  0  0
    8.4605   43.1510   68.2554 H   0  0  0  0  0  0
   10.4789   39.9902   66.1334 H   0  0  0  0  0  0
    9.1836   38.3365   67.3578 H   0  0  0  0  0  0
   10.0302   43.6365   66.5146 H   0  0  0  0  0  0
   12.2107   44.6112   66.2491 H   0  0  0  0  0  0
   11.9388   44.0344   64.6176 H   0  0  0  0  0  0
   14.4340   43.1386   66.1770 H   0  0  0  0  0  0
   14.4362   44.6104   65.2782 H   0  0  0  0  0  0
   14.1007   43.5274   63.1364 H   0  0  0  0  0  0
   13.7427   41.2944   62.9993 H   0  0  0  0  0  0
   14.0329   41.0150   64.6125 H   0  0  0  0  0  0
    7.6138   36.2136   69.1426 H   0  0  0  0  0  0
    8.5196   34.7814   70.9456 H   0  0  0  0  0  0
    9.4589   35.7932   72.9728 H   0  0  0  0  0  0
    9.5117   38.2162   73.2205 H   0  0  0  0  0  0
    8.5225   39.6875   71.4643 H   0  0  0  0  0  0
   16.3516   43.0168   62.8583 H   0  0  0  0  0  0
   15.9496   41.4864   63.2389 H   0  0  0  0  0  0
   17.2171   44.2259   64.3874 H   0  0  0  0  0  0
  1  6  1  0  0  0
  1  2  2  0  0  0
  1 14  1  0  0  0
  2  3  1  0  0  0
  2 25  1  0  0  0
  3  4  2  0  0  0
  3 26  1  0  0  0
  4  7  1  0  0  0
  4  5  1  0  0  0
  5  6  2  0  0  0
  5 27  1  0  0  0
  6 28  1  0  0  0
  7  8  1  0  0  0
  7 29  1  0  0  0
  8  9  2  0  0  0
  8 10  1  0  0  0
 10 11  1  0  0  0
 10 30  1  0  0  0
 10 31  1  0  0  0
 11 12  1  0  0  0
 11 32  1  0  0  0
 11 33  1  0  0  0
 12 13  1  0  0  0
 12 21  1  0  0  0
 12 34  1  0  0  0
 13 35  1  0  0  0
 13 36  1  0  0  0
 14 15  1  0  0  0
 15 16  2  0  0  0
 15 20  1  0  0  0
 16 17  1  0  0  0
 16 37  1  0  0  0
 17 18  2  0  0  0
 17 38  1  0  0  0
 18 19  1  0  0  0
 18 39  1  0  0  0
 19 20  2  0  0  0
 19 40  1  0  0  0
 20 41  1  0  0  0
 21 22  1  0  0  0
 21 42  1  0  0  0
 21 43  1  0  0  0
 22 23  1  0  0  0
 22 24  2  0  0  0
 23 44  1  0  0  0
M  END
> <s_m_entry_id>
6757

> <s_m_entry_name>
dock_pv.187

> <s_m_Source_Path>
/home/csk/Desktop/cluster/DUD-E-result/lkha4

> <s_m_Source_File>
dock_pv.maegz

> <i_m_Source_File_Index>
187

> <chembl_id>
CHEMBL478298

> <chembl_pref_name>
None

> <i_lp_mmshare_version>
53161

> <i_f3d_flags>
0

> <r_lp_tautomer_probability>
1

> <s_lp_Force_Field>
OPLS_2005

> <r_lp_Energy>
19.653659

> <b_lp_Chiralities_Consistent>
1

> <s_lp_Variant>
CHEMBL4618_lig208-1

> <s_i_glide_gridfile>
glide-grid_3chp

> <i_i_glide_lignum>
236

> <i_i_glide_rotatable_bonds>
10

> <r_i_docking_score>
-9.48611792562712

> <r_i_glide_ligand_efficiency>
-0.395254913567797

> <r_i_glide_ligand_efficiency_sa>
-1.14011245730231

> <r_i_glide_ligand_efficiency_ln>
-2.27046330919033

> <r_i_glide_gscore>
-9.48611792562712

> <r_i_glide_lipo>
-4.23340505326624

> <r_i_glide_hbond>
-0.499618737236397

> <r_i_glide_metal>
0

> <r_i_glide_rewards>
-1.62246763942824

> <r_i_glide_evdw>
-40.6129570007324

> <r_i_glide_ecoul>
-17.1173973083496

> <r_i_glide_erotb>
1.56763095059282

> <r_i_glide_esite>
-0.1

> <r_i_glide_emodel>
-85.8252139741892

> <r_i_glide_energy>
-57.730354309082

> <r_i_glide_einternal>
9.23094272613525

> <i_i_glide_confnum>
112

> <i_i_glide_posenum>
284

> <r_i_glide_eff_state_penalty>
0

> <s_user_duplicate_titles>
CHEMBL4618_lig208,507036

> <s_m_subgroup_title>
dock_pv

> <s_m_subgroupid>
dock_pv

> <b_m_subgroup_collapsed>
1

$$$$
CHEMBL4618_lig455
                    3D
 Schrodinger Suite 2021-1.
 46 50  0  0  1  0            999 V2000
    7.7794   39.5740   69.0232 O   0  0  0  0  0  0
    7.6569   37.0491   69.7509 S   0  0  0  0  0  0
    8.3481   38.6369   69.8535 C   0  0  0  0  0  0
    9.2110   38.8369   70.8133 N   0  0  0  0  0  0
    9.3218   37.7247   71.6010 C   0  0  0  0  0  0
    8.5274   36.6217   71.2021 C   0  0  0  0  0  0
   10.1400   37.5842   72.7355 C   0  0  0  0  0  0
   10.1205   36.4009   73.4621 C   0  0  0  0  0  0
    9.3488   35.3340   73.0430 C   0  0  0  0  0  0
    8.5371   35.4186   71.9171 C   0  0  0  0  0  0
    8.6731   42.7863   67.4660 C   0  0  0  0  0  0
    8.0143   41.8018   68.2118 C   0  0  0  0  0  0
    8.5276   40.5085   68.3437 C   0  0  0  0  0  0
    9.7210   40.1635   67.7040 C   0  0  0  0  0  0
   10.8564   43.1390   66.0305 C   0  0  0  0  0  0
    9.8941   42.4678   66.8487 C   0  0  0  0  0  0
   10.3954   41.1594   66.9877 C   0  0  0  0  0  0
   11.5840   41.0163   66.3256 O   0  0  0  0  0  0
   11.8496   42.2165   65.7269 C   0  0  0  0  0  0
   13.0347   42.2513   64.7656 C   0  0  0  0  0  0
   14.3712   42.3701   65.3644 N   0  0  0  0  0  0
   14.5683   43.6940   65.9740 C   0  0  0  0  0  0
   15.9966   43.8772   66.5412 C   0  0  0  0  0  0
   17.0891   43.5669   65.5077 C   0  0  0  0  0  0
   16.8199   42.2095   64.8485 C   0  0  0  0  0  0
   15.3748   42.1015   64.3189 C   0  0  0  0  0  0
   10.8162   38.3479   73.0629 H   0  0  0  0  0  0
   10.7420   36.2960   74.3403 H   0  0  0  0  0  0
    9.3815   34.4158   73.6106 H   0  0  0  0  0  0
    7.9400   34.5785   71.5941 H   0  0  0  0  0  0
    8.2448   43.7761   67.3741 H   0  0  0  0  0  0
    7.0726   42.0447   68.6871 H   0  0  0  0  0  0
   10.1116   39.1627   67.7704 H   0  0  0  0  0  0
   10.8235   44.1567   65.6757 H   0  0  0  0  0  0
   12.8975   43.0533   64.0373 H   0  0  0  0  0  0
   13.0143   41.3331   64.1800 H   0  0  0  0  0  0
   13.8367   43.8156   66.7737 H   0  0  0  0  0  0
   14.3538   44.4653   65.2313 H   0  0  0  0  0  0
   16.1241   43.2679   67.4336 H   0  0  0  0  0  0
   16.1202   44.9012   66.8931 H   0  0  0  0  0  0
   17.1091   44.3410   64.7409 H   0  0  0  0  0  0
   18.0748   43.5737   65.9742 H   0  0  0  0  0  0
   17.5106   42.0783   64.0153 H   0  0  0  0  0  0
   17.0390   41.4004   65.5404 H   0  0  0  0  0  0
   15.2091   41.1006   63.9181 H   0  0  0  0  0  0
   15.2293   42.7834   63.4779 H   0  0  0  0  0  0
  1  3  1  0  0  0
  1 13  1  0  0  0
  2  3  1  0  0  0
  2  6  1  0  0  0
  3  4  2  0  0  0
  4  5  1  0  0  0
  5  6  1  0  0  0
  5  7  2  0  0  0
  6 10  2  0  0  0
  7  8  1  0  0  0
  7 27  1  0  0  0
  8  9  2  0  0  0
  8 28  1  0  0  0
  9 10  1  0  0  0
  9 29  1  0  0  0
 10 30  1  0  0  0
 11 16  2  0  0  0
 11 12  1  0  0  0
 11 31  1  0  0  0
 12 13  2  0  0  0
 12 32  1  0  0  0
 13 14  1  0  0  0
 14 17  2  0  0  0
 14 33  1  0  0  0
 15 16  1  0  0  0
 15 19  2  0  0  0
 15 34  1  0  0  0
 16 17  1  0  0  0
 17 18  1  0  0  0
 18 19  1  0  0  0
 19 20  1  0  0  0
 20 21  1  0  0  0
 20 35  1  0  0  0
 20 36  1  0  0  0
 21 22  1  0  0  0
 21 26  1  0  0  0
 22 23  1  0  0  0
 22 37  1  0  0  0
 22 38  1  0  0  0
 23 24  1  0  0  0
 23 39  1  0  0  0
 23 40  1  0  0  0
 24 25  1  0  0  0
 24 41  1  0  0  0
 24 42  1  0  0  0
 25 26  1  0  0  0
 25 43  1  0  0  0
 25 44  1  0  0  0
 26 45  1  0  0  0
 26 46  1  0  0  0
M  END
> <s_m_entry_id>
6758

> <s_m_entry_name>
dock_pv.188

> <s_m_Source_Path>
/home/csk/Desktop/cluster/DUD-E-result/lkha4

> <s_m_Source_File>
dock_pv.maegz

> <i_m_Source_File_Index>
188

> <chembl_id>
CHEMBL2313559

> <chembl_pref_name>
None

> <i_lp_mmshare_version>
53161

> <i_f3d_flags>
0

> <r_lp_tautomer_probability>
1

> <s_lp_Force_Field>
OPLS_2005

> <r_lp_Energy>
23.074067

> <b_lp_Chiralities_Consistent>
1

> <s_lp_Variant>
CHEMBL4618_lig455-1

> <s_i_glide_gridfile>
glide-grid_3chp

> <i_i_glide_lignum>
531

> <i_i_glide_rotatable_bonds>
4

> <r_i_docking_score>
-9.48564220103099

> <r_i_glide_ligand_efficiency>
-0.364832392347346

> <r_i_glide_ligand_efficiency_sa>
-1.08081452678287

> <r_i_glide_ligand_efficiency_ln>
-2.2276719459814

> <r_i_glide_gscore>
-9.48564220103099

> <r_i_glide_lipo>
-5.47985048022994

> <r_i_glide_hbond>
0

> <r_i_glide_metal>
0

> <r_i_glide_rewards>
-1.82412477272727

> <r_i_glide_evdw>
-45.8753929138184

> <r_i_glide_ecoul>
-3.11216616630554

> <r_i_glide_erotb>
0.578927622562972

> <r_i_glide_esite>
0

> <r_i_glide_emodel>
-73.7571703812475

> <r_i_glide_energy>
-48.9875590801239

> <r_i_glide_einternal>
4.91438913345337

> <i_i_glide_confnum>
13

> <i_i_glide_posenum>
237

> <r_i_glide_eff_state_penalty>
0

> <s_user_duplicate_titles>
CHEMBL4618_lig455

> <s_m_subgroup_title>
dock_pv

> <s_m_subgroupid>
dock_pv

> <b_m_subgroup_collapsed>
1

$$$$
CHEMBL4618_lig517
                    3D
 Schrodinger Suite 2021-1.
 52 54  0  0  1  0            999 V2000
   15.9706   42.5062   64.9354 C   0  0  0  0  0  0
   16.8205   43.6023   65.6789 C   0  0  0  0  0  0
   14.5135   42.7572   64.4846 C   0  0  2  0  0  0
   18.1400   43.3430   65.5400 O   0  0  0  0  0  0
   16.5210   41.4160   64.7400 O   0  0  0  0  0  0
   13.5861   43.4712   65.5316 C   0  0  0  0  0  0
   16.3439   44.5227   66.3400 O   0  0  0  0  0  0
    8.5561   41.0316   66.8091 O   0  0  0  0  0  0
   13.9528   41.5037   63.9400 N   0  0  0  0  0  0
   12.2140   42.8279   65.7844 C   0  0  0  0  0  0
    9.7574   41.6558   66.5096 C   0  0  0  0  0  0
   19.1316   44.1702   66.1296 C   0  0  0  0  0  0
    8.5210   39.5794   66.8319 C   0  0  0  0  0  0
   11.0094   43.5024   65.5597 C   0  0  0  0  0  0
   12.1737   41.5581   66.3400 C   0  0  0  0  0  0
   10.9631   41.0160   66.7401 C   0  0  0  0  0  0
    9.7872   42.9300   65.9400 C   0  0  0  0  0  0
   20.2255   43.2899   66.7013 C   0  0  0  0  0  0
    8.3510   38.9938   68.2399 C   0  0  0  0  0  0
    8.0393   37.6394   68.3907 C   0  0  0  0  0  0
    8.5444   39.7661   69.3848 C   0  0  0  0  0  0
   20.0839   42.7434   67.9796 C   0  0  0  0  0  0
   21.3626   43.0160   65.9400 C   0  0  0  0  0  0
    8.5210   39.1645   70.6431 C   0  0  0  0  0  0
   21.0855   41.9262   68.4981 C   0  0  0  0  0  0
   22.3717   42.2160   66.4664 C   0  0  0  0  0  0
    7.9599   37.0498   69.6485 C   0  0  0  0  0  0
    8.2151   37.8160   70.7766 C   0  0  0  0  0  0
   22.2255   41.6695   67.7392 C   0  0  0  0  0  0
   14.5313   43.4160   63.6198 H   0  0  0  0  0  0
   14.0496   43.5415   66.5155 H   0  0  0  0  0  0
   13.4446   44.5039   65.2110 H   0  0  0  0  0  0
   14.3168   41.2919   63.0000 H   0  0  0  0  0  0
   14.1210   40.6987   64.5260 H   0  0  0  0  0  0
   18.7393   44.8075   66.9242 H   0  0  0  0  0  0
   19.5441   44.8365   65.3706 H   0  0  0  0  0  0
    7.7210   39.2410   66.1878 H   0  0  0  0  0  0
    9.3696   39.0977   66.3458 H   0  0  0  0  0  0
   11.0246   44.4952   65.1400 H   0  0  0  0  0  0
   13.0880   41.0211   66.5449 H   0  0  0  0  0  0
   10.9210   40.0837   67.2671 H   0  0  0  0  0  0
    8.8637   43.4636   65.7740 H   0  0  0  0  0  0
    7.8688   37.0160   67.5400 H   0  0  0  0  0  0
    8.7617   40.8212   69.3040 H   0  0  0  0  0  0
   19.1963   42.9386   68.5642 H   0  0  0  0  0  0
   21.4626   43.4159   64.9419 H   0  0  0  0  0  0
    8.6772   39.7622   71.5268 H   0  0  0  0  0  0
   20.9787   41.4874   69.4796 H   0  0  0  0  0  0
   23.2555   41.9918   65.8852 H   0  0  0  0  0  0
    7.7210   36.0003   69.7460 H   0  0  0  0  0  0
    8.1645   37.3672   71.7579 H   0  0  0  0  0  0
   23.0033   41.0267   68.1278 H   0  0  0  0  0  0
  1  2  1  0  0  0
  1  3  1  0  0  0
  1  5  2  0  0  0
  2  4  1  0  0  0
  2  7  2  0  0  0
  3  6  1  0  0  0
  3  9  1  0  0  0
  3 30  1  0  0  0
  4 12  1  0  0  0
  6 10  1  0  0  0
  6 31  1  0  0  0
  6 32  1  0  0  0
  8 11  1  0  0  0
  8 13  1  0  0  0
  9 33  1  0  0  0
  9 34  1  0  0  0
 10 14  1  0  0  0
 10 15  2  0  0  0
 11 16  2  0  0  0
 11 17  1  0  0  0
 12 18  1  0  0  0
 12 35  1  0  0  0
 12 36  1  0  0  0
 13 19  1  0  0  0
 13 37  1  0  0  0
 13 38  1  0  0  0
 14 17  2  0  0  0
 14 39  1  0  0  0
 15 16  1  0  0  0
 15 40  1  0  0  0
 16 41  1  0  0  0
 17 42  1  0  0  0
 18 22  2  0  0  0
 18 23  1  0  0  0
 19 20  1  0  0  0
 19 21  2  0  0  0
 20 27  2  0  0  0
 20 43  1  0  0  0
 21 24  1  0  0  0
 21 44  1  0  0  0
 22 25  1  0  0  0
 22 45  1  0  0  0
 23 26  2  0  0  0
 23 46  1  0  0  0
 24 28  2  0  0  0
 24 47  1  0  0  0
 25 29  2  0  0  0
 25 48  1  0  0  0
 26 29  1  0  0  0
 26 49  1  0  0  0
 27 28  1  0  0  0
 27 50  1  0  0  0
 28 51  1  0  0  0
 29 52  1  0  0  0
M  END
> <s_m_entry_id>
6760

> <s_m_entry_name>
dock_pv.190

> <s_m_Source_Path>
/home/csk/Desktop/cluster/DUD-E-result/lkha4

> <s_m_Source_File>
dock_pv.maegz

> <i_m_Source_File_Index>
190

> <chembl_id>
CHEMBL71535

> <chembl_pref_name>
None

> <i_lp_mmshare_version>
53161

> <i_f3d_flags>
0

> <r_lp_tautomer_probability>
1

> <s_lp_Force_Field>
OPLS_2005

> <r_lp_Energy>
33.427279

> <b_lp_Chiralities_Consistent>
1

> <s_lp_Variant>
CHEMBL4618_lig517-1

> <s_i_glide_gridfile>
glide-grid_3chp

> <i_i_glide_lignum>
617

> <i_i_glide_rotatable_bonds>
10

> <r_i_docking_score>
-9.46492388308114

> <r_i_glide_ligand_efficiency>
-0.326376685623487

> <r_i_glide_ligand_efficiency_sa>
-1.00273258162712

> <r_i_glide_ligand_efficiency_ln>
-2.16722755946451

> <r_i_glide_gscore>
-9.46492388308114

> <r_i_glide_lipo>
-4.30071641825838

> <r_i_glide_hbond>
-0.363641951433656

> <r_i_glide_metal>
0

> <r_i_glide_rewards>
-1.57812312861997

> <r_i_glide_evdw>
-51.2399406433105

> <r_i_glide_ecoul>
-10.8955755233765

> <r_i_glide_erotb>
1.15680758703521

> <r_i_glide_esite>
-0.182916611132354

> <r_i_glide_emodel>
-90.1893954789258

> <r_i_glide_energy>
-62.135516166687

> <r_i_glide_einternal>
17.1980876922607

> <i_i_glide_confnum>
37

> <i_i_glide_posenum>
185

> <r_i_glide_eff_state_penalty>
0

> <s_user_duplicate_titles>
CHEMBL4618_lig517,110420

> <s_m_subgroup_title>
dock_pv

> <s_m_subgroupid>
dock_pv

> <b_m_subgroup_collapsed>
1

$$$$
CHEMBL4618_lig139
                    3D
 Schrodinger Suite 2021-1.
 47 48  0  0  1  0            999 V2000
   16.1359   41.7904   64.4086 C   0  0  0  0  0  0
   14.6832   41.4659   64.0536 C   0  0  0  0  0  0
   16.5588   42.1210   65.5123 O   0  0  0  0  0  0
    7.3210   38.3378   69.9119 O   0  0  0  0  0  0
   13.6422   41.4969   65.1838 C   0  0  0  0  0  0
   13.6084   42.6795   66.0445 N   0  0  2  0  0  0
    7.9429   39.1472   68.9977 C   0  0  0  0  0  0
    8.0907   37.6046   70.7756 C   0  0  0  0  0  0
    9.5027   36.0320   72.5850 C   0  0  0  0  0  0
   16.9210   41.4160   63.3779 O   0  0  0  0  0  0
    9.1054   40.8588   67.1368 C   0  0  0  0  0  0
   10.1884   35.2690   73.4652 F   0  0  0  0  0  0
    8.1210   36.2280   70.6264 C   0  0  0  0  0  0
    8.6021   38.6153   67.8939 C   0  0  0  0  0  0
    8.7730   38.2047   71.8276 C   0  0  0  0  0  0
    7.8468   40.5260   69.1367 C   0  0  0  0  0  0
    8.8101   35.4312   71.5400 C   0  0  0  0  0  0
    9.4962   37.4160   72.7250 C   0  0  0  0  0  0
    9.1861   39.4753   66.9688 C   0  0  0  0  0  0
    8.4062   41.3862   68.2181 C   0  0  0  0  0  0
   11.1973   43.3499   65.7773 C   0  0  0  0  0  0
    9.7215   41.6264   66.1823 O   0  0  0  0  0  0
   12.3086   42.7860   66.7001 C   0  0  0  0  0  0
    9.8131   43.0366   66.3160 C   0  0  0  0  0  0
   14.0295   43.9614   65.4877 C   0  0  0  0  0  0
   14.4209   42.2458   63.3374 H   0  0  0  0  0  0
   14.6196   40.5057   63.5400 H   0  0  0  0  0  0
   12.6640   41.3287   64.7400 H   0  0  0  0  0  0
   13.7741   40.6160   65.8135 H   0  0  0  0  0  0
   17.6486   42.0406   63.2093 H   0  0  0  0  0  0
    7.5711   35.8160   69.7994 H   0  0  0  0  0  0
    8.6673   37.5458   67.7589 H   0  0  0  0  0  0
    8.7076   39.2749   71.9400 H   0  0  0  0  0  0
    7.3210   40.9729   69.9400 H   0  0  0  0  0  0
    8.8075   34.3560   71.4400 H   0  0  0  0  0  0
   10.0374   37.8684   73.5399 H   0  0  0  0  0  0
    9.7111   39.0674   66.1167 H   0  0  0  0  0  0
    8.2616   42.4443   68.3677 H   0  0  0  0  0  0
   11.2940   44.4299   65.7496 H   0  0  0  0  0  0
   11.3057   43.0363   64.7393 H   0  0  0  0  0  0
   12.0160   41.8207   67.1166 H   0  0  0  0  0  0
   12.4207   43.4161   67.5776 H   0  0  0  0  0  0
    9.7590   43.4160   67.3349 H   0  0  0  0  0  0
    9.0311   43.5191   65.7283 H   0  0  0  0  0  0
   14.1211   44.6160   66.3399 H   0  0  0  0  0  0
   15.0131   43.9667   65.0354 H   0  0  0  0  0  0
   13.3353   44.3796   64.7590 H   0  0  0  0  0  0
  1  2  1  0  0  0
  1  3  2  0  0  0
  1 10  1  0  0  0
  2  5  1  0  0  0
  2 26  1  0  0  0
  2 27  1  0  0  0
  4  7  1  0  0  0
  4  8  1  0  0  0
  5  6  1  0  0  0
  5 28  1  0  0  0
  5 29  1  0  0  0
  6 23  1  0  0  0
  6 25  1  0  0  0
  7 16  1  0  0  0
  7 14  2  0  0  0
  8 13  2  0  0  0
  8 15  1  0  0  0
  9 18  1  0  0  0
  9 12  1  0  0  0
  9 17  2  0  0  0
 10 30  1  0  0  0
 11 22  1  0  0  0
 11 19  2  0  0  0
 11 20  1  0  0  0
 13 17  1  0  0  0
 13 31  1  0  0  0
 14 19  1  0  0  0
 14 32  1  0  0  0
 15 18  2  0  0  0
 15 33  1  0  0  0
 16 20  2  0  0  0
 16 34  1  0  0  0
 17 35  1  0  0  0
 18 36  1  0  0  0
 19 37  1  0  0  0
 20 38  1  0  0  0
 21 23  1  0  0  0
 21 24  1  0  0  0
 21 39  1  0  0  0
 21 40  1  0  0  0
 22 24  1  0  0  0
 23 41  1  0  0  0
 23 42  1  0  0  0
 24 43  1  0  0  0
 24 44  1  0  0  0
 25 45  1  0  0  0
 25 46  1  0  0  0
 25 47  1  0  0  0
M  END
> <s_m_entry_id>
6761

> <s_m_entry_name>
dock_pv.191

> <s_m_Source_Path>
/home/csk/Desktop/cluster/DUD-E-result/lkha4

> <s_m_Source_File>
dock_pv.maegz

> <i_m_Source_File_Index>
191

> <chembl_id>
CHEMBL119529

> <chembl_pref_name>
None

> <i_lp_mmshare_version>
53161

> <i_f3d_flags>
0

> <r_lp_tautomer_probability>
1

> <s_lp_Force_Field>
OPLS_2005

> <r_lp_Energy>
23.48765

> <b_lp_Chiralities_Consistent>
1

> <s_lp_Variant>
CHEMBL4618_lig139-1

> <s_i_glide_gridfile>
glide-grid_3chp

> <i_i_glide_lignum>
165

> <i_i_glide_rotatable_bonds>
11

> <r_i_docking_score>
-9.45616368246066

> <r_i_glide_ligand_efficiency>
-0.378246547298426

> <r_i_glide_ligand_efficiency_sa>
-1.10599961253168

> <r_i_glide_ligand_efficiency_ln>
-2.24139417110151

> <r_i_glide_gscore>
-9.45616368246066

> <r_i_glide_lipo>
-5.00292872787089

> <r_i_glide_hbond>
-0.304

> <r_i_glide_metal>
0

> <r_i_glide_rewards>
-1.53187776553707

> <r_i_glide_evdw>
-40.0676918029785

> <r_i_glide_ecoul>
-13.9362230300903

> <r_i_glide_erotb>
1.57646085560978

> <r_i_glide_esite>
-0.1

> <r_i_glide_emodel>
-79.3094866530584

> <r_i_glide_energy>
-54.0039148330688

> <r_i_glide_einternal>
14.5587453842163

> <i_i_glide_confnum>
110

> <i_i_glide_posenum>
272

> <r_i_glide_eff_state_penalty>
0

> <s_user_duplicate_titles>
CHEMBL4618_lig139,192871

> <s_m_subgroup_title>
dock_pv

> <s_m_subgroupid>
dock_pv

> <b_m_subgroup_collapsed>
1

$$$$
CHEMBL4618_lig221
                    3D
 Schrodinger Suite 2021-1.
 42 43  0  0  1  0            999 V2000
    8.2934   40.5142   68.3088 C   0  0  0  0  0  0
    9.2668   39.8705   67.5400 C   0  0  0  0  0  0
   10.1239   40.6160   66.7436 C   0  0  0  0  0  0
   10.0252   42.0129   66.7200 C   0  0  0  0  0  0
    8.9798   42.6385   67.3983 C   0  0  0  0  0  0
    8.1210   41.8917   68.1984 C   0  0  0  0  0  0
   10.9483   42.8283   66.0396 N   0  0  0  0  0  0
   12.2689   42.5783   65.8974 C   0  0  0  0  0  0
   12.8194   41.5727   66.3399 O   0  0  0  0  0  0
   13.1028   43.6283   65.1467 C   0  0  0  0  0  0
   14.5876   43.7365   65.6040 C   0  0  0  0  0  0
   15.5178   42.5499   65.2609 C   0  0  1  0  0  0
   15.7616   42.3561   63.7642 C   0  0  0  0  0  0
   16.8015   42.7156   65.9337 N   0  0  0  0  0  0
   16.1210   41.0160   63.5400 O   0  0  0  0  0  0
    7.4450   39.8280   69.1400 O   0  0  0  0  0  0
    7.9129   38.7499   69.8502 C   0  0  0  0  0  0
    8.5210   38.9167   71.0959 C   0  0  0  0  0  0
    8.8973   37.8160   71.8588 C   0  0  0  0  0  0
    8.6876   36.5424   71.3489 C   0  0  0  0  0  0
    8.1210   36.3855   70.0882 C   0  0  0  0  0  0
    7.7210   37.4777   69.3378 C   0  0  0  0  0  0
    9.3769   38.7969   67.5695 H   0  0  0  0  0  0
   10.8793   40.0974   66.1718 H   0  0  0  0  0  0
    8.8461   43.7091   67.3434 H   0  0  0  0  0  0
    7.3307   42.3842   68.7481 H   0  0  0  0  0  0
   10.6184   43.7452   65.7838 H   0  0  0  0  0  0
   12.6280   44.6003   65.2787 H   0  0  0  0  0  0
   13.0381   43.4190   64.0798 H   0  0  0  0  0  0
   14.6064   43.9226   66.6800 H   0  0  0  0  0  0
   15.0198   44.6160   65.1400 H   0  0  0  0  0  0
   15.0549   41.6317   65.6041 H   0  0  0  0  0  0
   16.5210   43.0160   63.3564 H   0  0  0  0  0  0
   14.8578   42.5507   63.1878 H   0  0  0  0  0  0
   17.5104   42.2477   65.3825 H   0  0  0  0  0  0
   17.0582   43.6915   65.8751 H   0  0  0  0  0  0
   15.7978   40.8693   62.6210 H   0  0  0  0  0  0
    8.6192   39.9023   71.5037 H   0  0  0  0  0  0
    9.3304   37.9495   72.8395 H   0  0  0  0  0  0
    8.9815   35.6734   71.9195 H   0  0  0  0  0  0
    8.0182   35.4160   69.6619 H   0  0  0  0  0  0
    7.2712   37.3463   68.3652 H   0  0  0  0  0  0
  1  6  1  0  0  0
  1  2  2  0  0  0
  1 16  1  0  0  0
  2  3  1  0  0  0
  2 23  1  0  0  0
  3  4  2  0  0  0
  3 24  1  0  0  0
  4  7  1  0  0  0
  4  5  1  0  0  0
  5  6  2  0  0  0
  5 25  1  0  0  0
  6 26  1  0  0  0
  7  8  1  0  0  0
  7 27  1  0  0  0
  8  9  2  0  0  0
  8 10  1  0  0  0
 10 11  1  0  0  0
 10 28  1  0  0  0
 10 29  1  0  0  0
 11 12  1  0  0  0
 11 30  1  0  0  0
 11 31  1  0  0  0
 12 13  1  0  0  0
 12 14  1  0  0  0
 12 32  1  0  0  0
 13 15  1  0  0  0
 13 33  1  0  0  0
 13 34  1  0  0  0
 14 35  1  0  0  0
 14 36  1  0  0  0
 15 37  1  0  0  0
 16 17  1  0  0  0
 17 18  2  0  0  0
 17 22  1  0  0  0
 18 19  1  0  0  0
 18 38  1  0  0  0
 19 20  2  0  0  0
 19 39  1  0  0  0
 20 21  1  0  0  0
 20 40  1  0  0  0
 21 22  2  0  0  0
 21 41  1  0  0  0
 22 42  1  0  0  0
M  END
> <s_m_entry_id>
6762

> <s_m_entry_name>
dock_pv.192

> <s_m_Source_Path>
/home/csk/Desktop/cluster/DUD-E-result/lkha4

> <s_m_Source_File>
dock_pv.maegz

> <i_m_Source_File_Index>
192

> <chembl_id>
CHEMBL516418

> <chembl_pref_name>
None

> <i_lp_mmshare_version>
53161

> <i_f3d_flags>
0

> <r_lp_tautomer_probability>
1

> <s_lp_Force_Field>
OPLS_2005

> <r_lp_Energy>
29.252049

> <b_lp_Chiralities_Consistent>
1

> <s_lp_Variant>
CHEMBL4618_lig221-1

> <s_i_glide_gridfile>
glide-grid_3chp

> <i_i_glide_lignum>
250

> <i_i_glide_rotatable_bonds>
9

> <r_i_docking_score>
-9.45474257458643

> <r_i_glide_ligand_efficiency>
-0.429761026117565

> <r_i_glide_ligand_efficiency_sa>
-1.20420729672348

> <r_i_glide_ligand_efficiency_ln>
-2.31108395534373

> <r_i_glide_gscore>
-9.45474257458643

> <r_i_glide_lipo>
-4.06275558773118

> <r_i_glide_hbond>
-0.456

> <r_i_glide_metal>
0

> <r_i_glide_rewards>
-1.73767861391502

> <r_i_glide_evdw>
-34.6784858703613

> <r_i_glide_ecoul>
-20.6291065216064

> <r_i_glide_erotb>
1.6299818988188

> <r_i_glide_esite>
0

> <r_i_glide_emodel>
-90.6368391304177

> <r_i_glide_energy>
-55.3075923919678

> <r_i_glide_einternal>
5.351149559021

> <i_i_glide_confnum>
69

> <i_i_glide_posenum>
20

> <r_i_glide_eff_state_penalty>
0

> <s_user_duplicate_titles>
CHEMBL4618_lig221,507047

> <s_m_subgroup_title>
dock_pv

> <s_m_subgroupid>
dock_pv

> <b_m_subgroup_collapsed>
1

$$$$
CHEMBL4618_lig130
                    3D
 Schrodinger Suite 2021-1.
 45 48  0  0  1  0            999 V2000
   16.2285   43.4501   65.8855 C   0  0  0  0  0  0
   16.2971   44.3799   66.8430 N   0  0  0  0  0  0
   15.1422   43.0246   65.1403 N   0  0  0  0  0  0
   16.9197   41.8148   64.4410 N   0  0  0  0  0  0
   17.3206   42.6961   65.4046 C   0  0  0  0  0  0
   15.6423   42.0632   64.2876 C   0  0  0  0  0  0
   17.5329   44.6180   67.3602 C   0  0  0  0  0  0
   18.5901   42.9522   65.9400 C   0  0  0  0  0  0
   18.6765   43.9365   66.9292 C   0  0  0  0  0  0
   17.7444   45.5437   68.3428 O   0  0  0  0  0  0
   13.7789   43.5528   65.1454 C   0  0  0  0  0  0
    8.6341   41.0939   68.0338 C   0  0  0  0  0  0
    7.7063   40.4986   69.0919 C   0  0  0  0  0  0
   10.4965   42.3423   66.3402 C   0  0  0  0  0  0
    8.4264   42.4065   67.5990 C   0  0  0  0  0  0
    9.7214   40.3791   67.5368 C   0  0  0  0  0  0
   10.6431   41.0032   66.7060 C   0  0  0  0  0  0
    9.3442   43.0159   66.7423 C   0  0  0  0  0  0
    8.0227   39.0994   69.6347 C   0  0  0  0  0  0
   11.4473   43.0328   65.6072 O   0  0  0  0  0  0
   12.7589   42.4653   65.5023 C   0  0  0  0  0  0
    8.5220   38.9552   70.9322 C   0  0  0  0  0  0
    7.7211   37.9610   68.8869 C   0  0  0  0  0  0
    8.7184   37.6997   71.4927 C   0  0  0  0  0  0
    7.9309   36.7021   69.4439 C   0  0  0  0  0  0
    8.4181   36.5734   70.7406 C   0  0  0  0  0  0
   14.9915   41.6229   63.5403 H   0  0  0  0  0  0
   19.4647   42.4205   65.5912 H   0  0  0  0  0  0
   19.6377   44.1629   67.3663 H   0  0  0  0  0  0
   16.9051   45.7926   68.7360 H   0  0  0  0  0  0
   13.7225   44.3537   65.8786 H   0  0  0  0  0  0
   13.5744   43.9851   64.1648 H   0  0  0  0  0  0
    7.7217   41.2060   69.9210 H   0  0  0  0  0  0
    6.6765   40.5156   68.7400 H   0  0  0  0  0  0
    7.5767   42.9739   67.9539 H   0  0  0  0  0  0
    9.8901   39.3530   67.8246 H   0  0  0  0  0  0
   11.4744   40.4218   66.3432 H   0  0  0  0  0  0
    9.1910   44.0426   66.4448 H   0  0  0  0  0  0
   12.7562   41.6805   64.7444 H   0  0  0  0  0  0
   13.0676   42.0207   66.4518 H   0  0  0  0  0  0
    8.7168   39.8177   71.5397 H   0  0  0  0  0  0
    7.3249   38.0492   67.8855 H   0  0  0  0  0  0
    9.0864   37.6039   72.5038 H   0  0  0  0  0  0
    7.7212   35.8151   68.8681 H   0  0  0  0  0  0
    8.5613   35.5887   71.1612 H   0  0  0  0  0  0
  1  2  2  0  0  0
  1  3  1  0  0  0
  1  5  1  0  0  0
  2  7  1  0  0  0
  3  6  1  0  0  0
  3 11  1  0  0  0
  4  5  1  0  0  0
  4  6  2  0  0  0
  5  8  2  0  0  0
  6 27  1  0  0  0
  7 10  1  0  0  0
  7  9  2  0  0  0
  8  9  1  0  0  0
  8 28  1  0  0  0
  9 29  1  0  0  0
 10 30  1  0  0  0
 11 21  1  0  0  0
 11 31  1  0  0  0
 11 32  1  0  0  0
 12 15  1  0  0  0
 12 13  1  0  0  0
 12 16  2  0  0  0
 13 19  1  0  0  0
 13 33  1  0  0  0
 13 34  1  0  0  0
 14 20  1  0  0  0
 14 17  2  0  0  0
 14 18  1  0  0  0
 15 18  2  0  0  0
 15 35  1  0  0  0
 16 17  1  0  0  0
 16 36  1  0  0  0
 17 37  1  0  0  0
 18 38  1  0  0  0
 19 22  1  0  0  0
 19 23  2  0  0  0
 20 21  1  0  0  0
 21 39  1  0  0  0
 21 40  1  0  0  0
 22 24  2  0  0  0
 22 41  1  0  0  0
 23 25  1  0  0  0
 23 42  1  0  0  0
 24 26  1  0  0  0
 24 43  1  0  0  0
 25 26  2  0  0  0
 25 44  1  0  0  0
 26 45  1  0  0  0
M  END
> <s_m_entry_id>
6763

> <s_m_entry_name>
dock_pv.193

> <s_m_Source_Path>
/home/csk/Desktop/cluster/DUD-E-result/lkha4

> <s_m_Source_File>
dock_pv.maegz

> <i_m_Source_File_Index>
193

> <chembl_id>
CHEMBL416349

> <chembl_pref_name>
None

> <i_lp_mmshare_version>
53161

> <i_f3d_flags>
0

> <r_lp_tautomer_probability>
1

> <s_lp_Force_Field>
OPLS_2005

> <r_lp_Energy>
18.121805

> <b_lp_Chiralities_Consistent>
1

> <s_lp_Variant>
CHEMBL4618_lig130-1

> <s_i_glide_gridfile>
glide-grid_3chp

> <i_i_glide_lignum>
156

> <i_i_glide_rotatable_bonds>
7

> <r_i_docking_score>
-9.44638038691667

> <r_i_glide_ligand_efficiency>
-0.363322322573718

> <r_i_glide_ligand_efficiency_sa>
-1.07634095102033

> <r_i_glide_ligand_efficiency_ln>
-2.21845143776518

> <r_i_glide_gscore>
-9.44638038691667

> <r_i_glide_lipo>
-4.65574397770646

> <r_i_glide_hbond>
-0.0045830495982387

> <r_i_glide_metal>
0

> <r_i_glide_rewards>
-1.94215260794022

> <r_i_glide_evdw>
-53.0679779052734

> <r_i_glide_ecoul>
-5.88245058059692

> <r_i_glide_erotb>
0.95555822838211

> <r_i_glide_esite>
-0.263692497700646

> <r_i_glide_emodel>
-86.5274909019971

> <r_i_glide_energy>
-58.9504284858704

> <r_i_glide_einternal>
11.9673318862915

> <i_i_glide_confnum>
29

> <i_i_glide_posenum>
383

> <r_i_glide_eff_state_penalty>
0

> <s_user_duplicate_titles>
CHEMBL4618_lig130,14944

> <s_m_subgroup_title>
dock_pv

> <s_m_subgroupid>
dock_pv

> <b_m_subgroup_collapsed>
1

$$$$
CHEMBL4618_lig104
                    3D
 Schrodinger Suite 2021-1.
 45 47  0  0  1  0            999 V2000
    9.0104   40.8890   66.7984 O   0  0  0  0  0  0
   14.0906   42.2889   65.4642 O   0  0  0  0  0  0
   11.2518   42.6699   65.5396 N   0  0  0  0  0  0
    8.1167   37.9432   69.6501 C   0  0  0  0  0  0
    8.6915   39.9583   67.7694 C   0  0  0  0  0  0
    8.2102   37.6378   68.2921 C   0  0  0  0  0  0
    8.2619   39.2672   70.0425 C   0  0  0  0  0  0
    8.5205   38.6339   67.3637 C   0  0  0  0  0  0
    8.5197   40.2714   69.1216 C   0  0  0  0  0  0
    7.7176   36.8872   70.6822 C   0  0  0  0  0  0
    8.7498   36.4427   71.7264 C   0  0  0  0  0  0
    9.8998   43.0364   66.0024 C   0  0  0  0  0  0
    9.3031   42.2369   67.1834 C   0  0  0  0  0  0
   11.8710   41.4425   66.0628 C   0  0  0  0  0  0
   12.1815   43.8020   65.4409 C   0  0  0  0  0  0
    9.0159   35.0821   71.9157 C   0  0  0  0  0  0
    9.3736   37.3749   72.5564 C   0  0  0  0  0  0
   13.2425   41.1468   65.4150 C   0  0  0  0  0  0
   13.5179   43.3989   64.7820 C   0  0  0  0  0  0
    9.9206   34.6598   72.8857 C   0  0  0  0  0  0
   10.2611   36.9550   73.5418 C   0  0  0  0  0  0
   10.5203   35.5997   73.7138 C   0  0  0  0  0  0
    8.0725   36.6261   67.9406 H   0  0  0  0  0  0
    8.1235   39.5356   71.0748 H   0  0  0  0  0  0
    8.6317   38.3770   66.3214 H   0  0  0  0  0  0
    8.5882   41.2876   69.4790 H   0  0  0  0  0  0
    7.3231   36.0160   70.1563 H   0  0  0  0  0  0
    6.8750   37.2999   71.2369 H   0  0  0  0  0  0
    9.2352   42.9260   65.1465 H   0  0  0  0  0  0
    9.8608   44.0969   66.2611 H   0  0  0  0  0  0
    8.3794   42.7189   67.5056 H   0  0  0  0  0  0
    9.9984   42.2743   68.0231 H   0  0  0  0  0  0
   11.9790   41.5297   67.1400 H   0  0  0  0  0  0
   11.2124   40.5910   65.8922 H   0  0  0  0  0  0
   11.7208   44.6002   64.8578 H   0  0  0  0  0  0
   12.3549   44.2123   66.4340 H   0  0  0  0  0  0
    8.5234   34.3411   71.3037 H   0  0  0  0  0  0
    9.1587   38.4248   72.4767 H   0  0  0  0  0  0
   13.1364   40.8013   64.3861 H   0  0  0  0  0  0
   13.7198   40.3309   65.9533 H   0  0  0  0  0  0
   13.3814   43.1719   63.7229 H   0  0  0  0  0  0
   14.2164   44.2324   64.8278 H   0  0  0  0  0  0
   10.1275   33.6068   73.0170 H   0  0  0  0  0  0
   10.7373   37.6790   74.1856 H   0  0  0  0  0  0
   11.2036   35.2743   74.4861 H   0  0  0  0  0  0
  1  5  1  0  0  0
  1 13  1  0  0  0
  2 18  1  0  0  0
  2 19  1  0  0  0
  3 12  1  0  0  0
  3 14  1  0  0  0
  3 15  1  0  0  0
  4  6  2  0  0  0
  4  7  1  0  0  0
  4 10  1  0  0  0
  5  8  2  0  0  0
  5  9  1  0  0  0
  6  8  1  0  0  0
  6 23  1  0  0  0
  7  9  2  0  0  0
  7 24  1  0  0  0
  8 25  1  0  0  0
  9 26  1  0  0  0
 10 11  1  0  0  0
 10 27  1  0  0  0
 10 28  1  0  0  0
 11 16  2  0  0  0
 11 17  1  0  0  0
 12 13  1  0  0  0
 12 29  1  0  0  0
 12 30  1  0  0  0
 13 31  1  0  0  0
 13 32  1  0  0  0
 14 18  1  0  0  0
 14 33  1  0  0  0
 14 34  1  0  0  0
 15 19  1  0  0  0
 15 35  1  0  0  0
 15 36  1  0  0  0
 16 20  1  0  0  0
 16 37  1  0  0  0
 17 21  2  0  0  0
 17 38  1  0  0  0
 18 39  1  0  0  0
 18 40  1  0  0  0
 19 41  1  0  0  0
 19 42  1  0  0  0
 20 22  2  0  0  0
 20 43  1  0  0  0
 21 22  1  0  0  0
 21 44  1  0  0  0
 22 45  1  0  0  0
M  END
> <s_m_entry_id>
6764

> <s_m_entry_name>
dock_pv.194

> <s_m_Source_Path>
/home/csk/Desktop/cluster/DUD-E-result/lkha4

> <s_m_Source_File>
dock_pv.maegz

> <i_m_Source_File_Index>
194

> <chembl_id>
CHEMBL350833

> <chembl_pref_name>
None

> <i_lp_mmshare_version>
53161

> <i_f3d_flags>
0

> <r_lp_tautomer_probability>
1

> <s_lp_Force_Field>
OPLS_2005

> <r_lp_Energy>
33.695961

> <b_lp_Chiralities_Consistent>
1

> <s_lp_Variant>
CHEMBL4618_lig104-1

> <s_i_glide_gridfile>
glide-grid_3chp

> <i_i_glide_lignum>
128

> <i_i_glide_rotatable_bonds>
6

> <r_i_docking_score>
-9.44446398233253

> <r_i_glide_ligand_efficiency>
-0.429293817378751

> <r_i_glide_ligand_efficiency_sa>
-1.20289815946305

> <r_i_glide_ligand_efficiency_ln>
-2.30857149247611

> <r_i_glide_gscore>
-9.44446398233253

> <r_i_glide_lipo>
-5.60216171364081

> <r_i_glide_hbond>
0

> <r_i_glide_metal>
0

> <r_i_glide_rewards>
-2.28124946226484

> <r_i_glide_evdw>
-40.1733665466309

> <r_i_glide_ecoul>
-3.92621254920959

> <r_i_glide_erotb>
1.03654740328611

> <r_i_glide_esite>
0

> <r_i_glide_emodel>
-66.5790814291275

> <r_i_glide_energy>
-44.0995790958405

> <r_i_glide_einternal>
7.80137062072754

> <i_i_glide_confnum>
121

> <i_i_glide_posenum>
384

> <r_i_glide_eff_state_penalty>
0

> <s_user_duplicate_titles>
CHEMBL4618_lig104,270913

> <s_m_subgroup_title>
dock_pv

> <s_m_subgroupid>
dock_pv

> <b_m_subgroup_collapsed>
1

$$$$
CHEMBL4618_lig195
                    3D
 Schrodinger Suite 2021-1.
 47 48  0  0  1  0            999 V2000
    8.2766   39.9078   68.5880 C   0  0  0  0  0  0
    9.0174   39.5036   67.4744 C   0  0  0  0  0  0
    9.7219   40.4304   66.7401 C   0  0  0  0  0  0
    9.6730   41.7879   67.0694 C   0  0  0  0  0  0
    8.8106   42.2165   68.0786 C   0  0  0  0  0  0
    8.1213   41.2725   68.8402 C   0  0  0  0  0  0
   10.4820   42.7339   66.4183 N   0  0  0  0  0  0
   11.7253   42.4990   65.9403 C   0  0  0  0  0  0
   12.3067   41.4205   66.0560 O   0  0  0  0  0  0
   12.4195   43.6616   65.2262 C   0  0  0  0  0  0
   13.7534   43.3174   64.5094 C   0  0  0  0  0  0
   14.9135   42.7837   65.3947 C   0  0  1  0  0  0
   16.1133   42.2049   64.6154 C   0  0  0  0  0  0
   15.4319   43.7928   66.3400 N   0  0  0  0  0  0
   16.1372   42.6159   63.3217 O   0  0  0  0  0  0
   16.9129   41.4162   65.1345 O   0  0  0  0  0  0
    7.7154   39.0134   69.4748 O   0  0  0  0  0  0
    7.8932   37.6220   69.2163 C   0  0  0  0  0  0
    7.4611   36.7844   70.4106 C   0  0  0  0  0  0
    8.5207   36.5628   71.4921 C   0  0  0  0  0  0
    8.7949   35.2657   71.9400 C   0  0  0  0  0  0
    9.7212   35.0399   72.9539 C   0  0  0  0  0  0
   10.3572   36.1223   73.5454 C   0  0  0  0  0  0
   10.1201   37.4146   73.0860 C   0  0  0  0  0  0
    9.1976   37.6400   72.0636 C   0  0  0  0  0  0
    9.1319   38.4708   67.1885 H   0  0  0  0  0  0
   10.3391   40.0584   65.9399 H   0  0  0  0  0  0
    8.7126   43.2648   68.3188 H   0  0  0  0  0  0
    7.5068   41.6025   69.6624 H   0  0  0  0  0  0
   10.1452   43.6854   66.4237 H   0  0  0  0  0  0
   12.5750   44.4645   65.9380 H   0  0  0  0  0  0
   11.7262   44.0556   64.4844 H   0  0  0  0  0  0
   14.1179   44.2159   64.0211 H   0  0  0  0  0  0
   13.5387   42.6207   63.6955 H   0  0  0  0  0  0
   14.5477   41.9226   65.9399 H   0  0  0  0  0  0
   14.6979   44.0988   66.9655 H   0  0  0  0  0  0
   16.1680   43.4197   66.9224 H   0  0  0  0  0  0
   16.9755   42.4957   62.8505 H   0  0  0  0  0  0
    7.2760   37.3749   68.3508 H   0  0  0  0  0  0
    8.9217   37.3611   68.9778 H   0  0  0  0  0  0
    6.5650   37.2255   70.8465 H   0  0  0  0  0  0
    7.1951   35.8161   69.9894 H   0  0  0  0  0  0
    8.2657   34.4155   71.5398 H   0  0  0  0  0  0
    9.9145   34.0366   73.3041 H   0  0  0  0  0  0
   11.0526   35.9561   74.3549 H   0  0  0  0  0  0
   10.6458   38.2336   73.5418 H   0  0  0  0  0  0
    8.9918   38.6473   71.7327 H   0  0  0  0  0  0
  1  6  1  0  0  0
  1  2  2  0  0  0
  1 17  1  0  0  0
  2  3  1  0  0  0
  2 26  1  0  0  0
  3  4  2  0  0  0
  3 27  1  0  0  0
  4  7  1  0  0  0
  4  5  1  0  0  0
  5  6  2  0  0  0
  5 28  1  0  0  0
  6 29  1  0  0  0
  7  8  1  0  0  0
  7 30  1  0  0  0
  8  9  2  0  0  0
  8 10  1  0  0  0
 10 11  1  0  0  0
 10 31  1  0  0  0
 10 32  1  0  0  0
 11 12  1  0  0  0
 11 33  1  0  0  0
 11 34  1  0  0  0
 12 13  1  0  0  0
 12 14  1  0  0  0
 12 35  1  0  0  0
 13 15  1  0  0  0
 13 16  2  0  0  0
 14 36  1  0  0  0
 14 37  1  0  0  0
 15 38  1  0  0  0
 17 18  1  0  0  0
 18 19  1  0  0  0
 18 39  1  0  0  0
 18 40  1  0  0  0
 19 20  1  0  0  0
 19 41  1  0  0  0
 19 42  1  0  0  0
 20 21  2  0  0  0
 20 25  1  0  0  0
 21 22  1  0  0  0
 21 43  1  0  0  0
 22 23  2  0  0  0
 22 44  1  0  0  0
 23 24  1  0  0  0
 23 45  1  0  0  0
 24 25  2  0  0  0
 24 46  1  0  0  0
 25 47  1  0  0  0
M  END
> <s_m_entry_id>
6765

> <s_m_entry_name>
dock_pv.195

> <s_m_Source_Path>
/home/csk/Desktop/cluster/DUD-E-result/lkha4

> <s_m_Source_File>
dock_pv.maegz

> <i_m_Source_File_Index>
195

> <chembl_id>
CHEMBL478993

> <chembl_pref_name>
None

> <i_lp_mmshare_version>
53161

> <i_f3d_flags>
0

> <r_lp_tautomer_probability>
1

> <s_lp_Force_Field>
OPLS_2005

> <r_lp_Energy>
23.556091

> <b_lp_Chiralities_Consistent>
1

> <s_lp_Variant>
CHEMBL4618_lig195-1

> <s_i_glide_gridfile>
glide-grid_3chp

> <i_i_glide_lignum>
223

> <i_i_glide_rotatable_bonds>
11

> <r_i_docking_score>
-9.44109149328409

> <r_i_glide_ligand_efficiency>
-0.377643659731363

> <r_i_glide_ligand_efficiency_sa>
-1.10423675859333

> <r_i_glide_ligand_efficiency_ln>
-2.2378216105896

> <r_i_glide_gscore>
-9.44109149328409

> <r_i_glide_lipo>
-4.88854836424394

> <r_i_glide_hbond>
-0.301312254697649

> <r_i_glide_metal>
0

> <r_i_glide_rewards>
-1.62909169402824

> <r_i_glide_evdw>
-44.8371887207031

> <r_i_glide_ecoul>
-11.5734806060791

> <r_i_glide_erotb>
1.45574234663277

> <r_i_glide_esite>
-0.1

> <r_i_glide_emodel>
-89.2326431245219

> <r_i_glide_energy>
-56.4106693267822

> <r_i_glide_einternal>
9.66574954986572

> <i_i_glide_confnum>
3

> <i_i_glide_posenum>
153

> <r_i_glide_eff_state_penalty>
0

> <s_user_duplicate_titles>
CHEMBL4618_lig195,507031

> <s_m_subgroup_title>
dock_pv

> <s_m_subgroupid>
dock_pv

> <b_m_subgroup_collapsed>
1

$$$$
CHEMBL4618_lig128
                    3D
 Schrodinger Suite 2021-1.
 45 48  0  0  1  0            999 V2000
   16.9210   41.8057   64.4575 N   0  0  0  0  0  0
   17.3645   42.6763   65.4131 C   0  0  0  0  0  0
   15.6450   42.0709   64.3394 C   0  0  0  0  0  0
   15.1803   43.0162   65.2283 N   0  0  0  0  0  0
   18.6260   42.8088   65.8419 N   0  0  0  0  0  0
   16.2916   43.4433   65.9391 C   0  0  0  0  0  0
   21.3211   44.0463   67.5802 N   0  0  0  0  0  0
   20.2251   43.9046   67.2351 C   0  0  0  0  0  0
   16.5161   44.3862   66.9505 C   0  0  0  0  0  0
   18.8430   43.7403   66.8096 C   0  0  0  0  0  0
   17.8359   44.5232   67.3806 C   0  0  0  0  0  0
    8.6403   41.0966   68.0354 C   0  0  0  0  0  0
    7.7079   40.5038   69.0931 C   0  0  0  0  0  0
   10.5128   42.3269   66.3404 C   0  0  0  0  0  0
   13.8200   43.5421   65.2973 C   0  0  0  0  0  0
    9.7209   40.3720   67.5380 C   0  0  0  0  0  0
    8.4450   42.4125   67.5992 C   0  0  0  0  0  0
    9.3697   43.0158   66.7432 C   0  0  0  0  0  0
   10.6436   40.9850   66.7016 C   0  0  0  0  0  0
    8.0218   39.1026   69.6353 C   0  0  0  0  0  0
   11.4786   43.0116   65.6238 O   0  0  0  0  0  0
   12.7882   42.4349   65.5350 C   0  0  0  0  0  0
    7.7213   37.9639   68.8857 C   0  0  0  0  0  0
    8.5219   38.9554   70.9315 C   0  0  0  0  0  0
    7.9295   36.7040   69.4428 C   0  0  0  0  0  0
    8.7168   37.6999   71.4917 C   0  0  0  0  0  0
    8.4145   36.5737   70.7402 C   0  0  0  0  0  0
   14.9708   41.6443   63.6053 H   0  0  0  0  0  0
   15.7209   44.9705   67.3836 H   0  0  0  0  0  0
   18.0670   45.2345   68.1603 H   0  0  0  0  0  0
    7.7208   41.2111   69.9240 H   0  0  0  0  0  0
    6.6787   40.5201   68.7397 H   0  0  0  0  0  0
   13.7663   44.2313   66.1327 H   0  0  0  0  0  0
   13.6183   44.0984   64.3816 H   0  0  0  0  0  0
    9.8825   39.3452   67.8249 H   0  0  0  0  0  0
    7.5994   42.9859   67.9536 H   0  0  0  0  0  0
    9.2293   44.0455   66.4478 H   0  0  0  0  0  0
   11.4676   40.3926   66.3402 H   0  0  0  0  0  0
   12.8083   41.6918   64.7391 H   0  0  0  0  0  0
   13.0658   41.9341   66.4655 H   0  0  0  0  0  0
    7.3282   38.0531   67.8837 H   0  0  0  0  0  0
    8.7191   39.8158   71.5394 H   0  0  0  0  0  0
    7.7211   35.8163   68.8676 H   0  0  0  0  0  0
    9.0827   37.6028   72.5026 H   0  0  0  0  0  0
    8.5561   35.5900   71.1622 H   0  0  0  0  0  0
  1  2  1  0  0  0
  1  3  2  0  0  0
  2  5  1  0  0  0
  2  6  2  0  0  0
  3  4  1  0  0  0
  3 28  1  0  0  0
  4 15  1  0  0  0
  4  6  1  0  0  0
  5 10  2  0  0  0
  6  9  1  0  0  0
  7  8  3  0  0  0
  8 10  1  0  0  0
  9 11  2  0  0  0
  9 29  1  0  0  0
 10 11  1  0  0  0
 11 30  1  0  0  0
 12 16  2  0  0  0
 12 13  1  0  0  0
 12 17  1  0  0  0
 13 20  1  0  0  0
 13 31  1  0  0  0
 13 32  1  0  0  0
 14 21  1  0  0  0
 14 18  1  0  0  0
 14 19  2  0  0  0
 15 22  1  0  0  0
 15 33  1  0  0  0
 15 34  1  0  0  0
 16 19  1  0  0  0
 16 35  1  0  0  0
 17 18  2  0  0  0
 17 36  1  0  0  0
 18 37  1  0  0  0
 19 38  1  0  0  0
 20 23  2  0  0  0
 20 24  1  0  0  0
 21 22  1  0  0  0
 22 39  1  0  0  0
 22 40  1  0  0  0
 23 25  1  0  0  0
 23 41  1  0  0  0
 24 26  2  0  0  0
 24 42  1  0  0  0
 25 27  2  0  0  0
 25 43  1  0  0  0
 26 27  1  0  0  0
 26 44  1  0  0  0
 27 45  1  0  0  0
M  END
> <s_m_entry_id>
6766

> <s_m_entry_name>
dock_pv.196

> <s_m_Source_Path>
/home/csk/Desktop/cluster/DUD-E-result/lkha4

> <s_m_Source_File>
dock_pv.maegz

> <i_m_Source_File_Index>
196

> <chembl_id>
CHEMBL273570

> <chembl_pref_name>
None

> <i_lp_mmshare_version>
53161

> <i_f3d_flags>
0

> <r_lp_tautomer_probability>
1

> <s_lp_Force_Field>
OPLS_2005

> <r_lp_Energy>
29.70506

> <b_lp_Chiralities_Consistent>
1

> <s_lp_Variant>
CHEMBL4618_lig128-1

> <s_i_glide_gridfile>
glide-grid_3chp

> <i_i_glide_lignum>
154

> <i_i_glide_rotatable_bonds>
6

> <r_i_docking_score>
-9.42483468616146

> <r_i_glide_ligand_efficiency>
-0.349067951339313

> <r_i_glide_ligand_efficiency_sa>
-1.04720385286747

> <r_i_glide_ligand_efficiency_ln>
-2.19394613439494

> <r_i_glide_gscore>
-9.42483468616146

> <r_i_glide_lipo>
-4.81779732167138

> <r_i_glide_hbond>
0

> <r_i_glide_metal>
0

> <r_i_glide_rewards>
-1.87909414896784

> <r_i_glide_evdw>
-55.2831764221191

> <r_i_glide_ecoul>
-3.69389605522156

> <r_i_glide_erotb>
0.912799597505167

> <r_i_glide_esite>
-0.322499583638211

> <r_i_glide_emodel>
-88.2457034143963

> <r_i_glide_energy>
-58.9770724773407

> <r_i_glide_einternal>
6.83443021774292

> <i_i_glide_confnum>
79

> <i_i_glide_posenum>
242

> <r_i_glide_eff_state_penalty>
0

> <s_user_duplicate_titles>
CHEMBL4618_lig128,14792

> <s_m_subgroup_title>
dock_pv

> <s_m_subgroupid>
dock_pv

> <b_m_subgroup_collapsed>
1

$$$$
CHEMBL4618_lig114
                    3D
 Schrodinger Suite 2021-1.
 44 46  0  0  1  0            999 V2000
   11.0029   42.6698   65.6128 N   0  0  0  0  0  0
    8.6530   36.4384   71.7242 C   0  0  0  0  0  0
    7.6373   36.8961   70.6775 C   0  0  0  0  0  0
    9.0089   35.0914   71.7854 C   0  0  0  0  0  0
    8.0822   37.9269   69.6500 C   0  0  0  0  0  0
    8.6802   39.9406   67.7834 C   0  0  0  0  0  0
    9.9800   34.6414   72.6705 C   0  0  0  0  0  0
   10.5210   33.0160   72.5572 Cl  0  0  0  0  0  0
    8.2587   39.2349   70.0596 C   0  0  0  0  0  0
    8.1865   37.6212   68.2941 C   0  0  0  0  0  0
    8.5210   38.6161   67.3736 C   0  0  0  0  0  0
    8.5205   40.2451   69.1405 C   0  0  0  0  0  0
    8.9729   40.8763   66.8071 O   0  0  0  0  0  0
    9.6624   43.1069   66.0208 C   0  0  0  0  0  0
    9.0451   42.2621   67.1572 C   0  0  0  0  0  0
   11.6625   43.5678   64.6803 C   0  0  0  0  0  0
   11.9758   42.5180   66.6806 C   0  0  0  0  0  0
   10.1233   36.8461   73.6096 C   0  0  0  0  0  0
    9.2046   37.3125   72.6671 C   0  0  0  0  0  0
   10.5197   35.5106   73.6108 C   0  0  0  0  0  0
   13.3339   42.4174   65.9837 C   0  0  0  0  0  0
   13.1236   43.1183   64.6390 C   0  0  0  0  0  0
    6.7780   37.3148   71.2040 H   0  0  0  0  0  0
    7.2830   36.0248   70.1289 H   0  0  0  0  0  0
    8.5516   34.3725   71.1317 H   0  0  0  0  0  0
    8.1230   39.4472   71.1041 H   0  0  0  0  0  0
    8.0315   36.6125   67.9439 H   0  0  0  0  0  0
    8.6330   38.3658   66.3289 H   0  0  0  0  0  0
    8.5918   41.2544   69.5111 H   0  0  0  0  0  0
    9.6921   44.1486   66.3396 H   0  0  0  0  0  0
    9.0053   43.0672   65.1521 H   0  0  0  0  0  0
    9.6431   42.4202   68.0553 H   0  0  0  0  0  0
    8.0403   42.6279   67.3766 H   0  0  0  0  0  0
   11.5586   44.6150   64.9711 H   0  0  0  0  0  0
   11.1741   43.4728   63.7106 H   0  0  0  0  0  0
   11.7210   41.6049   67.2176 H   0  0  0  0  0  0
   11.9292   43.3269   67.4120 H   0  0  0  0  0  0
   10.5415   37.5222   74.3385 H   0  0  0  0  0  0
    8.9211   38.3510   72.6995 H   0  0  0  0  0  0
   11.2541   35.1581   74.3208 H   0  0  0  0  0  0
   13.6210   41.3734   65.8470 H   0  0  0  0  0  0
   14.1108   42.9022   66.5751 H   0  0  0  0  0  0
   13.7901   43.9730   64.5166 H   0  0  0  0  0  0
   13.3059   42.4428   63.8010 H   0  0  0  0  0  0
  1 14  1  0  0  0
  1 16  1  0  0  0
  1 17  1  0  0  0
  2  3  1  0  0  0
  2  4  2  0  0  0
  2 19  1  0  0  0
  3  5  1  0  0  0
  3 23  1  0  0  0
  3 24  1  0  0  0
  4  7  1  0  0  0
  4 25  1  0  0  0
  5  9  2  0  0  0
  5 10  1  0  0  0
  6 13  1  0  0  0
  6 11  1  0  0  0
  6 12  2  0  0  0
  7  8  1  0  0  0
  7 20  2  0  0  0
  9 12  1  0  0  0
  9 26  1  0  0  0
 10 11  2  0  0  0
 10 27  1  0  0  0
 11 28  1  0  0  0
 12 29  1  0  0  0
 13 15  1  0  0  0
 14 15  1  0  0  0
 14 30  1  0  0  0
 14 31  1  0  0  0
 15 32  1  0  0  0
 15 33  1  0  0  0
 16 22  1  0  0  0
 16 34  1  0  0  0
 16 35  1  0  0  0
 17 21  1  0  0  0
 17 36  1  0  0  0
 17 37  1  0  0  0
 18 19  2  0  0  0
 18 20  1  0  0  0
 18 38  1  0  0  0
 19 39  1  0  0  0
 20 40  1  0  0  0
 21 22  1  0  0  0
 21 41  1  0  0  0
 21 42  1  0  0  0
 22 43  1  0  0  0
 22 44  1  0  0  0
M  END
> <s_m_entry_id>
6767

> <s_m_entry_name>
dock_pv.197

> <s_m_Source_Path>
/home/csk/Desktop/cluster/DUD-E-result/lkha4

> <s_m_Source_File>
dock_pv.maegz

> <i_m_Source_File_Index>
197

> <chembl_id>
CHEMBL162161

> <chembl_pref_name>
None

> <i_lp_mmshare_version>
53161

> <i_f3d_flags>
0

> <r_lp_tautomer_probability>
1

> <s_lp_Force_Field>
OPLS_2005

> <r_lp_Energy>
36.404619

> <b_lp_Chiralities_Consistent>
1

> <s_lp_Variant>
CHEMBL4618_lig114-1

> <s_i_glide_gridfile>
glide-grid_3chp

> <i_i_glide_lignum>
140

> <i_i_glide_rotatable_bonds>
6

> <r_i_docking_score>
-9.42243271404465

> <r_i_glide_ligand_efficiency>
-0.428292396092938

> <r_i_glide_ligand_efficiency_sa>
-1.20009213763654

> <r_i_glide_ligand_efficiency_ln>
-2.30318624689651

> <r_i_glide_gscore>
-9.42243271404465

> <r_i_glide_lipo>
-5.83964402170933

> <r_i_glide_hbond>
0

> <r_i_glide_metal>
0

> <r_i_glide_rewards>
-2.15558507096839

> <r_i_glide_evdw>
-42.0805892944336

> <r_i_glide_ecoul>
-1.70594954490662

> <r_i_glide_erotb>
0.932718275090753

> <r_i_glide_esite>
0

> <r_i_glide_emodel>
-66.8683863627153

> <r_i_glide_energy>
-43.7865388393402

> <r_i_glide_einternal>
2.52931809425354

> <i_i_glide_confnum>
67

> <i_i_glide_posenum>
63

> <r_i_glide_eff_state_penalty>
0

> <s_user_duplicate_titles>
CHEMBL4618_lig114,271651

> <s_m_subgroup_title>
dock_pv

> <s_m_subgroupid>
dock_pv

> <b_m_subgroup_collapsed>
1

$$$$
CHEMBL4618_lig270
                    3D
 Schrodinger Suite 2021-1.
 59 62  0  0  1  0            999 V2000
   10.3807   35.7525   73.7473 C   0  0  0  0  0  0
    9.9295   34.6161   73.0854 C   0  0  0  0  0  0
    9.1373   34.7139   71.9400 C   0  0  0  0  0  0
   10.1116   37.0272   73.2526 C   0  0  0  0  0  0
    9.3507   37.1345   72.0780 C   0  0  0  0  0  0
    8.8344   35.9840   71.4332 C   0  0  0  0  0  0
    8.1210   36.2160   70.2968 N   0  0  0  0  0  0
    8.1773   37.4663   69.9441 C   0  0  0  0  0  0
    8.9210   38.5440   71.1236 S   0  0  0  0  0  0
    7.7746   37.9126   68.6984 O   0  0  0  0  0  0
    8.1210   39.1625   68.2290 C   0  0  0  0  0  0
    9.0037   39.2895   67.1603 C   0  0  0  0  0  0
    9.4377   40.5512   66.7470 C   0  0  0  0  0  0
    8.9242   41.6947   67.3697 C   0  0  0  0  0  0
    7.9629   41.5667   68.3676 C   0  0  0  0  0  0
    7.5644   40.3088   68.7801 C   0  0  0  0  0  0
    9.3777   43.1104   67.0580 C   0  0  0  0  0  0
   10.0742   43.4161   65.7162 C   0  0  0  0  0  0
   11.4184   42.8643   65.5009 N   0  0  1  0  0  0
   11.9624   43.4161   64.2518 C   0  0  0  0  0  0
   13.3734   42.8898   63.8971 C   0  0  0  0  0  0
   14.3607   43.1489   65.0390 C   0  0  0  0  0  0
   13.7430   42.6279   66.3364 C   0  0  0  0  0  0
   12.3278   43.1404   66.6077 C   0  0  0  0  0  0
   15.7544   42.7336   64.8371 N   0  0  0  0  0  0
   16.7929   43.2384   65.5400 C   0  0  0  0  0  0
   18.1550   42.5686   65.3284 C   0  0  0  0  0  0
   16.6616   44.1191   66.3927 O   0  0  0  0  0  0
   19.2386   43.4589   65.6124 O   0  0  0  0  0  0
   19.9571   43.3589   66.7523 C   0  0  0  0  0  0
   21.1604   44.2835   66.7584 C   0  0  0  0  0  0
   19.7202   42.6174   67.7057 O   0  0  0  0  0  0
   10.9665   35.6400   74.6486 H   0  0  0  0  0  0
   10.1682   33.6411   73.4875 H   0  0  0  0  0  0
    8.7635   33.8245   71.4565 H   0  0  0  0  0  0
   10.5061   37.8997   73.7519 H   0  0  0  0  0  0
    9.3691   38.3994   66.6750 H   0  0  0  0  0  0
   10.1681   40.6254   65.9554 H   0  0  0  0  0  0
    7.5277   42.4392   68.8363 H   0  0  0  0  0  0
    6.8168   40.2158   69.5400 H   0  0  0  0  0  0
    9.9919   43.4160   67.8998 H   0  0  0  0  0  0
    8.4904   43.7468   67.0894 H   0  0  0  0  0  0
   10.1024   44.4972   65.5850 H   0  0  0  0  0  0
    9.4142   43.0615   64.9374 H   0  0  0  0  0  0
   12.0081   44.5033   64.3401 H   0  0  0  0  0  0
   11.2618   43.2104   63.4487 H   0  0  0  0  0  0
   13.7210   43.3964   62.9982 H   0  0  0  0  0  0
   13.3211   41.8299   63.6460 H   0  0  0  0  0  0
   14.3900   44.2356   65.1521 H   0  0  0  0  0  0
   13.7210   41.5376   66.3401 H   0  0  0  0  0  0
   14.3795   42.9622   67.1400 H   0  0  0  0  0  0
   12.3489   44.2160   66.7400 H   0  0  0  0  0  0
   11.9556   42.6993   67.5306 H   0  0  0  0  0  0
   15.9367   42.2160   63.9892 H   0  0  0  0  0  0
   18.2533   42.2160   64.3118 H   0  0  0  0  0  0
   18.1714   41.6706   65.9400 H   0  0  0  0  0  0
   21.9624   43.8160   66.1877 H   0  0  0  0  0  0
   21.5105   44.4472   67.7766 H   0  0  0  0  0  0
   20.9152   45.2424   66.3032 H   0  0  0  0  0  0
  1  4  1  0  0  0
  1  2  2  0  0  0
  1 33  1  0  0  0
  2  3  1  0  0  0
  2 34  1  0  0  0
  3  6  2  0  0  0
  3 35  1  0  0  0
  4  5  2  0  0  0
  4 36  1  0  0  0
  5  9  1  0  0  0
  5  6  1  0  0  0
  6  7  1  0  0  0
  7  8  2  0  0  0
  8  9  1  0  0  0
  8 10  1  0  0  0
 10 11  1  0  0  0
 11 16  1  0  0  0
 11 12  2  0  0  0
 12 13  1  0  0  0
 12 37  1  0  0  0
 13 14  2  0  0  0
 13 38  1  0  0  0
 14 17  1  0  0  0
 14 15  1  0  0  0
 15 16  2  0  0  0
 15 39  1  0  0  0
 16 40  1  0  0  0
 17 18  1  0  0  0
 17 41  1  0  0  0
 17 42  1  0  0  0
 18 19  1  0  0  0
 18 43  1  0  0  0
 18 44  1  0  0  0
 19 20  1  0  0  0
 19 24  1  0  0  0
 20 21  1  0  0  0
 20 45  1  0  0  0
 20 46  1  0  0  0
 21 22  1  0  0  0
 21 47  1  0  0  0
 21 48  1  0  0  0
 22 23  1  0  0  0
 22 25  1  0  0  0
 22 49  1  0  0  0
 23 24  1  0  0  0
 23 50  1  0  0  0
 23 51  1  0  0  0
 24 52  1  0  0  0
 24 53  1  0  0  0
 25 26  1  0  0  0
 25 54  1  0  0  0
 26 27  1  0  0  0
 26 28  2  0  0  0
 27 29  1  0  0  0
 27 55  1  0  0  0
 27 56  1  0  0  0
 29 30  1  0  0  0
 30 31  1  0  0  0
 30 32  2  0  0  0
 31 57  1  0  0  0
 31 58  1  0  0  0
 31 59  1  0  0  0
M  END
> <s_m_entry_id>
6768

> <s_m_entry_name>
dock_pv.198

> <s_m_Source_Path>
/home/csk/Desktop/cluster/DUD-E-result/lkha4

> <s_m_Source_File>
dock_pv.maegz

> <i_m_Source_File_Index>
198

> <chembl_id>
CHEMBL482057

> <chembl_pref_name>
None

> <i_lp_mmshare_version>
53161

> <i_f3d_flags>
0

> <r_lp_tautomer_probability>
1

> <s_lp_Force_Field>
OPLS_2005

> <r_lp_Energy>
28.446334

> <b_lp_Chiralities_Consistent>
1

> <s_lp_Variant>
CHEMBL4618_lig270-1

> <s_i_glide_gridfile>
glide-grid_3chp

> <i_i_glide_lignum>
308

> <i_i_glide_rotatable_bonds>
10

> <r_i_docking_score>
-9.41818985937639

> <r_i_glide_ligand_efficiency>
-0.294318433105512

> <r_i_glide_ligand_efficiency_sa>
-0.93440277957118

> <r_i_glide_ligand_efficiency_ln>
-2.10898943967371

> <r_i_glide_gscore>
-9.41818985937639

> <r_i_glide_lipo>
-5.59529054816969

> <r_i_glide_hbond>
0

> <r_i_glide_metal>
0

> <r_i_glide_rewards>
-1.21574695733731

> <r_i_glide_evdw>
-55.5079765319824

> <r_i_glide_ecoul>
-3.40002226829529

> <r_i_glide_erotb>
0.878249812974029

> <r_i_glide_esite>
-0.2

> <r_i_glide_emodel>
-88.6847134066826

> <r_i_glide_energy>
-58.9079988002777

> <r_i_glide_einternal>
10.347261428833

> <i_i_glide_confnum>
2

> <i_i_glide_posenum>
276

> <r_i_glide_eff_state_penalty>
0

> <s_user_duplicate_titles>
CHEMBL4618_lig270,466926

> <s_m_subgroup_title>
dock_pv

> <s_m_subgroupid>
dock_pv

> <b_m_subgroup_collapsed>
1

$$$$
CHEMBL4618_lig422
                    3D
 Schrodinger Suite 2021-1.
 56 59  0  0  1  0            999 V2000
   15.8320   43.4150   66.0362 C   0  0  0  0  0  0
   16.3141   42.6814   64.9487 C   0  0  0  0  0  0
   17.6430   42.2906   64.8669 C   0  0  0  0  0  0
   16.6834   43.7125   67.0964 C   0  0  0  0  0  0
   18.0348   43.3178   67.0891 C   0  0  0  0  0  0
   18.4886   42.6256   65.9274 C   0  0  0  0  0  0
   19.8315   42.3949   66.0933 N   0  0  0  0  0  0
   20.2231   42.8441   67.3211 C   0  0  0  0  0  0
   19.1594   43.4002   68.0135 C   0  0  0  0  0  0
   19.3009   43.9550   69.4302 C   0  0  0  0  0  0
   18.0274   44.1275   70.2925 C   0  0  0  0  0  0
   17.0691   45.1859   69.9532 N   0  0  0  0  0  0
   14.5243   43.8164   66.1960 O   0  0  0  0  0  0
   11.2738   43.0840   65.8006 O   0  0  0  0  0  0
   10.3656   42.2991   66.4852 C   0  0  0  0  0  0
   10.5607   40.9384   66.7344 C   0  0  0  0  0  0
    9.6460   40.2155   67.4825 C   0  0  0  0  0  0
    8.5201   40.8442   68.0150 C   0  0  0  0  0  0
    8.2858   42.1873   67.7228 C   0  0  0  0  0  0
    9.1996   42.9052   66.9512 C   0  0  0  0  0  0
    7.5964   40.1727   68.7847 O   0  0  0  0  0  0
    7.9370   39.0100   69.4399 C   0  0  0  0  0  0
    8.5210   39.0414   70.7079 C   0  0  0  0  0  0
    8.8056   37.8726   71.4026 C   0  0  0  0  0  0
    8.5083   36.6525   70.8096 C   0  0  0  0  0  0
    7.9378   36.6161   69.5402 C   0  0  0  0  0  0
    7.6551   37.7873   68.8491 C   0  0  0  0  0  0
   12.5769   42.5510   65.5356 C   0  0  0  0  0  0
   13.5543   43.6727   65.1549 C   0  0  0  0  0  0
   17.2745   46.3061   69.2427 C   0  0  0  0  0  0
   18.3330   46.6662   68.7401 O   0  0  0  0  0  0
   16.1214   47.0166   69.1411 O   0  0  0  0  0  0
   15.6814   42.4347   64.1094 H   0  0  0  0  0  0
   18.0188   41.8163   63.9731 H   0  0  0  0  0  0
   16.2434   44.2155   67.9321 H   0  0  0  0  0  0
   20.4612   41.9367   65.4481 H   0  0  0  0  0  0
   21.2529   42.7118   67.6254 H   0  0  0  0  0  0
   19.8776   44.8781   69.4215 H   0  0  0  0  0  0
   19.9441   43.2663   69.9818 H   0  0  0  0  0  0
   18.3279   44.2822   71.3305 H   0  0  0  0  0  0
   17.4754   43.1845   70.2934 H   0  0  0  0  0  0
   16.1340   45.0042   70.2862 H   0  0  0  0  0  0
   11.4116   40.4115   66.3338 H   0  0  0  0  0  0
    9.8134   39.1637   67.6498 H   0  0  0  0  0  0
    7.3965   42.6731   68.1011 H   0  0  0  0  0  0
    9.0135   43.9485   66.7408 H   0  0  0  0  0  0
    8.7176   39.9930   71.1647 H   0  0  0  0  0  0
    9.2403   37.9114   72.3907 H   0  0  0  0  0  0
    8.7122   35.7299   71.3334 H   0  0  0  0  0  0
    7.7210   35.6707   69.0821 H   0  0  0  0  0  0
    7.2032   37.7486   67.8686 H   0  0  0  0  0  0
   12.5217   41.8139   64.7399 H   0  0  0  0  0  0
   12.9666   42.0293   66.4122 H   0  0  0  0  0  0
   13.0135   44.6158   65.1027 H   0  0  0  0  0  0
   13.9548   43.5448   64.1510 H   0  0  0  0  0  0
   15.3663   46.5907   69.5484 H   0  0  0  0  0  0
  1  2  2  0  0  0
  1  4  1  0  0  0
  1 13  1  0  0  0
  2  3  1  0  0  0
  2 33  1  0  0  0
  3  6  2  0  0  0
  3 34  1  0  0  0
  4  5  2  0  0  0
  4 35  1  0  0  0
  5  6  1  0  0  0
  5  9  1  0  0  0
  6  7  1  0  0  0
  7  8  1  0  0  0
  7 36  1  0  0  0
  8  9  2  0  0  0
  8 37  1  0  0  0
  9 10  1  0  0  0
 10 11  1  0  0  0
 10 38  1  0  0  0
 10 39  1  0  0  0
 11 12  1  0  0  0
 11 40  1  0  0  0
 11 41  1  0  0  0
 12 30  1  0  0  0
 12 42  1  0  0  0
 13 29  1  0  0  0
 14 15  1  0  0  0
 14 28  1  0  0  0
 15 16  2  0  0  0
 15 20  1  0  0  0
 16 17  1  0  0  0
 16 43  1  0  0  0
 17 18  2  0  0  0
 17 44  1  0  0  0
 18 19  1  0  0  0
 18 21  1  0  0  0
 19 20  2  0  0  0
 19 45  1  0  0  0
 20 46  1  0  0  0
 21 22  1  0  0  0
 22 23  2  0  0  0
 22 27  1  0  0  0
 23 24  1  0  0  0
 23 47  1  0  0  0
 24 25  2  0  0  0
 24 48  1  0  0  0
 25 26  1  0  0  0
 25 49  1  0  0  0
 26 27  2  0  0  0
 26 50  1  0  0  0
 27 51  1  0  0  0
 28 29  1  0  0  0
 28 52  1  0  0  0
 28 53  1  0  0  0
 29 54  1  0  0  0
 29 55  1  0  0  0
 30 31  2  0  0  0
 30 32  1  0  0  0
 32 56  1  0  0  0
M  END
> <s_m_entry_id>
6769

> <s_m_entry_name>
dock_pv.199

> <s_m_Source_Path>
/home/csk/Desktop/cluster/DUD-E-result/lkha4

> <s_m_Source_File>
dock_pv.maegz

> <i_m_Source_File_Index>
199

> <chembl_id>
CHEMBL2316067

> <chembl_pref_name>
None

> <i_lp_mmshare_version>
53161

> <i_f3d_flags>
0

> <r_lp_tautomer_probability>
1

> <s_lp_Force_Field>
OPLS_2005

> <r_lp_Energy>
24.206472

> <b_lp_Chiralities_Consistent>
1

> <s_lp_Variant>
CHEMBL4618_lig422-1

> <s_i_glide_gridfile>
glide-grid_3chp

> <i_i_glide_lignum>
489

> <i_i_glide_rotatable_bonds>
12

> <r_i_docking_score>
-9.41790954570933

> <r_i_glide_ligand_efficiency>
-0.294309673303417

> <r_i_glide_ligand_efficiency_sa>
-0.934374968933089

> <r_i_glide_ligand_efficiency_ln>
-2.1089266698026

> <r_i_glide_gscore>
-9.41790954570933

> <r_i_glide_lipo>
-4.63488357250215

> <r_i_glide_hbond>
-0.253444065894199

> <r_i_glide_metal>
0

> <r_i_glide_rewards>
-0.956546188222816

> <r_i_glide_evdw>
-54.0587615966797

> <r_i_glide_ecoul>
-12.7150955200195

> <r_i_glide_erotb>
1.17033566952375

> <r_i_glide_esite>
-0.133168980777009

> <r_i_glide_emodel>
-98.061608998446

> <r_i_glide_energy>
-66.7738571166992

> <r_i_glide_einternal>
15.5627136230469

> <i_i_glide_confnum>
47

> <i_i_glide_posenum>
237

> <r_i_glide_eff_state_penalty>
0

> <s_user_duplicate_titles>
CHEMBL4618_lig422

> <s_m_subgroup_title>
dock_pv

> <s_m_subgroupid>
dock_pv

> <b_m_subgroup_collapsed>
1

$$$$
CHEMBL4618_lig17
                    3D
 Schrodinger Suite 2021-1.
 57 60  0  0  1  0            999 V2000
   11.8543   42.6160   65.1401 N   0  0  1  0  0  0
   12.6901   43.4832   64.3111 C   0  0  2  0  0  0
   14.0906   41.8972   64.9071 C   0  0  1  0  0  0
   14.7254   43.1344   65.6000 C   0  0  2  0  0  0
   12.7485   41.5389   65.5924 C   0  0  0  0  0  0
   13.6009   42.5027   63.5998 C   0  0  0  0  0  0
   13.6998   44.2100   65.1870 C   0  0  0  0  0  0
   17.2880   42.6300   65.5644 C   0  0  0  0  0  0
   16.1534   43.5260   65.1400 C   0  0  0  0  0  0
   17.1351   41.4160   65.5400 O   0  0  0  0  0  0
    8.1042   38.5182   69.1873 C   0  0  0  0  0  0
   11.0001   43.2085   66.1707 C   0  0  0  0  0  0
    7.5248   37.5505   70.2213 C   0  0  0  0  0  0
    9.1525   40.3046   67.2959 C   0  0  0  0  0  0
   18.3907   43.3029   65.9401 O   0  0  0  0  0  0
    8.3014   39.8598   69.5061 C   0  0  0  0  0  0
    8.3913   38.0865   67.8958 C   0  0  0  0  0  0
    8.9211   38.9737   66.9606 C   0  0  0  0  0  0
    8.7996   40.7557   68.5687 C   0  0  0  0  0  0
    8.4956   37.0162   71.2761 C   0  0  0  0  0  0
    9.8012   41.0720   66.3571 O   0  0  0  0  0  0
    9.6463   42.4897   66.3264 C   0  0  0  0  0  0
   19.5642   42.6040   66.3293 C   0  0  0  0  0  0
    9.3234   37.8797   71.9772 C   0  0  0  0  0  0
    8.5208   35.6642   71.6054 C   0  0  0  0  0  0
   10.1210   37.4160   73.0188 C   0  0  0  0  0  0
    9.3467   35.1799   72.6112 C   0  0  0  0  0  0
   10.1210   36.0658   73.3428 C   0  0  0  0  0  0
   12.1214   44.1363   63.6521 H   0  0  0  0  0  0
   14.7465   41.0375   64.7892 H   0  0  0  0  0  0
   14.7165   43.0159   66.6851 H   0  0  0  0  0  0
   12.4052   40.5805   65.1989 H   0  0  0  0  0  0
   12.8684   41.4847   66.6750 H   0  0  0  0  0  0
   14.3796   42.9817   63.0063 H   0  0  0  0  0  0
   13.0821   41.8159   62.9432 H   0  0  0  0  0  0
   13.1945   44.6160   66.0387 H   0  0  0  0  0  0
   14.1210   45.0160   64.6072 H   0  0  0  0  0  0
   16.3801   44.5646   65.3800 H   0  0  0  0  0  0
   16.2042   43.4160   64.0588 H   0  0  0  0  0  0
   11.5213   43.2789   67.1265 H   0  0  0  0  0  0
   10.7738   44.2220   65.8665 H   0  0  0  0  0  0
    6.7107   38.0516   70.7473 H   0  0  0  0  0  0
    7.0578   36.7136   69.7020 H   0  0  0  0  0  0
    8.1210   40.2158   70.5013 H   0  0  0  0  0  0
    8.2452   37.0528   67.6252 H   0  0  0  0  0  0
    9.1919   38.6162   65.9770 H   0  0  0  0  0  0
    8.9806   41.7694   68.8870 H   0  0  0  0  0  0
    9.1084   42.9208   67.1681 H   0  0  0  0  0  0
    9.0215   42.7191   65.4644 H   0  0  0  0  0  0
   20.3648   43.3141   66.5359 H   0  0  0  0  0  0
   19.9070   41.9334   65.5403 H   0  0  0  0  0  0
   19.3914   42.0167   67.2318 H   0  0  0  0  0  0
    9.3171   38.9267   71.7379 H   0  0  0  0  0  0
    7.8298   34.9969   71.1400 H   0  0  0  0  0  0
   10.7376   38.1047   73.5759 H   0  0  0  0  0  0
    9.3464   34.1309   72.8589 H   0  0  0  0  0  0
   10.7386   35.7026   74.1514 H   0  0  0  0  0  0
  1  2  1  0  0  0
  1  5  1  0  0  0
  1 12  1  0  0  0
  2  6  1  0  0  0
  2  7  1  0  0  0
  2 29  1  0  0  0
  3  5  1  0  0  0
  3  4  1  0  0  0
  3  6  1  0  0  0
  3 30  1  0  0  0
  4  9  1  0  0  0
  4  7  1  0  0  0
  4 31  1  0  0  0
  5 32  1  0  0  0
  5 33  1  0  0  0
  6 34  1  0  0  0
  6 35  1  0  0  0
  7 36  1  0  0  0
  7 37  1  0  0  0
  8  9  1  0  0  0
  8 10  2  0  0  0
  8 15  1  0  0  0
  9 38  1  0  0  0
  9 39  1  0  0  0
 11 16  2  0  0  0
 11 13  1  0  0  0
 11 17  1  0  0  0
 12 22  1  0  0  0
 12 40  1  0  0  0
 12 41  1  0  0  0
 13 20  1  0  0  0
 13 42  1  0  0  0
 13 43  1  0  0  0
 14 21  1  0  0  0
 14 18  1  0  0  0
 14 19  2  0  0  0
 15 23  1  0  0  0
 16 19  1  0  0  0
 16 44  1  0  0  0
 17 18  2  0  0  0
 17 45  1  0  0  0
 18 46  1  0  0  0
 19 47  1  0  0  0
 20 24  1  0  0  0
 20 25  2  0  0  0
 21 22  1  0  0  0
 22 48  1  0  0  0
 22 49  1  0  0  0
 23 50  1  0  0  0
 23 51  1  0  0  0
 23 52  1  0  0  0
 24 26  2  0  0  0
 24 53  1  0  0  0
 25 27  1  0  0  0
 25 54  1  0  0  0
 26 28  1  0  0  0
 26 55  1  0  0  0
 27 28  2  0  0  0
 27 56  1  0  0  0
 28 57  1  0  0  0
M  END
> <s_m_entry_id>
6770

> <s_m_entry_name>
dock_pv.200

> <s_m_Source_Path>
/home/csk/Desktop/cluster/DUD-E-result/lkha4

> <s_m_Source_File>
dock_pv.maegz

> <i_m_Source_File_Index>
200

> <chembl_id>
CHEMBL116174

> <chembl_pref_name>
None

> <i_lp_mmshare_version>
53161

> <i_f3d_flags>
0

> <r_lp_tautomer_probability>
1

> <s_lp_Force_Field>
OPLS_2005

> <r_lp_Energy>
69.016753

> <b_lp_Chiralities_Consistent>
1

> <s_lp_Variant>
CHEMBL4618_lig17-3

> <s_i_glide_gridfile>
glide-grid_3chp

> <i_i_glide_lignum>
20

> <i_i_glide_rotatable_bonds>
9

> <r_i_docking_score>
-9.41691946374746

> <r_i_glide_ligand_efficiency>
-0.336318552276695

> <r_i_glide_ligand_efficiency_sa>
-1.02126120574625

> <r_i_glide_ligand_efficiency_ln>
-2.17370150500273

> <r_i_glide_gscore>
-9.41691946374746

> <r_i_glide_lipo>
-5.37770154751824

> <r_i_glide_hbond>
-0.32

> <r_i_glide_metal>
0

> <r_i_glide_rewards>
-1.6330084526054

> <r_i_glide_evdw>
-36.2763519287109

> <r_i_glide_ecoul>
-8.33021259307861

> <r_i_glide_erotb>
1.07714002177352

> <r_i_glide_esite>
-0.1

> <r_i_glide_emodel>
-60.6312671300285

> <r_i_glide_energy>
-44.6065645217896

> <r_i_glide_einternal>
12.8140096664429

> <i_i_glide_confnum>
4

> <i_i_glide_posenum>
257

> <r_i_glide_eff_state_penalty>
0

> <s_user_duplicate_titles>
CHEMBL4618_lig17

> <s_m_subgroup_title>
dock_pv

> <s_m_subgroupid>
dock_pv

> <b_m_subgroup_collapsed>
1

$$$$
CHEMBL4618_lig178
                    3D
 Schrodinger Suite 2021-1.
 45 46  0  0  1  0            999 V2000
   10.9210   35.1895   74.6571 C   0  0  0  0  0  0
   11.1859   34.0062   73.9704 C   0  0  0  0  0  0
   10.5210   33.7104   72.7837 C   0  0  0  0  0  0
    9.5993   34.6164   72.2708 C   0  0  0  0  0  0
    9.3387   35.8161   72.9379 C   0  0  0  0  0  0
   10.0029   36.0988   74.1366 C   0  0  0  0  0  0
    8.3080   36.8016   72.3966 C   0  0  0  0  0  0
    8.1153   36.6228   70.9838 O   0  0  0  0  0  0
    8.1967   37.6817   70.0987 C   0  0  0  0  0  0
    8.1210   37.3782   68.7399 C   0  0  0  0  0  0
    8.3422   38.3587   67.7721 C   0  0  0  0  0  0
    8.5843   39.6784   68.1525 C   0  0  0  0  0  0
    8.5210   40.0049   69.5085 C   0  0  0  0  0  0
    8.3716   39.0160   70.4687 C   0  0  0  0  0  0
    8.9528   40.5881   67.1401 N   0  0  0  0  0  0
    9.3216   41.8874   67.2523 C   0  0  0  0  0  0
    9.9703   42.5165   65.9937 C   0  0  1  0  0  0
    9.2350   42.5762   68.2716 O   0  0  0  0  0  0
    9.3210   43.8161   65.7372 N   0  0  0  0  0  0
   11.5025   42.6500   66.1859 C   0  0  0  0  0  0
   12.2256   43.3463   65.0138 C   0  0  0  0  0  0
   13.7368   43.1150   65.0386 C   0  0  0  0  0  0
   14.3010   42.6159   63.9400 N   0  0  0  0  0  0
   14.4035   43.4113   66.0272 O   0  0  0  0  0  0
   11.4224   35.3963   75.5921 H   0  0  0  0  0  0
   11.8904   33.2956   74.3796 H   0  0  0  0  0  0
   10.7102   32.7756   72.2758 H   0  0  0  0  0  0
    9.0541   34.3688   71.3720 H   0  0  0  0  0  0
    9.7997   37.0154   74.6730 H   0  0  0  0  0  0
    8.6281   37.7906   72.7105 H   0  0  0  0  0  0
    7.3542   36.6154   72.8900 H   0  0  0  0  0  0
    7.9690   36.3545   68.4348 H   0  0  0  0  0  0
    8.3657   38.0749   66.7310 H   0  0  0  0  0  0
    8.6198   41.0153   69.8582 H   0  0  0  0  0  0
    8.3728   39.3482   71.4921 H   0  0  0  0  0  0
    9.0573   40.1703   66.2285 H   0  0  0  0  0  0
    9.8004   41.8663   65.1402 H   0  0  0  0  0  0
    8.3281   43.7367   65.5251 H   0  0  0  0  0  0
    9.3762   44.3849   66.5779 H   0  0  0  0  0  0
   11.9233   41.6506   66.3165 H   0  0  0  0  0  0
   11.7316   43.1912   67.1068 H   0  0  0  0  0  0
   12.0429   44.4199   65.0587 H   0  0  0  0  0  0
   11.8186   43.0160   64.0601 H   0  0  0  0  0  0
   15.3067   42.5862   63.8639 H   0  0  0  0  0  0
   13.7619   42.3706   63.1194 H   0  0  0  0  0  0
  1  6  1  0  0  0
  1  2  2  0  0  0
  1 25  1  0  0  0
  2  3  1  0  0  0
  2 26  1  0  0  0
  3  4  2  0  0  0
  3 27  1  0  0  0
  4  5  1  0  0  0
  4 28  1  0  0  0
  5  7  1  0  0  0
  5  6  2  0  0  0
  6 29  1  0  0  0
  7  8  1  0  0  0
  7 30  1  0  0  0
  7 31  1  0  0  0
  8  9  1  0  0  0
  9 14  1  0  0  0
  9 10  2  0  0  0
 10 11  1  0  0  0
 10 32  1  0  0  0
 11 12  2  0  0  0
 11 33  1  0  0  0
 12 13  1  0  0  0
 12 15  1  0  0  0
 13 14  2  0  0  0
 13 34  1  0  0  0
 14 35  1  0  0  0
 15 16  1  0  0  0
 15 36  1  0  0  0
 16 17  1  0  0  0
 16 18  2  0  0  0
 17 19  1  0  0  0
 17 20  1  0  0  0
 17 37  1  0  0  0
 19 38  1  0  0  0
 19 39  1  0  0  0
 20 21  1  0  0  0
 20 40  1  0  0  0
 20 41  1  0  0  0
 21 22  1  0  0  0
 21 42  1  0  0  0
 21 43  1  0  0  0
 22 23  1  0  0  0
 22 24  2  0  0  0
 23 44  1  0  0  0
 23 45  1  0  0  0
M  END
> <s_m_entry_id>
6771

> <s_m_entry_name>
dock_pv.201

> <s_m_Source_Path>
/home/csk/Desktop/cluster/DUD-E-result/lkha4

> <s_m_Source_File>
dock_pv.maegz

> <i_m_Source_File_Index>
201

> <chembl_id>
CHEMBL478343

> <chembl_pref_name>
None

> <i_lp_mmshare_version>
53161

> <i_f3d_flags>
0

> <r_lp_tautomer_probability>
1

> <s_lp_Force_Field>
OPLS_2005

> <r_lp_Energy>
20.817131

> <b_lp_Chiralities_Consistent>
1

> <s_lp_Variant>
CHEMBL4618_lig178-1

> <s_i_glide_gridfile>
glide-grid_3chp

> <i_i_glide_lignum>
205

> <i_i_glide_rotatable_bonds>
9

> <r_i_docking_score>
-9.41633233163228

> <r_i_glide_ligand_efficiency>
-0.392347180484678

> <r_i_glide_ligand_efficiency_sa>
-1.13172510373181

> <r_i_glide_ligand_efficiency_ln>
-2.25376041429512

> <r_i_glide_gscore>
-9.41633233163228

> <r_i_glide_lipo>
-4.81571614520171

> <r_i_glide_hbond>
-0.498439619995826

> <r_i_glide_metal>
0

> <r_i_glide_rewards>
-1.59701617848939

> <r_i_glide_evdw>
-51.4501609802246

> <r_i_glide_ecoul>
-8.65066814422607

> <r_i_glide_erotb>
1.40086169832835

> <r_i_glide_esite>
-0.0359138156285589

> <r_i_glide_emodel>
-87.3476725718435

> <r_i_glide_energy>
-60.1008291244507

> <r_i_glide_einternal>
9.90829753875732

> <i_i_glide_confnum>
90

> <i_i_glide_posenum>
384

> <r_i_glide_eff_state_penalty>
0

> <s_user_duplicate_titles>
CHEMBL4618_lig178

> <s_m_subgroup_title>
dock_pv

> <s_m_subgroupid>
dock_pv

> <b_m_subgroup_collapsed>
1

$$$$
CHEMBL4618_lig486
                    3D
 Schrodinger Suite 2021-1.
 50 51  0  0  1  0            999 V2000
   15.3314   41.8344   64.1880 C   0  0  0  0  0  0
   13.9746   42.1514   64.7867 C   0  0  0  0  0  0
   13.3826   43.3874   64.5420 C   0  0  0  0  0  0
   12.1214   43.6625   65.0479 C   0  0  0  0  0  0
   11.4247   42.7147   65.8021 C   0  0  0  0  0  0
   12.0299   41.4761   66.0509 C   0  0  0  0  0  0
   13.2936   41.1939   65.5400 C   0  0  0  0  0  0
   10.0122   43.0120   66.2435 C   0  0  0  0  0  0
    9.3215   43.8140   65.6148 O   0  0  0  0  0  0
    9.5702   42.3454   67.3221 N   0  0  0  0  0  0
    8.1804   42.3124   67.7790 C   0  0  0  0  0  0
    7.8914   41.1501   68.7566 C   0  0  0  0  0  0
    8.5900   39.8153   68.4101 C   0  0  0  0  0  0
    8.2619   38.6384   69.3462 C   0  0  0  0  0  0
    8.8671   38.6914   70.7822 C   0  0  0  0  0  0
    8.8439   37.3159   71.4768 C   0  0  0  0  0  0
    8.1205   36.4378   71.0192 O   0  0  0  0  0  0
    9.6651   37.1174   72.5355 N   0  0  0  0  0  0
   10.0615   35.8738   73.1026 C   0  0  0  0  0  0
    9.9255   34.6579   72.4000 C   0  0  0  0  0  0
   10.5239   33.4901   72.8539 C   0  0  0  0  0  0
   11.2866   33.5153   74.0147 C   0  0  0  0  0  0
   11.3210   34.6671   74.7935 C   0  0  0  0  0  0
   10.7346   35.8520   74.3425 C   0  0  0  0  0  0
   10.9208   36.9899   75.1332 N   0  0  0  0  0  0
   15.3213   40.8211   63.7862 H   0  0  0  0  0  0
   15.5653   42.4968   63.3497 H   0  0  0  0  0  0
   16.1157   41.9231   64.9395 H   0  0  0  0  0  0
   13.8840   44.1314   63.9449 H   0  0  0  0  0  0
   11.6780   44.6176   64.8288 H   0  0  0  0  0  0
   11.5083   40.7009   66.5962 H   0  0  0  0  0  0
   13.7209   40.2182   65.7235 H   0  0  0  0  0  0
   10.2403   41.8337   67.8739 H   0  0  0  0  0  0
    7.5277   42.2119   66.9101 H   0  0  0  0  0  0
    7.9460   43.2691   68.2528 H   0  0  0  0  0  0
    6.8105   40.9966   68.7897 H   0  0  0  0  0  0
    8.1508   41.4535   69.7677 H   0  0  0  0  0  0
    9.6729   39.9372   68.3672 H   0  0  0  0  0  0
    8.2964   39.5357   67.3972 H   0  0  0  0  0  0
    8.6239   37.7420   68.8377 H   0  0  0  0  0  0
    7.1816   38.5177   69.4108 H   0  0  0  0  0  0
    8.3347   39.4133   71.3980 H   0  0  0  0  0  0
    9.9059   39.0160   70.7297 H   0  0  0  0  0  0
   10.0999   37.9264   72.9519 H   0  0  0  0  0  0
    9.3936   34.5836   71.4712 H   0  0  0  0  0  0
   10.4314   32.5728   72.2898 H   0  0  0  0  0  0
   11.7717   32.6201   74.3729 H   0  0  0  0  0  0
   11.8527   34.6437   75.7337 H   0  0  0  0  0  0
   10.1579   37.6663   75.1399 H   0  0  0  0  0  0
   11.3205   36.7822   76.0397 H   0  0  0  0  0  0
  1  2  1  0  0  0
  1 26  1  0  0  0
  1 27  1  0  0  0
  1 28  1  0  0  0
  2  3  2  0  0  0
  2  7  1  0  0  0
  3  4  1  0  0  0
  3 29  1  0  0  0
  4  5  2  0  0  0
  4 30  1  0  0  0
  5  6  1  0  0  0
  5  8  1  0  0  0
  6  7  2  0  0  0
  6 31  1  0  0  0
  7 32  1  0  0  0
  8  9  2  0  0  0
  8 10  1  0  0  0
 10 11  1  0  0  0
 10 33  1  0  0  0
 11 12  1  0  0  0
 11 34  1  0  0  0
 11 35  1  0  0  0
 12 13  1  0  0  0
 12 36  1  0  0  0
 12 37  1  0  0  0
 13 14  1  0  0  0
 13 38  1  0  0  0
 13 39  1  0  0  0
 14 15  1  0  0  0
 14 40  1  0  0  0
 14 41  1  0  0  0
 15 16  1  0  0  0
 15 42  1  0  0  0
 15 43  1  0  0  0
 16 17  2  0  0  0
 16 18  1  0  0  0
 18 19  1  0  0  0
 18 44  1  0  0  0
 19 20  2  0  0  0
 19 24  1  0  0  0
 20 21  1  0  0  0
 20 45  1  0  0  0
 21 22  2  0  0  0
 21 46  1  0  0  0
 22 23  1  0  0  0
 22 47  1  0  0  0
 23 24  2  0  0  0
 23 48  1  0  0  0
 24 25  1  0  0  0
 25 49  1  0  0  0
 25 50  1  0  0  0
M  END
> <s_m_entry_id>
6772

> <s_m_entry_name>
dock_pv.202

> <s_m_Source_Path>
/home/csk/Desktop/cluster/DUD-E-result/lkha4

> <s_m_Source_File>
dock_pv.maegz

> <i_m_Source_File_Index>
202

> <chembl_id>
CHEMBL3970532

> <chembl_pref_name>
None

> <i_lp_mmshare_version>
53161

> <i_f3d_flags>
0

> <r_lp_tautomer_probability>
1

> <s_lp_Force_Field>
OPLS_2005

> <r_lp_Energy>
20.61047

> <b_lp_Chiralities_Consistent>
1

> <s_lp_Variant>
CHEMBL4618_lig486-1

> <s_i_glide_gridfile>
glide-grid_3chp

> <i_i_glide_lignum>
586

> <i_i_glide_rotatable_bonds>
10

> <r_i_docking_score>
-9.41294311885867

> <r_i_glide_ligand_efficiency>
-0.376517724754347

> <r_i_glide_ligand_efficiency_sa>
-1.10094450475199

> <r_i_glide_ligand_efficiency_ln>
-2.23114960231206

> <r_i_glide_gscore>
-9.41294311885867

> <r_i_glide_lipo>
-4.32149070970881

> <r_i_glide_hbond>
-0.39082552290861

> <r_i_glide_metal>
0

> <r_i_glide_rewards>
-2.72028139310049

> <r_i_glide_evdw>
-51.8277854919434

> <r_i_glide_ecoul>
-6.87681865692139

> <r_i_glide_erotb>
1.64256657999462

> <r_i_glide_esite>
0

> <r_i_glide_emodel>
-90.669192450006

> <r_i_glide_energy>
-58.7046041488647

> <r_i_glide_einternal>
9.7615909576416

> <i_i_glide_confnum>
127

> <i_i_glide_posenum>
298

> <r_i_glide_eff_state_penalty>
0

> <s_user_duplicate_titles>
CHEMBL4618_lig486

> <s_m_subgroup_title>
dock_pv

> <s_m_subgroupid>
dock_pv

> <b_m_subgroup_collapsed>
1

$$$$
CHEMBL4618_lig131
                    3D
 Schrodinger Suite 2021-1.
 44 47  0  0  1  0            999 V2000
   16.5208   41.4308   64.5880 N   0  0  0  0  0  0
   14.9040   42.9551   65.0208 N   0  0  0  0  0  0
   15.2935   41.8204   64.3405 C   0  0  0  0  0  0
   15.9921   43.3163   65.7981 C   0  0  0  0  0  0
   17.0101   42.4047   65.4217 C   0  0  0  0  0  0
   17.5162   44.4570   67.2517 N   0  0  0  0  0  0
   16.2677   44.3123   66.7400 C   0  0  0  0  0  0
    8.7574   40.9191   68.0259 C   0  0  0  0  0  0
    7.7587   40.3989   69.0604 C   0  0  0  0  0  0
   18.3045   42.5722   65.9399 C   0  0  0  0  0  0
   10.8687   41.8616   66.4307 C   0  0  0  0  0  0
   13.6634   43.6970   64.8032 C   0  0  0  0  0  0
    9.0188   42.2882   67.9434 C   0  0  0  0  0  0
    9.4782   40.0427   67.2138 C   0  0  0  0  0  0
   10.5213   40.5217   66.4332 C   0  0  0  0  0  0
   10.0664   42.7558   67.1488 C   0  0  0  0  0  0
    8.0564   39.0214   69.6604 C   0  0  0  0  0  0
   12.0084   42.1879   65.7211 O   0  0  0  0  0  0
   12.5900   43.4726   65.8795 C   0  0  0  0  0  0
   18.4991   43.6161   66.8453 C   0  0  0  0  0  0
    8.5964   38.9242   70.9441 C   0  0  0  0  0  0
    7.7205   37.8581   68.9678 C   0  0  0  0  0  0
    8.8136   37.6854   71.5372 C   0  0  0  0  0  0
    7.9577   36.6170   69.5486 C   0  0  0  0  0  0
    8.4965   36.5323   70.8300 C   0  0  0  0  0  0
   14.6102   41.3709   63.6273 H   0  0  0  0  0  0
   15.5219   45.0049   67.0957 H   0  0  0  0  0  0
    7.7213   41.1249   69.8722 H   0  0  0  0  0  0
    6.7513   40.4071   68.6541 H   0  0  0  0  0  0
   19.1184   41.9218   65.6508 H   0  0  0  0  0  0
   13.9248   44.7501   64.7395 H   0  0  0  0  0  0
   13.2675   43.4345   63.8188 H   0  0  0  0  0  0
    8.4454   42.9904   68.5326 H   0  0  0  0  0  0
    9.2962   38.9790   67.2227 H   0  0  0  0  0  0
   11.1113   39.8163   65.8667 H   0  0  0  0  0  0
   10.2625   43.8140   67.1387 H   0  0  0  0  0  0
   12.9995   43.5894   66.8839 H   0  0  0  0  0  0
   11.8290   44.2363   65.7312 H   0  0  0  0  0  0
   19.4756   43.7855   67.2762 H   0  0  0  0  0  0
    8.8172   39.8157   71.5044 H   0  0  0  0  0  0
    7.2825   37.9124   67.9811 H   0  0  0  0  0  0
    9.2167   37.6241   72.5367 H   0  0  0  0  0  0
    7.7211   35.7240   69.0025 H   0  0  0  0  0  0
    8.6618   35.5633   71.2761 H   0  0  0  0  0  0
  1  3  2  0  0  0
  1  5  1  0  0  0
  2  3  1  0  0  0
  2 12  1  0  0  0
  2  4  1  0  0  0
  3 26  1  0  0  0
  4  5  2  0  0  0
  4  7  1  0  0  0
  5 10  1  0  0  0
  6 20  1  0  0  0
  6  7  2  0  0  0
  7 27  1  0  0  0
  8 13  1  0  0  0
  8  9  1  0  0  0
  8 14  2  0  0  0
  9 17  1  0  0  0
  9 28  1  0  0  0
  9 29  1  0  0  0
 10 20  2  0  0  0
 10 30  1  0  0  0
 11 18  1  0  0  0
 11 15  2  0  0  0
 11 16  1  0  0  0
 12 19  1  0  0  0
 12 31  1  0  0  0
 12 32  1  0  0  0
 13 16  2  0  0  0
 13 33  1  0  0  0
 14 15  1  0  0  0
 14 34  1  0  0  0
 15 35  1  0  0  0
 16 36  1  0  0  0
 17 21  2  0  0  0
 17 22  1  0  0  0
 18 19  1  0  0  0
 19 37  1  0  0  0
 19 38  1  0  0  0
 20 39  1  0  0  0
 21 23  1  0  0  0
 21 40  1  0  0  0
 22 24  2  0  0  0
 22 41  1  0  0  0
 23 25  2  0  0  0
 23 42  1  0  0  0
 24 25  1  0  0  0
 24 43  1  0  0  0
 25 44  1  0  0  0
M  END
> <s_m_entry_id>
6773

> <s_m_entry_name>
dock_pv.203

> <s_m_Source_Path>
/home/csk/Desktop/cluster/DUD-E-result/lkha4

> <s_m_Source_File>
dock_pv.maegz

> <i_m_Source_File_Index>
203

> <chembl_id>
CHEMBL14760

> <chembl_pref_name>
None

> <i_lp_mmshare_version>
53161

> <i_f3d_flags>
0

> <r_lp_tautomer_probability>
1

> <s_lp_Force_Field>
OPLS_2005

> <r_lp_Energy>
15.821527

> <b_lp_Chiralities_Consistent>
1

> <s_lp_Variant>
CHEMBL4618_lig131-1

> <s_i_glide_gridfile>
glide-grid_3chp

> <i_i_glide_lignum>
157

> <i_i_glide_rotatable_bonds>
6

> <r_i_docking_score>
-9.41283673469761

> <r_i_glide_ligand_efficiency>
-0.376513469387904

> <r_i_glide_ligand_efficiency_sa>
-1.10093206198504

> <r_i_glide_ligand_efficiency_ln>
-2.23112438607782

> <r_i_glide_gscore>
-9.41283673469761

> <r_i_glide_lipo>
-4.8639069530606

> <r_i_glide_hbond>
-0.0460029214686355

> <r_i_glide_metal>
0

> <r_i_glide_rewards>
-1.98793303068693

> <r_i_glide_evdw>
-42.1449279785156

> <r_i_glide_ecoul>
-7.28066778182983

> <r_i_glide_erotb>
0.866087884204416

> <r_i_glide_esite>
-0.181735147485601

> <r_i_glide_emodel>
-74.639786599915

> <r_i_glide_energy>
-49.4255957603455

> <r_i_glide_einternal>
3.92284250259399

> <i_i_glide_confnum>
2

> <i_i_glide_posenum>
132

> <r_i_glide_eff_state_penalty>
0

> <s_user_duplicate_titles>
CHEMBL4618_lig131,14688

> <s_m_subgroup_title>
dock_pv

> <s_m_subgroupid>
dock_pv

> <b_m_subgroup_collapsed>
1

$$$$
CHEMBL4618_lig85
                    3D
 Schrodinger Suite 2021-1.
 45 47  0  0  1  0            999 V2000
    9.4240   36.6706   72.3215 N   0  0  0  0  0  0
    9.8990   42.5936   65.9290 C   0  0  2  0  0  0
    9.3414   41.6762   67.0223 C   0  0  0  0  0  0
   11.4233   42.6268   65.7044 C   0  0  0  0  0  0
    8.6644   42.2137   68.1175 C   0  0  0  0  0  0
    9.4315   40.2845   66.8948 C   0  0  0  0  0  0
    8.4282   40.0092   69.0661 C   0  0  0  0  0  0
    8.9988   39.4499   67.9190 C   0  0  0  0  0  0
    8.1851   41.3777   69.1119 C   0  0  0  0  0  0
    9.3168   43.8773   65.9366 O   0  0  0  0  0  0
    8.1036   39.3013   70.1939 O   0  0  0  0  0  0
    8.4962   37.7204   71.9279 C   0  0  0  0  0  0
    8.6603   38.0262   70.4249 C   0  0  0  0  0  0
    9.5971   36.4684   73.7470 C   0  0  0  0  0  0
    9.0622   35.3527   71.8328 C   0  0  0  0  0  0
   12.0017   43.7547   65.1206 C   0  0  0  0  0  0
   12.2390   41.5176   65.9401 C   0  0  0  0  0  0
   10.0824   34.4414   72.5114 C   0  0  0  0  0  0
   10.3981   35.1660   73.8291 C   0  0  0  0  0  0
   13.3313   43.7714   64.7326 C   0  0  0  0  0  0
   13.5694   41.5124   65.5373 C   0  0  0  0  0  0
   14.1165   42.6407   64.9317 C   0  0  0  0  0  0
    9.5274   42.2136   64.9970 H   0  0  0  0  0  0
    8.5123   43.2790   68.2235 H   0  0  0  0  0  0
    9.8808   39.8374   66.0189 H   0  0  0  0  0  0
    9.1500   38.3849   67.8306 H   0  0  0  0  0  0
    7.6832   41.8156   69.9542 H   0  0  0  0  0  0
    8.3704   43.8055   65.7609 H   0  0  0  0  0  0
    7.4687   37.4381   72.1584 H   0  0  0  0  0  0
    8.7181   38.6167   72.5039 H   0  0  0  0  0  0
    9.7196   38.0430   70.1680 H   0  0  0  0  0  0
    8.1683   37.2768   69.8010 H   0  0  0  0  0  0
    8.6462   36.4374   74.2816 H   0  0  0  0  0  0
   10.1337   37.3195   74.1674 H   0  0  0  0  0  0
    9.1318   35.3868   70.7451 H   0  0  0  0  0  0
    8.0223   35.0925   72.0331 H   0  0  0  0  0  0
   11.4029   44.6163   64.9120 H   0  0  0  0  0  0
   11.8554   40.6171   66.3774 H   0  0  0  0  0  0
   10.9532   34.3552   71.8674 H   0  0  0  0  0  0
    9.7213   33.4271   72.6657 H   0  0  0  0  0  0
   10.1193   34.5964   74.7130 H   0  0  0  0  0  0
   11.4614   35.3687   73.9207 H   0  0  0  0  0  0
   13.7221   44.6501   64.2437 H   0  0  0  0  0  0
   14.1515   40.6172   65.6780 H   0  0  0  0  0  0
   15.1445   42.6392   64.5991 H   0  0  0  0  0  0
  1 12  1  0  0  0
  1 14  1  0  0  0
  1 15  1  0  0  0
  2  3  1  0  0  0
  2  4  1  0  0  0
  2 10  1  0  0  0
  2 23  1  0  0  0
  3  5  1  0  0  0
  3  6  2  0  0  0
  4 16  1  0  0  0
  4 17  2  0  0  0
  5  9  2  0  0  0
  5 24  1  0  0  0
  6  8  1  0  0  0
  6 25  1  0  0  0
  7 11  1  0  0  0
  7  8  2  0  0  0
  7  9  1  0  0  0
  8 26  1  0  0  0
  9 27  1  0  0  0
 10 28  1  0  0  0
 11 13  1  0  0  0
 12 13  1  0  0  0
 12 29  1  0  0  0
 12 30  1  0  0  0
 13 31  1  0  0  0
 13 32  1  0  0  0
 14 19  1  0  0  0
 14 33  1  0  0  0
 14 34  1  0  0  0
 15 18  1  0  0  0
 15 35  1  0  0  0
 15 36  1  0  0  0
 16 20  2  0  0  0
 16 37  1  0  0  0
 17 21  1  0  0  0
 17 38  1  0  0  0
 18 19  1  0  0  0
 18 39  1  0  0  0
 18 40  1  0  0  0
 19 41  1  0  0  0
 19 42  1  0  0  0
 20 22  1  0  0  0
 20 43  1  0  0  0
 21 22  2  0  0  0
 21 44  1  0  0  0
 22 45  1  0  0  0
M  END
> <s_m_entry_id>
6774

> <s_m_entry_name>
dock_pv.204

> <s_m_Source_Path>
/home/csk/Desktop/cluster/DUD-E-result/lkha4

> <s_m_Source_File>
dock_pv.maegz

> <i_m_Source_File_Index>
204

> <chembl_id>
CHEMBL162844

> <chembl_pref_name>
None

> <i_lp_mmshare_version>
53161

> <i_f3d_flags>
0

> <r_lp_tautomer_probability>
1

> <s_lp_Force_Field>
OPLS_2005

> <r_lp_Energy>
37.202448

> <b_lp_Chiralities_Consistent>
1

> <s_lp_Variant>
CHEMBL4618_lig85-1

> <s_i_glide_gridfile>
glide-grid_3chp

> <i_i_glide_lignum>
106

> <i_i_glide_rotatable_bonds>
7

> <r_i_docking_score>
-9.40424626098167

> <r_i_glide_ligand_efficiency>
-0.427465739135531

> <r_i_glide_ligand_efficiency_sa>
-1.19777581233131

> <r_i_glide_ligand_efficiency_ln>
-2.29874081440093

> <r_i_glide_gscore>
-9.40424626098167

> <r_i_glide_lipo>
-5.52076878679592

> <r_i_glide_hbond>
-0.32

> <r_i_glide_metal>
0

> <r_i_glide_rewards>
-2.09492616502755

> <r_i_glide_evdw>
-38.8242073059082

> <r_i_glide_ecoul>
-3.7592556476593

> <r_i_glide_erotb>
1.03654740328611

> <r_i_glide_esite>
0

> <r_i_glide_emodel>
-61.980346560997

> <r_i_glide_energy>
-42.5834629535675

> <r_i_glide_einternal>
6.91247701644897

> <i_i_glide_confnum>
53

> <i_i_glide_posenum>
112

> <r_i_glide_eff_state_penalty>
0

> <s_user_duplicate_titles>
CHEMBL4618_lig85

> <s_m_subgroup_title>
dock_pv

> <s_m_subgroupid>
dock_pv

> <b_m_subgroup_collapsed>
1

$$$$
CHEMBL4618_lig127
                    3D
 Schrodinger Suite 2021-1.
 44 47  0  0  1  0            999 V2000
   16.9198   41.8147   64.4393 N   0  0  0  0  0  0
   15.1865   43.0169   65.2368 N   0  0  0  0  0  0
   15.6440   42.0787   64.3379 C   0  0  0  0  0  0
   16.2977   43.4303   65.9533 C   0  0  0  0  0  0
   17.3586   42.6579   65.4197 C   0  0  0  0  0  0
   18.8815   43.7424   66.9346 N   0  0  0  0  0  0
   16.5208   44.3551   66.9810 C   0  0  0  0  0  0
    8.6433   41.0856   68.0315 C   0  0  0  0  0  0
    7.7110   40.4972   69.0907 C   0  0  0  0  0  0
   10.5197   42.3029   66.3404 C   0  0  0  0  0  0
   18.6462   42.8532   65.9387 C   0  0  0  0  0  0
   13.8214   43.5348   65.3202 C   0  0  0  0  0  0
    9.6973   40.3423   67.5023 C   0  0  0  0  0  0
    8.4772   42.4159   67.6326 C   0  0  0  0  0  0
    9.4019   43.0141   66.7747 C   0  0  0  0  0  0
   10.6226   40.9477   66.6674 C   0  0  0  0  0  0
    8.0281   39.0991   69.6386 C   0  0  0  0  0  0
   11.4864   42.9894   65.6262 O   0  0  0  0  0  0
   12.7969   42.4147   65.5438 C   0  0  0  0  0  0
   17.8405   44.4551   67.4322 C   0  0  0  0  0  0
    7.7232   37.9604   68.8937 C   0  0  0  0  0  0
    8.5301   38.9595   70.9343 C   0  0  0  0  0  0
    7.9380   36.7027   69.4521 C   0  0  0  0  0  0
    8.7345   37.7062   71.4941 C   0  0  0  0  0  0
    8.4313   36.5782   70.7455 C   0  0  0  0  0  0
   14.9652   41.6622   63.6019 H   0  0  0  0  0  0
   15.7243   44.9349   67.4208 H   0  0  0  0  0  0
    7.7212   41.2067   69.9207 H   0  0  0  0  0  0
    6.6808   40.5130   68.7392 H   0  0  0  0  0  0
   19.4939   42.3032   65.5547 H   0  0  0  0  0  0
   13.7695   44.2160   66.1643 H   0  0  0  0  0  0
   13.6145   44.0994   64.4094 H   0  0  0  0  0  0
    9.8320   39.3046   67.7641 H   0  0  0  0  0  0
    7.6549   43.0064   68.0137 H   0  0  0  0  0  0
    9.2834   44.0503   66.5025 H   0  0  0  0  0  0
   11.4311   40.3462   66.2841 H   0  0  0  0  0  0
   12.8241   41.6808   64.7402 H   0  0  0  0  0  0
   13.0649   41.9064   66.4715 H   0  0  0  0  0  0
   18.0814   45.1263   68.2427 H   0  0  0  0  0  0
    7.3255   38.0481   67.8930 H   0  0  0  0  0  0
    8.7254   39.8229   71.5391 H   0  0  0  0  0  0
    7.7231   35.8168   68.8797 H   0  0  0  0  0  0
    9.1056   37.6129   72.5044 H   0  0  0  0  0  0
    8.5795   35.5920   71.1661 H   0  0  0  0  0  0
  1  3  2  0  0  0
  1  5  1  0  0  0
  2  3  1  0  0  0
  2 12  1  0  0  0
  2  4  1  0  0  0
  3 26  1  0  0  0
  4  5  2  0  0  0
  4  7  1  0  0  0
  5 11  1  0  0  0
  6 11  2  0  0  0
  6 20  1  0  0  0
  7 20  2  0  0  0
  7 27  1  0  0  0
  8 13  1  0  0  0
  8  9  1  0  0  0
  8 14  2  0  0  0
  9 17  1  0  0  0
  9 28  1  0  0  0
  9 29  1  0  0  0
 10 18  1  0  0  0
 10 15  2  0  0  0
 10 16  1  0  0  0
 11 30  1  0  0  0
 12 19  1  0  0  0
 12 31  1  0  0  0
 12 32  1  0  0  0
 13 16  2  0  0  0
 13 33  1  0  0  0
 14 15  1  0  0  0
 14 34  1  0  0  0
 15 35  1  0  0  0
 16 36  1  0  0  0
 17 21  2  0  0  0
 17 22  1  0  0  0
 18 19  1  0  0  0
 19 37  1  0  0  0
 19 38  1  0  0  0
 20 39  1  0  0  0
 21 23  1  0  0  0
 21 40  1  0  0  0
 22 24  2  0  0  0
 22 41  1  0  0  0
 23 25  2  0  0  0
 23 42  1  0  0  0
 24 25  1  0  0  0
 24 43  1  0  0  0
 25 44  1  0  0  0
M  END
> <s_m_entry_id>
6775

> <s_m_entry_name>
dock_pv.205

> <s_m_Source_Path>
/home/csk/Desktop/cluster/DUD-E-result/lkha4

> <s_m_Source_File>
dock_pv.maegz

> <i_m_Source_File_Index>
205

> <chembl_id>
CHEMBL441950

> <chembl_pref_name>
None

> <i_lp_mmshare_version>
53161

> <i_f3d_flags>
0

> <r_lp_tautomer_probability>
1

> <s_lp_Force_Field>
OPLS_2005

> <r_lp_Energy>
18.511823

> <b_lp_Chiralities_Consistent>
1

> <s_lp_Variant>
CHEMBL4618_lig127-1

> <s_i_glide_gridfile>
glide-grid_3chp

> <i_i_glide_lignum>
153

> <i_i_glide_rotatable_bonds>
6

> <r_i_docking_score>
-9.38092187168045

> <r_i_glide_ligand_efficiency>
-0.375236874867218

> <r_i_glide_ligand_efficiency_sa>
-1.09719927696606

> <r_i_glide_ligand_efficiency_ln>
-2.22355960713148

> <r_i_glide_gscore>
-9.38092187168045

> <r_i_glide_lipo>
-4.74500532078152

> <r_i_glide_hbond>
0

> <r_i_glide_metal>
0

> <r_i_glide_rewards>
-2.04045353745138

> <r_i_glide_evdw>
-51.1275901794434

> <r_i_glide_ecoul>
-4.78057956695557

> <r_i_glide_erotb>
0.866087884204416

> <r_i_glide_esite>
-0.188084453636469

> <r_i_glide_emodel>
-82.7996255930836

> <r_i_glide_energy>
-55.9081697463989

> <r_i_glide_einternal>
7.91205453872681

> <i_i_glide_confnum>
28

> <i_i_glide_posenum>
356

> <r_i_glide_eff_state_penalty>
0

> <s_user_duplicate_titles>
CHEMBL4618_lig127,14729

> <s_m_subgroup_title>
dock_pv

> <s_m_subgroupid>
dock_pv

> <b_m_subgroup_collapsed>
1

$$$$
CHEMBL4618_lig368
                    3D
 Schrodinger Suite 2021-1.
 51 54  0  0  1  0            999 V2000
    8.5210   35.8592   71.1476 C   0  0  0  0  0  0
    9.3209   36.4121   72.1384 C   0  0  0  0  0  0
    9.4677   37.7937   72.2155 C   0  0  0  0  0  0
    8.8328   38.6160   71.2905 C   0  0  0  0  0  0
    8.0602   38.0621   70.2766 C   0  0  0  0  0  0
    7.9131   36.6771   70.2009 C   0  0  0  0  0  0
    7.3224   38.9831   69.3182 C   0  0  0  0  0  0
    8.2017   39.8897   68.4828 C   0  0  0  0  0  0
    8.9214   39.3071   67.4561 C   0  0  0  0  0  0
    9.8189   40.0749   66.7399 C   0  0  0  0  0  0
   10.0056   41.4371   67.0048 C   0  0  0  0  0  0
    9.1682   42.0435   67.9423 C   0  0  0  0  0  0
    8.2757   41.2724   68.6957 C   0  0  0  0  0  0
   10.9994   42.1944   66.3978 O   0  0  0  0  0  0
   12.1449   41.4756   65.9147 C   0  0  0  0  0  0
   13.2736   42.3291   65.3148 C   0  0  2  0  0  0
   14.2484   41.4161   64.5194 C   0  0  0  0  0  0
   15.4505   42.1698   63.9399 C   0  0  0  0  0  0
   16.1434   42.9622   65.0537 C   0  0  0  0  0  0
   15.1364   43.8470   65.8117 C   0  0  0  0  0  0
   13.9985   43.0920   66.3336 N   0  0  1  0  0  0
   10.0475   35.5167   73.0697 C   0  0  0  0  0  0
   10.4769   34.2162   72.7485 C   0  0  0  0  0  0
   11.1780   33.6035   73.7659 C   0  0  0  0  0  0
   11.3210   34.6164   75.1416 S   0  0  0  0  0  0
   10.4191   35.8591   74.3637 C   0  0  0  0  0  0
    8.3705   34.7910   71.1387 H   0  0  0  0  0  0
   10.0792   38.2159   72.9960 H   0  0  0  0  0  0
    8.9209   39.6890   71.3610 H   0  0  0  0  0  0
    7.3210   36.2228   69.4277 H   0  0  0  0  0  0
    6.7133   38.3875   68.6346 H   0  0  0  0  0  0
    6.6873   39.6054   69.9342 H   0  0  0  0  0  0
    8.8417   38.2485   67.2520 H   0  0  0  0  0  0
   10.3890   39.5584   65.9860 H   0  0  0  0  0  0
    9.2587   43.1011   68.1352 H   0  0  0  0  0  0
    7.6741   41.7432   69.4606 H   0  0  0  0  0  0
   12.5713   40.9106   66.7399 H   0  0  0  0  0  0
   11.8493   40.7596   65.1540 H   0  0  0  0  0  0
   12.8294   43.0617   64.6384 H   0  0  0  0  0  0
   14.6245   40.6469   65.1919 H   0  0  0  0  0  0
   13.7213   40.8946   63.7188 H   0  0  0  0  0  0
   16.1489   41.4896   63.4528 H   0  0  0  0  0  0
   15.1014   42.8445   63.1571 H   0  0  0  0  0  0
   16.6698   42.3099   65.7492 H   0  0  0  0  0  0
   16.9213   43.5901   64.6161 H   0  0  0  0  0  0
   15.6298   44.3552   66.6409 H   0  0  0  0  0  0
   14.7452   44.6116   65.1399 H   0  0  0  0  0  0
   13.3477   43.7208   66.7894 H   0  0  0  0  0  0
   10.2963   33.7374   71.7979 H   0  0  0  0  0  0
   11.6081   32.6162   73.7776 H   0  0  0  0  0  0
   10.2163   36.7826   74.8874 H   0  0  0  0  0  0
  1  2  2  0  0  0
  1  6  1  0  0  0
  1 27  1  0  0  0
  2  3  1  0  0  0
  2 22  1  0  0  0
  3  4  2  0  0  0
  3 28  1  0  0  0
  4  5  1  0  0  0
  4 29  1  0  0  0
  5  7  1  0  0  0
  5  6  2  0  0  0
  6 30  1  0  0  0
  7  8  1  0  0  0
  7 31  1  0  0  0
  7 32  1  0  0  0
  8 13  1  0  0  0
  8  9  2  0  0  0
  9 10  1  0  0  0
  9 33  1  0  0  0
 10 11  2  0  0  0
 10 34  1  0  0  0
 11 14  1  0  0  0
 11 12  1  0  0  0
 12 13  2  0  0  0
 12 35  1  0  0  0
 13 36  1  0  0  0
 14 15  1  0  0  0
 15 16  1  0  0  0
 15 37  1  0  0  0
 15 38  1  0  0  0
 16 17  1  0  0  0
 16 21  1  0  0  0
 16 39  1  0  0  0
 17 18  1  0  0  0
 17 40  1  0  0  0
 17 41  1  0  0  0
 18 19  1  0  0  0
 18 42  1  0  0  0
 18 43  1  0  0  0
 19 20  1  0  0  0
 19 44  1  0  0  0
 19 45  1  0  0  0
 20 21  1  0  0  0
 20 46  1  0  0  0
 20 47  1  0  0  0
 21 48  1  0  0  0
 22 23  1  0  0  0
 22 26  2  0  0  0
 23 24  2  0  0  0
 23 49  1  0  0  0
 24 25  1  0  0  0
 24 50  1  0  0  0
 25 26  1  0  0  0
 26 51  1  0  0  0
M  END
> <s_m_entry_id>
6776

> <s_m_entry_name>
dock_pv.206

> <s_m_Source_Path>
/home/csk/Desktop/cluster/DUD-E-result/lkha4

> <s_m_Source_File>
dock_pv.maegz

> <i_m_Source_File_Index>
206

> <chembl_id>
CHEMBL1094357

> <chembl_pref_name>
None

> <i_lp_mmshare_version>
53161

> <i_f3d_flags>
0

> <r_lp_tautomer_probability>
1

> <s_lp_Force_Field>
OPLS_2005

> <r_lp_Energy>
28.611084

> <b_lp_Chiralities_Consistent>
1

> <s_lp_Variant>
CHEMBL4618_lig368-1

> <s_i_glide_gridfile>
glide-grid_3chp

> <i_i_glide_lignum>
414

> <i_i_glide_rotatable_bonds>
6

> <r_i_docking_score>
-9.3694877594814

> <r_i_glide_ligand_efficiency>
-0.360364913826208

> <r_i_glide_ligand_efficiency_sa>
-1.06757963924268

> <r_i_glide_ligand_efficiency_ln>
-2.20039345651729

> <r_i_glide_gscore>
-9.3694877594814

> <r_i_glide_lipo>
-5.71990523932883

> <r_i_glide_hbond>
0

> <r_i_glide_metal>
0

> <r_i_glide_rewards>
-1.7641840325304

> <r_i_glide_evdw>
-40.7047996520996

> <r_i_glide_ecoul>
-4.81721639633179

> <r_i_glide_erotb>
0.872423954432572

> <r_i_glide_esite>
0

> <r_i_glide_emodel>
-58.7225205703874

> <r_i_glide_energy>
-45.5220160484314

> <r_i_glide_einternal>
6.71747446060181

> <i_i_glide_confnum>
25

> <i_i_glide_posenum>
308

> <r_i_glide_eff_state_penalty>
0

> <s_user_duplicate_titles>
CHEMBL4618_lig368,627627

> <s_m_subgroup_title>
dock_pv

> <s_m_subgroupid>
dock_pv

> <b_m_subgroup_collapsed>
1

$$$$
CHEMBL4618_lig120
                    3D
 Schrodinger Suite 2021-1.
 43 46  0  0  1  0            999 V2000
   16.3017   41.5197   64.5788 N   0  0  0  0  0  0
   15.9666   43.3453   65.9400 C   0  0  0  0  0  0
   16.9174   42.4946   65.3197 C   0  0  0  0  0  0
   14.7360   42.8664   65.5262 N   0  0  0  0  0  0
   15.0268   41.8168   64.6696 C   0  0  0  0  0  0
   18.2306   42.6168   65.5397 N   0  0  0  0  0  0
   17.7596   44.5265   66.9743 N   0  0  0  0  0  0
   18.5873   43.6522   66.3450 C   0  0  0  0  0  0
   16.4243   44.3603   66.7843 C   0  0  0  0  0  0
    8.4476   40.1260   68.3379 C   0  0  0  0  0  0
    7.4849   39.1752   69.0362 C   0  0  0  0  0  0
   10.2194   41.8791   67.0494 C   0  0  0  0  0  0
   13.4150   43.3810   65.9026 C   0  0  0  0  0  0
    9.3205   39.6449   67.3690 C   0  0  0  0  0  0
    8.3931   41.4995   68.5951 C   0  0  0  0  0  0
    9.2663   42.3643   67.9414 C   0  0  0  0  0  0
   10.2071   40.5146   66.7398 C   0  0  0  0  0  0
    8.0758   38.2069   70.0667 C   0  0  0  0  0  0
   11.1369   42.7799   66.5347 O   0  0  0  0  0  0
   12.3410   42.2751   65.9522 C   0  0  0  0  0  0
    8.5419   38.6927   71.2855 C   0  0  0  0  0  0
    8.0742   36.8250   69.8529 C   0  0  0  0  0  0
    9.0123   37.8239   72.2678 C   0  0  0  0  0  0
    8.5209   35.9608   70.8568 C   0  0  0  0  0  0
    8.9913   36.4581   72.0592 C   0  0  0  0  0  0
   14.2276   41.2899   64.1637 H   0  0  0  0  0  0
   19.6474   43.7851   66.5075 H   0  0  0  0  0  0
   15.7521   45.0160   67.3145 H   0  0  0  0  0  0
    6.7662   39.8159   69.5400 H   0  0  0  0  0  0
    6.9212   38.6168   68.2874 H   0  0  0  0  0  0
   13.5028   43.8159   66.8979 H   0  0  0  0  0  0
   13.1410   44.1775   65.2092 H   0  0  0  0  0  0
    9.3292   38.5927   67.1223 H   0  0  0  0  0  0
    7.6820   41.9015   69.3031 H   0  0  0  0  0  0
    9.2263   43.4160   68.1609 H   0  0  0  0  0  0
   10.8936   40.1041   66.0149 H   0  0  0  0  0  0
   12.1237   41.9132   64.9504 H   0  0  0  0  0  0
   12.7282   41.4389   66.5390 H   0  0  0  0  0  0
    8.5210   39.7553   71.4770 H   0  0  0  0  0  0
    7.7212   36.4151   68.9187 H   0  0  0  0  0  0
    9.3905   38.2154   73.1935 H   0  0  0  0  0  0
    8.5211   34.8930   70.7276 H   0  0  0  0  0  0
    9.3435   35.7840   72.8264 H   0  0  0  0  0  0
  1  3  1  0  0  0
  1  5  2  0  0  0
  2  3  2  0  0  0
  2  9  1  0  0  0
  2  4  1  0  0  0
  3  6  1  0  0  0
  4  5  1  0  0  0
  4 13  1  0  0  0
  5 26  1  0  0  0
  6  8  2  0  0  0
  7  8  1  0  0  0
  7  9  2  0  0  0
  8 27  1  0  0  0
  9 28  1  0  0  0
 10 14  2  0  0  0
 10 11  1  0  0  0
 10 15  1  0  0  0
 11 18  1  0  0  0
 11 29  1  0  0  0
 11 30  1  0  0  0
 12 19  1  0  0  0
 12 16  1  0  0  0
 12 17  2  0  0  0
 13 20  1  0  0  0
 13 31  1  0  0  0
 13 32  1  0  0  0
 14 17  1  0  0  0
 14 33  1  0  0  0
 15 16  2  0  0  0
 15 34  1  0  0  0
 16 35  1  0  0  0
 17 36  1  0  0  0
 18 21  2  0  0  0
 18 22  1  0  0  0
 19 20  1  0  0  0
 20 37  1  0  0  0
 20 38  1  0  0  0
 21 23  1  0  0  0
 21 39  1  0  0  0
 22 24  2  0  0  0
 22 40  1  0  0  0
 23 25  2  0  0  0
 23 41  1  0  0  0
 24 25  1  0  0  0
 24 42  1  0  0  0
 25 43  1  0  0  0
M  END
> <s_m_entry_id>
6777

> <s_m_entry_name>
dock_pv.207

> <s_m_Source_Path>
/home/csk/Desktop/cluster/DUD-E-result/lkha4

> <s_m_Source_File>
dock_pv.maegz

> <i_m_Source_File_Index>
207

> <chembl_id>
CHEMBL14789

> <chembl_pref_name>
None

> <i_lp_mmshare_version>
53161

> <i_f3d_flags>
0

> <r_lp_tautomer_probability>
1

> <s_lp_Force_Field>
OPLS_2005

> <r_lp_Energy>
17.177421

> <b_lp_Chiralities_Consistent>
1

> <s_lp_Variant>
CHEMBL4618_lig120-1

> <s_i_glide_gridfile>
glide-grid_3chp

> <i_i_glide_lignum>
146

> <i_i_glide_rotatable_bonds>
6

> <r_i_docking_score>
-9.36631792260036

> <r_i_glide_ligand_efficiency>
-0.374652716904014

> <r_i_glide_ligand_efficiency_sa>
-1.09549118872156

> <r_i_glide_ligand_efficiency_ln>
-2.22009803355446

> <r_i_glide_gscore>
-9.36631792260036

> <r_i_glide_lipo>
-4.77764430989381

> <r_i_glide_hbond>
-0.0646342089592239

> <r_i_glide_metal>
0

> <r_i_glide_rewards>
-2.037666996396

> <r_i_glide_evdw>
-46.8820381164551

> <r_i_glide_ecoul>
-4.87519073486328

> <r_i_glide_erotb>
0.861515328357989

> <r_i_glide_esite>
-0.272507219657067

> <r_i_glide_emodel>
-79.0034677324267

> <r_i_glide_energy>
-51.7572288513184

> <r_i_glide_einternal>
3.95670962333679

> <i_i_glide_confnum>
35

> <i_i_glide_posenum>
239

> <r_i_glide_eff_state_penalty>
0

> <s_user_duplicate_titles>
CHEMBL4618_lig120,14759

> <s_m_subgroup_title>
dock_pv

> <s_m_subgroupid>
dock_pv

> <b_m_subgroup_collapsed>
1

$$$$
CHEMBL4618_lig191
                    3D
 Schrodinger Suite 2021-1.
 47 48  0  0  1  0            999 V2000
   10.0469   37.4157   73.0805 C   0  0  0  0  0  0
   10.2345   36.1109   73.5225 C   0  0  0  0  0  0
    9.7041   35.0526   72.7996 C   0  0  0  0  0  0
    8.9196   35.3140   71.6789 C   0  0  0  0  0  0
    8.6790   36.6251   71.2499 C   0  0  0  0  0  0
    9.2616   37.6798   71.9566 C   0  0  0  0  0  0
    7.8649   36.8642   69.9712 C   0  0  0  0  0  0
    7.4582   38.2371   69.8152 O   0  0  0  0  0  0
    8.0464   39.0230   68.8382 C   0  0  0  0  0  0
    8.5307   38.5224   67.6279 C   0  0  0  0  0  0
    9.2885   39.3344   66.7923 C   0  0  0  0  0  0
    9.5595   40.6526   67.1385 C   0  0  0  0  0  0
    8.9208   41.2116   68.2469 C   0  0  0  0  0  0
    8.1623   40.3934   69.0771 C   0  0  0  0  0  0
   10.5577   41.3206   66.4113 N   0  0  0  0  0  0
   10.6257   42.6364   66.1475 C   0  0  0  0  0  0
    9.6949   43.4150   66.3399 O   0  0  0  0  0  0
   11.9025   43.1811   65.4973 C   0  0  0  0  0  0
   13.2515   42.4430   65.7738 C   0  0  0  0  0  0
   14.3872   43.1266   64.9701 C   0  0  1  0  0  0
   15.7996   42.6124   65.2125 C   0  0  0  0  0  0
   14.1209   43.0043   63.5399 N   0  0  0  0  0  0
   16.6444   43.6156   65.5400 O   0  0  0  0  0  0
   16.1248   41.4159   65.1368 O   0  0  0  0  0  0
   18.0347   43.3661   65.7019 C   0  0  0  0  0  0
   10.5208   38.2168   73.6203 H   0  0  0  0  0  0
   10.8319   35.9178   74.4016 H   0  0  0  0  0  0
    9.8777   34.0346   73.1185 H   0  0  0  0  0  0
    8.5209   34.4722   71.1401 H   0  0  0  0  0  0
    9.1167   38.6984   71.6290 H   0  0  0  0  0  0
    6.9583   36.2623   69.9889 H   0  0  0  0  0  0
    8.4569   36.4684   69.1503 H   0  0  0  0  0  0
    8.3950   37.4918   67.3439 H   0  0  0  0  0  0
    9.7216   38.8905   65.9147 H   0  0  0  0  0  0
    9.0720   42.2455   68.5204 H   0  0  0  0  0  0
    7.7210   40.8377   69.9411 H   0  0  0  0  0  0
   11.2621   40.7332   65.9922 H   0  0  0  0  0  0
   12.0024   44.2160   65.8254 H   0  0  0  0  0  0
   11.6879   43.2023   64.4288 H   0  0  0  0  0  0
   13.1895   41.3878   65.4990 H   0  0  0  0  0  0
   13.4812   42.4942   66.8391 H   0  0  0  0  0  0
   14.3543   44.1845   65.2372 H   0  0  0  0  0  0
   14.7563   43.6314   63.0468 H   0  0  0  0  0  0
   14.2851   42.0777   63.1558 H   0  0  0  0  0  0
   18.5549   44.2981   65.9261 H   0  0  0  0  0  0
   18.4653   42.9543   64.7859 H   0  0  0  0  0  0
   18.2195   42.6661   66.5183 H   0  0  0  0  0  0
  1  6  1  0  0  0
  1  2  2  0  0  0
  1 26  1  0  0  0
  2  3  1  0  0  0
  2 27  1  0  0  0
  3  4  2  0  0  0
  3 28  1  0  0  0
  4  5  1  0  0  0
  4 29  1  0  0  0
  5  7  1  0  0  0
  5  6  2  0  0  0
  6 30  1  0  0  0
  7  8  1  0  0  0
  7 31  1  0  0  0
  7 32  1  0  0  0
  8  9  1  0  0  0
  9 14  1  0  0  0
  9 10  2  0  0  0
 10 11  1  0  0  0
 10 33  1  0  0  0
 11 12  2  0  0  0
 11 34  1  0  0  0
 12 13  1  0  0  0
 12 15  1  0  0  0
 13 14  2  0  0  0
 13 35  1  0  0  0
 14 36  1  0  0  0
 15 16  1  0  0  0
 15 37  1  0  0  0
 16 17  2  0  0  0
 16 18  1  0  0  0
 18 19  1  0  0  0
 18 38  1  0  0  0
 18 39  1  0  0  0
 19 20  1  0  0  0
 19 40  1  0  0  0
 19 41  1  0  0  0
 20 21  1  0  0  0
 20 22  1  0  0  0
 20 42  1  0  0  0
 21 23  1  0  0  0
 21 24  2  0  0  0
 22 43  1  0  0  0
 22 44  1  0  0  0
 23 25  1  0  0  0
 25 45  1  0  0  0
 25 46  1  0  0  0
 25 47  1  0  0  0
M  END
> <s_m_entry_id>
6778

> <s_m_entry_name>
dock_pv.208

> <s_m_Source_Path>
/home/csk/Desktop/cluster/DUD-E-result/lkha4

> <s_m_Source_File>
dock_pv.maegz

> <i_m_Source_File_Index>
208

> <chembl_id>
CHEMBL517974

> <chembl_pref_name>
None

> <i_lp_mmshare_version>
53161

> <i_f3d_flags>
0

> <r_lp_tautomer_probability>
1

> <s_lp_Force_Field>
OPLS_2005

> <r_lp_Energy>
22.984812

> <b_lp_Chiralities_Consistent>
1

> <s_lp_Variant>
CHEMBL4618_lig191-1

> <s_i_glide_gridfile>
glide-grid_3chp

> <i_i_glide_lignum>
218

> <i_i_glide_rotatable_bonds>
10

> <r_i_docking_score>
-9.36470019914194

> <r_i_glide_ligand_efficiency>
-0.374588007965678

> <r_i_glide_ligand_efficiency_sa>
-1.09530197863825

> <r_i_glide_ligand_efficiency_ln>
-2.21971458461556

> <r_i_glide_gscore>
-9.36470019914194

> <r_i_glide_lipo>
-4.65968208542805

> <r_i_glide_hbond>
-0.655015556433828

> <r_i_glide_metal>
0

> <r_i_glide_rewards>
-1.39316112362414

> <r_i_glide_evdw>
-45.1827926635742

> <r_i_glide_ecoul>
-11.6896276473999

> <r_i_glide_erotb>
1.45574234663277

> <r_i_glide_esite>
-0.1

> <r_i_glide_emodel>
-87.8688408357331

> <r_i_glide_energy>
-56.8724203109741

> <r_i_glide_einternal>
11.5836248397827

> <i_i_glide_confnum>
91

> <i_i_glide_posenum>
291

> <r_i_glide_eff_state_penalty>
0

> <s_user_duplicate_titles>
CHEMBL4618_lig191,506999

> <s_m_subgroup_title>
dock_pv

> <s_m_subgroupid>
dock_pv

> <b_m_subgroup_collapsed>
1

$$$$
CHEMBL4618_lig135
                    3D
 Schrodinger Suite 2021-1.
 43 46  0  0  1  0            999 V2000
   16.1332   43.6996   66.1365 C   0  0  0  0  0  0
   17.4445   43.2185   66.0614 C   0  0  0  0  0  0
   15.1823   43.2002   65.2784 N   0  0  0  0  0  0
   16.1052   44.6160   67.1398 N   0  0  0  0  0  0
   18.2086   43.8466   66.9893 N   0  0  0  0  0  0
   16.7676   41.6494   64.3651 N   0  0  0  0  0  0
   17.3366   44.6165   67.5918 C   0  0  0  0  0  0
   15.5329   42.2160   64.4082 C   0  0  0  0  0  0
   17.7367   42.2160   65.1404 C   0  0  0  0  0  0
   13.7841   43.6938   65.2538 C   0  0  0  0  0  0
    8.6254   41.0857   68.0270 C   0  0  0  0  0  0
    7.7057   40.4897   69.0906 C   0  0  0  0  0  0
   10.4880   42.3602   66.3587 C   0  0  0  0  0  0
    9.7217   40.3808   67.5346 C   0  0  0  0  0  0
    8.4027   42.3940   67.5885 C   0  0  0  0  0  0
    9.3204   43.0159   66.7420 C   0  0  0  0  0  0
   10.6480   41.0160   66.7149 C   0  0  0  0  0  0
    8.0345   39.0954   69.6345 C   0  0  0  0  0  0
   11.4453   43.0850   65.6691 O   0  0  0  0  0  0
   12.7923   42.6092   65.7182 C   0  0  0  0  0  0
    7.7211   37.9562   68.8944 C   0  0  0  0  0  0
    8.5582   38.9537   70.9224 C   0  0  0  0  0  0
    7.9403   36.6999   69.4508 C   0  0  0  0  0  0
    8.7626   37.6995   71.4832 C   0  0  0  0  0  0
    8.4476   36.5710   70.7402 C   0  0  0  0  0  0
   17.6236   45.2402   68.4263 H   0  0  0  0  0  0
   14.7709   41.8698   63.7189 H   0  0  0  0  0  0
   18.7418   41.8284   65.0754 H   0  0  0  0  0  0
   13.7381   44.5767   65.8883 H   0  0  0  0  0  0
   13.5891   44.0169   64.2294 H   0  0  0  0  0  0
    7.7210   41.1992   69.9189 H   0  0  0  0  0  0
    6.6751   40.4989   68.7399 H   0  0  0  0  0  0
    9.9019   39.3579   67.8256 H   0  0  0  0  0  0
    7.5447   42.9511   67.9393 H   0  0  0  0  0  0
    9.1589   44.0423   66.4480 H   0  0  0  0  0  0
   11.4987   40.4562   66.3631 H   0  0  0  0  0  0
   12.8738   41.7228   65.0873 H   0  0  0  0  0  0
   13.0548   42.3150   66.7379 H   0  0  0  0  0  0
    7.3070   38.0421   67.8998 H   0  0  0  0  0  0
    8.7670   39.8160   71.5236 H   0  0  0  0  0  0
    7.7210   35.8159   68.8773 H   0  0  0  0  0  0
    9.1488   37.6059   72.4879 H   0  0  0  0  0  0
    8.5981   35.5867   71.1595 H   0  0  0  0  0  0
  1  2  1  0  0  0
  1  3  1  0  0  0
  1  4  2  0  0  0
  2  5  1  0  0  0
  2  9  2  0  0  0
  3  8  1  0  0  0
  3 10  1  0  0  0
  4  7  1  0  0  0
  5  7  2  0  0  0
  6  8  2  0  0  0
  6  9  1  0  0  0
  7 26  1  0  0  0
  8 27  1  0  0  0
  9 28  1  0  0  0
 10 20  1  0  0  0
 10 29  1  0  0  0
 10 30  1  0  0  0
 11 14  2  0  0  0
 11 12  1  0  0  0
 11 15  1  0  0  0
 12 18  1  0  0  0
 12 31  1  0  0  0
 12 32  1  0  0  0
 13 19  1  0  0  0
 13 16  1  0  0  0
 13 17  2  0  0  0
 14 17  1  0  0  0
 14 33  1  0  0  0
 15 16  2  0  0  0
 15 34  1  0  0  0
 16 35  1  0  0  0
 17 36  1  0  0  0
 18 21  2  0  0  0
 18 22  1  0  0  0
 19 20  1  0  0  0
 20 37  1  0  0  0
 20 38  1  0  0  0
 21 23  1  0  0  0
 21 39  1  0  0  0
 22 24  2  0  0  0
 22 40  1  0  0  0
 23 25  2  0  0  0
 23 41  1  0  0  0
 24 25  1  0  0  0
 24 42  1  0  0  0
 25 43  1  0  0  0
M  END
> <s_m_entry_id>
6779

> <s_m_entry_name>
dock_pv.209

> <s_m_Source_Path>
/home/csk/Desktop/cluster/DUD-E-result/lkha4

> <s_m_Source_File>
dock_pv.maegz

> <i_m_Source_File_Index>
209

> <chembl_id>
CHEMBL14547

> <chembl_pref_name>
None

> <i_lp_mmshare_version>
53161

> <i_f3d_flags>
0

> <r_lp_tautomer_probability>
1

> <s_lp_Force_Field>
OPLS_2005

> <r_lp_Energy>
27.219047

> <b_lp_Chiralities_Consistent>
1

> <s_lp_Variant>
CHEMBL4618_lig135-1

> <s_i_glide_gridfile>
glide-grid_3chp

> <i_i_glide_lignum>
161

> <i_i_glide_rotatable_bonds>
6

> <r_i_docking_score>
-9.35973247384438

> <r_i_glide_ligand_efficiency>
-0.374389298953775

> <r_i_glide_ligand_efficiency_sa>
-1.09472094996333

> <r_i_glide_ligand_efficiency_ln>
-2.21853708484932

> <r_i_glide_gscore>
-9.35973247384438

> <r_i_glide_lipo>
-4.43465077803775

> <r_i_glide_hbond>
0

> <r_i_glide_metal>
0

> <r_i_glide_rewards>
-2.012500370293

> <r_i_glide_evdw>
-45.2561950683594

> <r_i_glide_ecoul>
-8.7261323928833

> <r_i_glide_erotb>
0.861515328357989

> <r_i_glide_esite>
-0.202367041521157

> <r_i_glide_emodel>
-75.9118051332039

> <r_i_glide_energy>
-53.9823274612427

> <r_i_glide_einternal>
10.2522630691528

> <i_i_glide_confnum>
3

> <i_i_glide_posenum>
368

> <r_i_glide_eff_state_penalty>
0

> <s_user_duplicate_titles>
CHEMBL4618_lig135,14763

> <s_m_subgroup_title>
dock_pv

> <s_m_subgroupid>
dock_pv

> <b_m_subgroup_collapsed>
1

$$$$
CHEMBL4618_lig64
                    3D
 Schrodinger Suite 2021-1.
 48 50  0  0  1  0            999 V2000
    9.2549   36.9446   71.9400 N   0  0  0  0  0  0
    9.4553   41.8636   66.9176 C   0  0  0  0  0  0
   11.6838   42.5737   65.6119 C   0  0  0  0  0  0
   10.2346   42.8698   66.0428 C   0  0  0  0  0  0
    8.1506   40.0730   68.6418 C   0  0  0  0  0  0
   14.2676   41.9136   64.6712 C   0  0  0  0  0  0
    9.5567   40.4784   66.7400 C   0  0  0  0  0  0
   12.3554   41.4430   66.0621 C   0  0  0  0  0  0
    8.6018   42.3403   67.9165 C   0  0  0  0  0  0
   12.3506   43.4159   64.7135 C   0  0  0  0  0  0
   13.6352   43.0956   64.2512 C   0  0  0  0  0  0
    7.9437   41.4470   68.7590 C   0  0  0  0  0  0
   13.5860   41.0959   65.5455 C   0  0  0  0  0  0
    8.9210   39.5882   67.5881 C   0  0  0  0  0  0
    7.5810   39.2450   69.5807 O   0  0  0  0  0  0
    8.2570   37.9197   71.4929 C   0  0  0  0  0  0
    8.2752   38.0532   69.9568 C   0  0  0  0  0  0
   15.5375   41.4677   64.3401 O   0  0  0  0  0  0
    8.9213   35.5569   71.6608 C   0  0  0  0  0  0
    9.5171   36.9433   73.3700 C   0  0  0  0  0  0
   16.3460   42.2747   63.5025 C   0  0  0  0  0  0
   10.0076   34.7791   72.4062 C   0  0  0  0  0  0
   10.2498   35.6250   73.6594 C   0  0  0  0  0  0
    9.6422   43.0486   65.1451 H   0  0  0  0  0  0
   10.2671   43.8161   66.5739 H   0  0  0  0  0  0
   10.1455   40.0619   65.9401 H   0  0  0  0  0  0
   11.9480   40.8060   66.8223 H   0  0  0  0  0  0
    8.4496   43.4026   68.0513 H   0  0  0  0  0  0
   11.8708   44.3132   64.3610 H   0  0  0  0  0  0
   14.1121   43.7693   63.5593 H   0  0  0  0  0  0
    7.3040   41.8235   69.5405 H   0  0  0  0  0  0
   14.0581   40.2161   65.9396 H   0  0  0  0  0  0
    9.0508   38.5278   67.4313 H   0  0  0  0  0  0
    7.2613   37.6448   71.8443 H   0  0  0  0  0  0
    8.4839   38.8924   71.9317 H   0  0  0  0  0  0
    9.3170   38.0583   69.6294 H   0  0  0  0  0  0
    7.7890   37.1989   69.4842 H   0  0  0  0  0  0
    8.9208   35.4161   70.5828 H   0  0  0  0  0  0
    7.9055   35.3054   71.9744 H   0  0  0  0  0  0
    8.6007   37.0432   73.9538 H   0  0  0  0  0  0
   10.1219   37.8160   73.6134 H   0  0  0  0  0  0
   17.1967   41.6852   63.1648 H   0  0  0  0  0  0
   15.8237   42.6162   62.6096 H   0  0  0  0  0  0
   16.7302   43.1359   64.0480 H   0  0  0  0  0  0
   10.9044   34.6823   71.7944 H   0  0  0  0  0  0
    9.7066   33.7629   72.6513 H   0  0  0  0  0  0
    9.8350   35.1423   74.5432 H   0  0  0  0  0  0
   11.3135   35.7792   73.8337 H   0  0  0  0  0  0
  1 16  1  0  0  0
  1 19  1  0  0  0
  1 20  1  0  0  0
  2  7  2  0  0  0
  2  4  1  0  0  0
  2  9  1  0  0  0
  3  4  1  0  0  0
  3  8  1  0  0  0
  3 10  2  0  0  0
  4 24  1  0  0  0
  4 25  1  0  0  0
  5 15  1  0  0  0
  5 12  1  0  0  0
  5 14  2  0  0  0
  6 11  2  0  0  0
  6 18  1  0  0  0
  6 13  1  0  0  0
  7 14  1  0  0  0
  7 26  1  0  0  0
  8 13  2  0  0  0
  8 27  1  0  0  0
  9 12  2  0  0  0
  9 28  1  0  0  0
 10 11  1  0  0  0
 10 29  1  0  0  0
 11 30  1  0  0  0
 12 31  1  0  0  0
 13 32  1  0  0  0
 14 33  1  0  0  0
 15 17  1  0  0  0
 16 17  1  0  0  0
 16 34  1  0  0  0
 16 35  1  0  0  0
 17 36  1  0  0  0
 17 37  1  0  0  0
 18 21  1  0  0  0
 19 22  1  0  0  0
 19 38  1  0  0  0
 19 39  1  0  0  0
 20 23  1  0  0  0
 20 40  1  0  0  0
 20 41  1  0  0  0
 21 42  1  0  0  0
 21 43  1  0  0  0
 21 44  1  0  0  0
 22 23  1  0  0  0
 22 45  1  0  0  0
 22 46  1  0  0  0
 23 47  1  0  0  0
 23 48  1  0  0  0
M  END
> <s_m_entry_id>
6780

> <s_m_entry_name>
dock_pv.210

> <s_m_Source_Path>
/home/csk/Desktop/cluster/DUD-E-result/lkha4

> <s_m_Source_File>
dock_pv.maegz

> <i_m_Source_File_Index>
210

> <chembl_id>
CHEMBL163037

> <chembl_pref_name>
None

> <i_lp_mmshare_version>
53161

> <i_f3d_flags>
0

> <r_lp_tautomer_probability>
1

> <s_lp_Force_Field>
OPLS_2005

> <r_lp_Energy>
40.01831

> <b_lp_Chiralities_Consistent>
1

> <s_lp_Variant>
CHEMBL4618_lig64-1

> <s_i_glide_gridfile>
glide-grid_3chp

> <i_i_glide_lignum>
82

> <i_i_glide_rotatable_bonds>
7

> <r_i_docking_score>
-9.35607943297933

> <r_i_glide_ligand_efficiency>
-0.406786062303449

> <r_i_glide_ligand_efficiency_sa>
-1.15684544923953

> <r_i_glide_ligand_efficiency_ln>
-2.26238484313228

> <r_i_glide_gscore>
-9.35607943297933

> <r_i_glide_lipo>
-5.32091009086027

> <r_i_glide_hbond>
0

> <r_i_glide_metal>
0

> <r_i_glide_rewards>
-1.81891897957506

> <r_i_glide_evdw>
-44.0581245422363

> <r_i_glide_ecoul>
-6.46304559707642

> <r_i_glide_erotb>
0.956112704129278

> <r_i_glide_esite>
0

> <r_i_glide_emodel>
-75.7191624874725

> <r_i_glide_energy>
-50.5211701393127

> <r_i_glide_einternal>
8.86022472381592

> <i_i_glide_confnum>
55

> <i_i_glide_posenum>
54

> <r_i_glide_eff_state_penalty>
0

> <s_user_duplicate_titles>
CHEMBL4618_lig64,271783

> <s_m_subgroup_title>
dock_pv

> <s_m_subgroupid>
dock_pv

> <b_m_subgroup_collapsed>
1

$$$$
CHEMBL4618_lig278
                    3D
 Schrodinger Suite 2021-1.
 61 65  0  0  1  0            999 V2000
    8.4451   35.8875   71.2433 C   0  0  0  0  0  0
    8.7600   36.8758   72.1678 C   0  0  0  0  0  0
    8.7541   38.2163   71.7920 C   0  0  0  0  0  0
    8.0678   36.2160   69.9403 C   0  0  0  0  0  0
    8.1066   37.5511   69.5498 C   0  0  0  0  0  0
    8.4799   38.5607   70.4619 C   0  0  0  0  0  0
    8.5210   39.8157   69.9437 N   0  0  0  0  0  0
    8.1211   39.8281   68.7124 C   0  0  0  0  0  0
    7.7215   38.2712   68.0013 S   0  0  0  0  0  0
    8.0500   40.9587   67.9322 O   0  0  0  0  0  0
    9.1737   41.3910   67.2574 C   0  0  0  0  0  0
   10.1849   40.5076   66.8983 C   0  0  0  0  0  0
   11.3229   40.9595   66.2621 C   0  0  0  0  0  0
   11.5012   42.3015   65.9401 C   0  0  0  0  0  0
   10.4568   43.1791   66.2313 C   0  0  0  0  0  0
    9.3008   42.7322   66.8876 C   0  0  0  0  0  0
   12.6485   42.7706   65.3123 O   0  0  0  0  0  0
   13.6680   41.8092   64.9814 C   0  0  0  0  0  0
   14.9174   42.4182   64.3285 C   0  0  0  0  0  0
   16.0815   42.4180   65.2275 N   0  0  1  0  0  0
   17.3038   42.6406   64.4573 C   0  0  0  0  0  0
   18.5438   42.5548   65.3565 C   0  0  0  0  0  0
   18.5198   43.4894   66.5865 C   0  0  0  0  0  0
   17.1109   43.4817   67.2389 C   0  0  0  0  0  0
   15.9414   43.4805   66.2324 C   0  0  0  0  0  0
   19.6529   43.3540   67.5388 N   0  0  0  0  0  0
   19.8964   44.4001   68.3958 C   0  0  0  0  0  0
   20.9981   44.2170   69.4661 C   0  0  0  0  0  0
   21.4965   42.7853   69.6865 C   0  0  0  0  0  0
   21.7076   42.0980   68.3537 C   0  0  0  0  0  0
   20.3828   42.0550   67.5892 C   0  0  0  0  0  0
   19.2927   45.4755   68.3408 O   0  0  0  0  0  0
    8.4221   34.8522   71.5547 H   0  0  0  0  0  0
    8.9836   36.6029   73.1893 H   0  0  0  0  0  0
    8.9210   38.9804   72.5230 H   0  0  0  0  0  0
    7.7217   35.4691   69.2415 H   0  0  0  0  0  0
   10.1103   39.4516   67.1002 H   0  0  0  0  0  0
   12.0351   40.2163   65.9411 H   0  0  0  0  0  0
   10.5501   44.2156   65.9529 H   0  0  0  0  0  0
    8.5130   43.4332   67.1296 H   0  0  0  0  0  0
   13.2648   41.0803   64.2800 H   0  0  0  0  0  0
   13.9552   41.2505   65.8743 H   0  0  0  0  0  0
   14.6860   43.4157   63.9604 H   0  0  0  0  0  0
   15.1523   41.8225   63.4479 H   0  0  0  0  0  0
   17.2621   43.6015   63.9406 H   0  0  0  0  0  0
   17.3730   41.8743   63.6820 H   0  0  0  0  0  0
   19.4271   42.7591   64.7501 H   0  0  0  0  0  0
   18.6064   41.5207   65.6799 H   0  0  0  0  0  0
   18.6043   44.4790   66.1299 H   0  0  0  0  0  0
   17.0027   42.6165   67.8900 H   0  0  0  0  0  0
   16.9850   44.3534   67.8823 H   0  0  0  0  0  0
   15.8576   44.4489   65.7358 H   0  0  0  0  0  0
   15.0054   43.3404   66.7767 H   0  0  0  0  0  0
   20.6195   44.6178   70.4054 H   0  0  0  0  0  0
   21.8270   44.8464   69.1411 H   0  0  0  0  0  0
   20.7776   42.2252   70.2876 H   0  0  0  0  0  0
   22.4257   42.7921   70.2562 H   0  0  0  0  0  0
   22.4643   42.6172   67.7638 H   0  0  0  0  0  0
   22.0850   41.0838   68.4944 H   0  0  0  0  0  0
   20.4949   41.5827   66.6163 H   0  0  0  0  0  0
   19.7217   41.4038   68.1587 H   0  0  0  0  0  0
  1  4  1  0  0  0
  1  2  2  0  0  0
  1 33  1  0  0  0
  2  3  1  0  0  0
  2 34  1  0  0  0
  3  6  2  0  0  0
  3 35  1  0  0  0
  4  5  2  0  0  0
  4 36  1  0  0  0
  5  9  1  0  0  0
  5  6  1  0  0  0
  6  7  1  0  0  0
  7  8  2  0  0  0
  8  9  1  0  0  0
  8 10  1  0  0  0
 10 11  1  0  0  0
 11 16  1  0  0  0
 11 12  2  0  0  0
 12 13  1  0  0  0
 12 37  1  0  0  0
 13 14  2  0  0  0
 13 38  1  0  0  0
 14 17  1  0  0  0
 14 15  1  0  0  0
 15 16  2  0  0  0
 15 39  1  0  0  0
 16 40  1  0  0  0
 17 18  1  0  0  0
 18 19  1  0  0  0
 18 41  1  0  0  0
 18 42  1  0  0  0
 19 20  1  0  0  0
 19 43  1  0  0  0
 19 44  1  0  0  0
 20 21  1  0  0  0
 20 25  1  0  0  0
 21 22  1  0  0  0
 21 45  1  0  0  0
 21 46  1  0  0  0
 22 23  1  0  0  0
 22 47  1  0  0  0
 22 48  1  0  0  0
 23 24  1  0  0  0
 23 26  1  0  0  0
 23 49  1  0  0  0
 24 25  1  0  0  0
 24 50  1  0  0  0
 24 51  1  0  0  0
 25 52  1  0  0  0
 25 53  1  0  0  0
 26 27  1  0  0  0
 26 31  1  0  0  0
 27 28  1  0  0  0
 27 32  2  0  0  0
 28 29  1  0  0  0
 28 54  1  0  0  0
 28 55  1  0  0  0
 29 30  1  0  0  0
 29 56  1  0  0  0
 29 57  1  0  0  0
 30 31  1  0  0  0
 30 58  1  0  0  0
 30 59  1  0  0  0
 31 60  1  0  0  0
 31 61  1  0  0  0
M  END
> <s_m_entry_id>
6781

> <s_m_entry_name>
dock_pv.211

> <s_m_Source_Path>
/home/csk/Desktop/cluster/DUD-E-result/lkha4

> <s_m_Source_File>
dock_pv.maegz

> <i_m_Source_File_Index>
211

> <chembl_id>
CHEMBL470929

> <chembl_pref_name>
None

> <i_lp_mmshare_version>
53161

> <i_f3d_flags>
0

> <r_lp_tautomer_probability>
1

> <s_lp_Force_Field>
OPLS_2005

> <r_lp_Energy>
50.1173

> <b_lp_Chiralities_Consistent>
1

> <s_lp_Variant>
CHEMBL4618_lig278-1

> <s_i_glide_gridfile>
glide-grid_3chp

> <i_i_glide_lignum>
316

> <i_i_glide_rotatable_bonds>
7

> <r_i_docking_score>
-9.34965719700123

> <r_i_glide_ligand_efficiency>
-0.292176787406289

> <r_i_glide_ligand_efficiency_sa>
-0.927603478307253

> <r_i_glide_ligand_efficiency_ln>
-2.0936431084381

> <r_i_glide_gscore>
-9.34965719700123

> <r_i_glide_lipo>
-4.49152025653832

> <r_i_glide_hbond>
-0.474855934237919

> <r_i_glide_metal>
0

> <r_i_glide_rewards>
-1.00511659032222

> <r_i_glide_evdw>
-44.905445098877

> <r_i_glide_ecoul>
-11.7948274612427

> <r_i_glide_erotb>
0.688521191332601

> <r_i_glide_esite>
-0.0521892331051274

> <r_i_glide_emodel>
-77.2891191652945

> <r_i_glide_energy>
-56.7002725601196

> <r_i_glide_einternal>
17.7939186096191

> <i_i_glide_confnum>
12

> <i_i_glide_posenum>
93

> <r_i_glide_eff_state_penalty>
0

> <s_user_duplicate_titles>
CHEMBL4618_lig278,466869

> <s_m_subgroup_title>
dock_pv

> <s_m_subgroupid>
dock_pv

> <b_m_subgroup_collapsed>
1

$$$$
CHEMBL4618_lig330
                    3D
 Schrodinger Suite 2021-1.
 56 59  0  0  1  0            999 V2000
   13.1368   41.4570   65.4401 C   0  0  0  0  0  0
   13.3914   42.7134   64.9116 C   0  0  0  0  0  0
   12.3981   43.6945   64.9225 C   0  0  0  0  0  0
   11.1465   43.4160   65.4835 C   0  0  0  0  0  0
   10.8813   42.1542   66.0155 C   0  0  0  0  0  0
   11.8865   41.1915   65.9662 C   0  0  0  0  0  0
    9.6195   41.8727   66.5795 N   0  0  0  0  0  0
   14.6184   42.9598   64.3548 O   0  0  0  0  0  0
   15.7231   43.0559   65.1708 C   0  0  0  0  0  0
   16.9208   42.4928   64.7401 C   0  0  0  0  0  0
   18.0753   42.6222   65.5107 C   0  0  0  0  0  0
   18.0317   43.3267   66.7098 C   0  0  0  0  0  0
   16.8442   43.9107   67.1396 C   0  0  0  0  0  0
   15.6919   43.7755   66.3690 C   0  0  0  0  0  0
    9.4380   40.7142   67.4659 C   0  0  0  0  0  0
    8.4248   41.0584   68.5511 C   0  0  0  0  0  0
    8.3530   39.8669   69.5166 C   0  0  0  0  0  0
    7.8936   38.6340   68.8822 N   0  0  1  0  0  0
    8.7035   38.2631   67.7204 C   0  0  0  0  0  0
    8.9325   39.4440   66.7403 C   0  0  0  0  0  0
    7.5086   37.5182   69.7745 C   0  0  0  0  0  0
    8.4259   37.0807   70.9322 C   0  0  0  0  0  0
    8.9199   37.9709   71.8750 C   0  0  0  0  0  0
    9.6882   37.5100   72.9284 C   0  0  0  0  0  0
    9.8304   36.1577   73.2001 C   0  0  0  0  0  0
    9.3528   35.2497   72.2622 C   0  0  0  0  0  0
    8.6838   35.7255   71.1400 C   0  0  0  0  0  0
   10.5226   35.6997   74.4515 C   0  0  0  0  0  0
   11.0545   34.5966   74.5357 O   0  0  0  0  0  0
   10.5293   36.6159   75.4659 O   0  0  0  0  0  0
   13.8871   40.6812   65.4147 H   0  0  0  0  0  0
   12.6085   44.6685   64.5089 H   0  0  0  0  0  0
   10.3909   44.1874   65.5118 H   0  0  0  0  0  0
   11.6890   40.2159   66.3327 H   0  0  0  0  0  0
    9.0277   42.6701   66.7660 H   0  0  0  0  0  0
   16.9655   42.0200   63.7684 H   0  0  0  0  0  0
   19.0112   42.2152   65.1555 H   0  0  0  0  0  0
   18.9293   43.4312   67.3015 H   0  0  0  0  0  0
   16.8094   44.4558   68.0714 H   0  0  0  0  0  0
   14.7669   44.2176   66.7060 H   0  0  0  0  0  0
   10.3851   40.5068   67.9619 H   0  0  0  0  0  0
    7.4377   41.2882   68.1457 H   0  0  0  0  0  0
    8.7431   41.9456   69.1003 H   0  0  0  0  0  0
    7.7210   40.1243   70.3399 H   0  0  0  0  0  0
    9.3210   39.6714   69.9557 H   0  0  0  0  0  0
    9.6505   37.8580   68.0689 H   0  0  0  0  0  0
    8.2020   37.4542   67.1920 H   0  0  0  0  0  0
    9.6482   39.1351   65.9785 H   0  0  0  0  0  0
    8.0083   39.6185   66.2006 H   0  0  0  0  0  0
    7.3206   36.6440   69.1517 H   0  0  0  0  0  0
    6.5504   37.7746   70.2275 H   0  0  0  0  0  0
    8.7224   39.0254   71.8351 H   0  0  0  0  0  0
   10.1560   38.2445   73.5408 H   0  0  0  0  0  0
    9.5002   34.1856   72.3858 H   0  0  0  0  0  0
    8.4171   35.0161   70.3891 H   0  0  0  0  0  0
   10.0479   37.4253   75.2556 H   0  0  0  0  0  0
  1  6  1  0  0  0
  1  2  2  0  0  0
  1 31  1  0  0  0
  2  8  1  0  0  0
  2  3  1  0  0  0
  3  4  2  0  0  0
  3 32  1  0  0  0
  4  5  1  0  0  0
  4 33  1  0  0  0
  5  7  1  0  0  0
  5  6  2  0  0  0
  6 34  1  0  0  0
  7 15  1  0  0  0
  7 35  1  0  0  0
  8  9  1  0  0  0
  9 10  2  0  0  0
  9 14  1  0  0  0
 10 11  1  0  0  0
 10 36  1  0  0  0
 11 12  2  0  0  0
 11 37  1  0  0  0
 12 13  1  0  0  0
 12 38  1  0  0  0
 13 14  2  0  0  0
 13 39  1  0  0  0
 14 40  1  0  0  0
 15 16  1  0  0  0
 15 20  1  0  0  0
 15 41  1  0  0  0
 16 17  1  0  0  0
 16 42  1  0  0  0
 16 43  1  0  0  0
 17 18  1  0  0  0
 17 44  1  0  0  0
 17 45  1  0  0  0
 18 19  1  0  0  0
 18 21  1  0  0  0
 19 20  1  0  0  0
 19 46  1  0  0  0
 19 47  1  0  0  0
 20 48  1  0  0  0
 20 49  1  0  0  0
 21 22  1  0  0  0
 21 50  1  0  0  0
 21 51  1  0  0  0
 22 23  2  0  0  0
 22 27  1  0  0  0
 23 24  1  0  0  0
 23 52  1  0  0  0
 24 25  2  0  0  0
 24 53  1  0  0  0
 25 26  1  0  0  0
 25 28  1  0  0  0
 26 27  2  0  0  0
 26 54  1  0  0  0
 27 55  1  0  0  0
 28 29  2  0  0  0
 28 30  1  0  0  0
 30 56  1  0  0  0
M  END
> <s_m_entry_id>
6782

> <s_m_entry_name>
dock_pv.212

> <s_m_Source_Path>
/home/csk/Desktop/cluster/DUD-E-result/lkha4

> <s_m_Source_File>
dock_pv.maegz

> <i_m_Source_File_Index>
212

> <chembl_id>
CHEMBL481860

> <chembl_pref_name>
None

> <i_lp_mmshare_version>
53161

> <i_f3d_flags>
0

> <r_lp_tautomer_probability>
1

> <s_lp_Force_Field>
OPLS_2005

> <r_lp_Energy>
34.160056

> <b_lp_Chiralities_Consistent>
1

> <s_lp_Variant>
CHEMBL4618_lig330-1

> <s_i_glide_gridfile>
glide-grid_3chp

> <i_i_glide_lignum>
374

> <i_i_glide_rotatable_bonds>
8

> <r_i_docking_score>
-9.3483338784312

> <r_i_glide_ligand_efficiency>
-0.31161112928104

> <r_i_glide_ligand_efficiency_sa>
-0.968248229021304

> <r_i_glide_ligand_efficiency_ln>
-2.12404331543538

> <r_i_glide_gscore>
-9.3483338784312

> <r_i_glide_lipo>
-5.43047667800921

> <r_i_glide_hbond>
0

> <r_i_glide_metal>
0

> <r_i_glide_rewards>
-1.41334605966383

> <r_i_glide_evdw>
-50.5898818969727

> <r_i_glide_ecoul>
-5.48670768737793

> <r_i_glide_erotb>
0.847989107197162

> <r_i_glide_esite>
0

> <r_i_glide_emodel>
-67.067371121334

> <r_i_glide_energy>
-56.0765895843506

> <r_i_glide_einternal>
30.100025177002

> <i_i_glide_confnum>
64

> <i_i_glide_posenum>
203

> <r_i_glide_eff_state_penalty>
0

> <s_user_duplicate_titles>
CHEMBL4618_lig330,466877

> <s_m_subgroup_title>
dock_pv

> <s_m_subgroupid>
dock_pv

> <b_m_subgroup_collapsed>
1

$$$$
CHEMBL4618_lig33
                    3D
 Schrodinger Suite 2021-1.
 50 52  0  0  1  0            999 V2000
   13.9692   42.4513   64.5022 C   0  0  1  0  0  0
   15.4505   42.4186   64.9384 C   0  0  0  0  0  0
   11.8222   42.7492   65.4795 N   0  0  2  0  0  0
   13.0378   41.9531   65.6268 C   0  0  0  0  0  0
   13.4272   43.8605   64.1730 C   0  0  0  0  0  0
   16.1451   41.4160   64.7400 O   0  0  0  0  0  0
   12.2889   44.0672   65.1479 C   0  0  0  0  0  0
   15.8774   43.5301   65.5794 O   0  0  0  0  0  0
    8.1376   37.8962   69.3049 C   0  0  0  0  0  0
    7.9632   36.5997   70.0745 C   0  0  0  0  0  0
    8.6482   40.3253   68.0256 C   0  0  0  0  0  0
    8.5210   37.9202   67.9676 C   0  0  0  0  0  0
    7.8580   39.0841   69.9400 C   0  0  0  0  0  0
    8.1210   40.2987   69.3109 C   0  0  0  0  0  0
    8.7794   39.1216   67.3236 C   0  0  0  0  0  0
    8.7876   36.3416   71.3530 C   0  0  0  0  0  0
   10.8980   42.7550   66.6097 C   0  0  0  0  0  0
    9.0373   41.5565   67.5467 O   0  0  0  0  0  0
    9.9142   41.6089   66.4273 C   0  0  0  0  0  0
   17.2416   43.6711   65.9481 C   0  0  0  0  0  0
    9.3911   37.3535   72.1144 C   0  0  0  0  0  0
    8.9559   35.0160   71.7601 C   0  0  0  0  0  0
   10.1210   37.0340   73.2579 C   0  0  0  0  0  0
    9.7218   34.6950   72.8756 C   0  0  0  0  0  0
   10.2806   35.7084   73.6400 C   0  0  0  0  0  0
   13.8718   41.8157   63.6202 H   0  0  0  0  0  0
   12.8142   40.8870   65.5584 H   0  0  0  0  0  0
   13.4514   42.1004   66.6274 H   0  0  0  0  0  0
   14.1210   44.6775   64.3400 H   0  0  0  0  0  0
   13.0904   43.9292   63.1400 H   0  0  0  0  0  0
   12.5898   44.6159   66.0309 H   0  0  0  0  0  0
   11.4479   44.6160   64.7400 H   0  0  0  0  0  0
    6.9169   36.5653   70.3400 H   0  0  0  0  0  0
    8.1210   35.7869   69.3768 H   0  0  0  0  0  0
    8.6969   37.0160   67.4276 H   0  0  0  0  0  0
    7.4668   39.0160   70.9439 H   0  0  0  0  0  0
    7.9546   41.2250   69.8392 H   0  0  0  0  0  0
    9.1199   39.0854   66.3002 H   0  0  0  0  0  0
   11.4262   42.6887   67.5595 H   0  0  0  0  0  0
   10.3252   43.6841   66.6371 H   0  0  0  0  0  0
    9.3210   41.8160   65.5400 H   0  0  0  0  0  0
   10.4859   40.6937   66.2678 H   0  0  0  0  0  0
   17.3944   44.6319   66.4386 H   0  0  0  0  0  0
   17.8875   43.6335   65.0686 H   0  0  0  0  0  0
   17.5490   42.8843   66.6383 H   0  0  0  0  0  0
    9.3209   38.3928   71.8472 H   0  0  0  0  0  0
    8.5210   34.2133   71.1883 H   0  0  0  0  0  0
   10.5705   37.8161   73.8501 H   0  0  0  0  0  0
    9.8623   33.6640   73.1640 H   0  0  0  0  0  0
   10.8535   35.4648   74.5232 H   0  0  0  0  0  0
  1  2  1  0  0  0
  1  4  1  0  0  0
  1  5  1  0  0  0
  1 26  1  0  0  0
  2  6  2  0  0  0
  2  8  1  0  0  0
  3  4  1  0  0  0
  3 17  1  0  0  0
  3  7  1  0  0  0
  4 27  1  0  0  0
  4 28  1  0  0  0
  5  7  1  0  0  0
  5 29  1  0  0  0
  5 30  1  0  0  0
  7 31  1  0  0  0
  7 32  1  0  0  0
  8 20  1  0  0  0
  9 12  2  0  0  0
  9 10  1  0  0  0
  9 13  1  0  0  0
 10 16  1  0  0  0
 10 33  1  0  0  0
 10 34  1  0  0  0
 11 18  1  0  0  0
 11 14  1  0  0  0
 11 15  2  0  0  0
 12 15  1  0  0  0
 12 35  1  0  0  0
 13 14  2  0  0  0
 13 36  1  0  0  0
 14 37  1  0  0  0
 15 38  1  0  0  0
 16 21  2  0  0  0
 16 22  1  0  0  0
 17 19  1  0  0  0
 17 39  1  0  0  0
 17 40  1  0  0  0
 18 19  1  0  0  0
 19 41  1  0  0  0
 19 42  1  0  0  0
 20 43  1  0  0  0
 20 44  1  0  0  0
 20 45  1  0  0  0
 21 23  1  0  0  0
 21 46  1  0  0  0
 22 24  2  0  0  0
 22 47  1  0  0  0
 23 25  2  0  0  0
 23 48  1  0  0  0
 24 25  1  0  0  0
 24 49  1  0  0  0
 25 50  1  0  0  0
M  END
> <s_m_entry_id>
6783

> <s_m_entry_name>
dock_pv.213

> <s_m_Source_Path>
/home/csk/Desktop/cluster/DUD-E-result/lkha4

> <s_m_Source_File>
dock_pv.maegz

> <i_m_Source_File_Index>
213

> <chembl_id>
CHEMBL112323

> <chembl_pref_name>
None

> <i_lp_mmshare_version>
53161

> <i_f3d_flags>
0

> <r_lp_tautomer_probability>
1

> <s_lp_Force_Field>
OPLS_2005

> <r_lp_Energy>
31.966278

> <b_lp_Chiralities_Consistent>
1

> <s_lp_Variant>
CHEMBL4618_lig33-2

> <s_i_glide_gridfile>
glide-grid_3chp

> <i_i_glide_lignum>
46

> <i_i_glide_rotatable_bonds>
8

> <r_i_docking_score>
-9.34441588204237

> <r_i_glide_ligand_efficiency>
-0.373776635281695

> <r_i_glide_ligand_efficiency_sa>
-1.09292951052053

> <r_i_glide_ligand_efficiency_ln>
-2.21490659359103

> <r_i_glide_gscore>
-9.34441588204237

> <r_i_glide_lipo>
-5.14783082280931

> <r_i_glide_hbond>
-0.202602234876818

> <r_i_glide_metal>
0

> <r_i_glide_rewards>
-1.97875360087497

> <r_i_glide_evdw>
-40.0353584289551

> <r_i_glide_ecoul>
-7.0885181427002

> <r_i_glide_erotb>
1.14981641937151

> <r_i_glide_esite>
-0.1

> <r_i_glide_emodel>
-69.6999498999336

> <r_i_glide_energy>
-47.1238765716553

> <r_i_glide_einternal>
8.04266738891602

> <i_i_glide_confnum>
119

> <i_i_glide_posenum>
110

> <r_i_glide_eff_state_penalty>
0

> <s_user_duplicate_titles>
CHEMBL4618_lig33

> <s_m_subgroup_title>
dock_pv

> <s_m_subgroupid>
dock_pv

> <b_m_subgroup_collapsed>
1

$$$$
CHEMBL4618_lig501
                    3D
 Schrodinger Suite 2021-1.
 47 47  0  0  1  0            999 V2000
    8.1207   39.3843   68.7766 C   0  0  0  0  0  0
    8.2414   38.3828   69.9068 C   0  0  0  0  0  0
   14.8774   42.5667   64.9568 C   0  0  0  0  0  0
    8.9264   36.4809   71.8999 C   0  0  0  0  0  0
    9.4218   35.5352   72.8396 N   0  0  0  0  0  0
    8.1224   39.0029   67.6066 O   0  0  0  0  0  0
   15.5526   43.0159   65.8885 O   0  0  0  0  0  0
    8.1425   37.0159   69.6464 C   0  0  0  0  0  0
    8.5312   38.7754   71.2156 C   0  0  0  0  0  0
    8.5067   36.0951   70.6276 C   0  0  0  0  0  0
    8.8738   37.8421   72.1877 C   0  0  0  0  0  0
    8.0398   40.6827   69.1275 N   0  0  0  0  0  0
   15.3920   41.8409   63.9400 N   0  0  0  0  0  0
   16.7700   41.5594   63.9402 O   0  0  0  0  0  0
   13.3622   42.8304   64.9252 C   0  0  0  0  0  0
    9.8930   34.2294   72.3714 C   0  0  0  0  0  0
    9.9457   35.9889   74.1295 C   0  0  0  0  0  0
    7.8139   41.8310   68.2420 C   0  0  0  0  0  0
   12.6349   42.5613   66.2746 C   0  0  0  0  0  0
    8.7798   42.0134   67.0455 C   0  0  0  0  0  0
   11.1108   42.3976   66.0943 C   0  0  0  0  0  0
   10.2803   42.1822   67.3779 C   0  0  0  0  0  0
    7.8970   36.6547   68.6573 H   0  0  0  0  0  0
    8.5400   39.8160   71.4958 H   0  0  0  0  0  0
    8.5210   35.0589   70.3476 H   0  0  0  0  0  0
    9.1619   38.2159   73.1498 H   0  0  0  0  0  0
    7.8839   40.8655   70.1087 H   0  0  0  0  0  0
   14.9289   41.5548   63.0707 H   0  0  0  0  0  0
   17.1329   42.2040   63.3072 H   0  0  0  0  0  0
   13.2031   43.8639   64.6146 H   0  0  0  0  0  0
   12.9213   42.2104   64.1436 H   0  0  0  0  0  0
    9.1221   33.6979   71.8139 H   0  0  0  0  0  0
   10.7470   34.3551   71.7044 H   0  0  0  0  0  0
   10.2046   33.5869   73.1962 H   0  0  0  0  0  0
   10.8478   36.5848   73.9840 H   0  0  0  0  0  0
    9.2205   36.6125   74.6534 H   0  0  0  0  0  0
   10.1975   35.1523   74.7825 H   0  0  0  0  0  0
    7.9012   42.7101   68.8821 H   0  0  0  0  0  0
    6.7788   41.8176   67.8957 H   0  0  0  0  0  0
   13.0264   41.6548   66.7394 H   0  0  0  0  0  0
   12.8393   43.3766   66.9714 H   0  0  0  0  0  0
    8.4478   42.8932   66.4915 H   0  0  0  0  0  0
    8.6540   41.1856   66.3480 H   0  0  0  0  0  0
   10.7196   43.2612   65.5531 H   0  0  0  0  0  0
   10.9415   41.5303   65.4625 H   0  0  0  0  0  0
   10.6337   41.2929   67.9015 H   0  0  0  0  0  0
   10.4213   43.0224   68.0585 H   0  0  0  0  0  0
  1  2  1  0  0  0
  1  6  2  0  0  0
  1 12  1  0  0  0
  2  8  1  0  0  0
  2  9  2  0  0  0
  3 15  1  0  0  0
  3  7  2  0  0  0
  3 13  1  0  0  0
  4 11  2  0  0  0
  4  5  1  0  0  0
  4 10  1  0  0  0
  5 16  1  0  0  0
  5 17  1  0  0  0
  8 10  2  0  0  0
  8 23  1  0  0  0
  9 11  1  0  0  0
  9 24  1  0  0  0
 10 25  1  0  0  0
 11 26  1  0  0  0
 12 18  1  0  0  0
 12 27  1  0  0  0
 13 14  1  0  0  0
 13 28  1  0  0  0
 14 29  1  0  0  0
 15 19  1  0  0  0
 15 30  1  0  0  0
 15 31  1  0  0  0
 16 32  1  0  0  0
 16 33  1  0  0  0
 16 34  1  0  0  0
 17 35  1  0  0  0
 17 36  1  0  0  0
 17 37  1  0  0  0
 18 20  1  0  0  0
 18 38  1  0  0  0
 18 39  1  0  0  0
 19 21  1  0  0  0
 19 40  1  0  0  0
 19 41  1  0  0  0
 20 22  1  0  0  0
 20 42  1  0  0  0
 20 43  1  0  0  0
 21 22  1  0  0  0
 21 44  1  0  0  0
 21 45  1  0  0  0
 22 46  1  0  0  0
 22 47  1  0  0  0
M  END
> <s_m_entry_id>
6784

> <s_m_entry_name>
dock_pv.214

> <s_m_Source_Path>
/home/csk/Desktop/cluster/DUD-E-result/lkha4

> <s_m_Source_File>
dock_pv.maegz

> <i_m_Source_File_Index>
214

> <chembl_id>
CHEMBL140000

> <chembl_pref_name>
None

> <i_lp_mmshare_version>
53161

> <i_f3d_flags>
0

> <r_lp_tautomer_probability>
1

> <s_lp_Force_Field>
OPLS_2005

> <r_lp_Energy>
17.585429

> <b_lp_Chiralities_Consistent>
1

> <s_lp_Variant>
CHEMBL4618_lig501-1

> <s_i_glide_gridfile>
glide-grid_3chp

> <i_i_glide_lignum>
601

> <i_i_glide_rotatable_bonds>
12

> <r_i_docking_score>
-9.34365962386653

> <r_i_glide_ligand_efficiency>
-0.424711801084842

> <r_i_glide_ligand_efficiency_sa>
-1.19005916960704

> <r_i_glide_ligand_efficiency_ln>
-2.28393123033871

> <r_i_glide_gscore>
-9.34365962386653

> <r_i_glide_lipo>
-4.16675856593286

> <r_i_glide_hbond>
-0.554927495148708

> <r_i_glide_metal>
0

> <r_i_glide_rewards>
-2.02739355782047

> <r_i_glide_evdw>
-43.6610260009766

> <r_i_glide_ecoul>
-14.5005388259888

> <r_i_glide_erotb>
1.95645986344681

> <r_i_glide_esite>
-0.192907744464163

> <r_i_glide_emodel>
-88.6539229910875

> <r_i_glide_energy>
-58.1615648269653

> <r_i_glide_einternal>
6.09668016433716

> <i_i_glide_confnum>
23

> <i_i_glide_posenum>
312

> <r_i_glide_eff_state_penalty>
0

> <s_user_duplicate_titles>
CHEMBL4618_lig501

> <s_m_subgroup_title>
dock_pv

> <s_m_subgroupid>
dock_pv

> <b_m_subgroup_collapsed>
1

$$$$
CHEMBL4618_lig505 
                    3D
 Schrodinger Suite 2021-1.
 49 51  0  0  1  0            999 V2000
    8.5209   35.9340   71.1071 C   0  0  0  0  0  0
    8.9232   36.6485   72.2253 C   0  0  0  0  0  0
    8.9209   38.0349   72.1928 C   0  0  0  0  0  0
    8.5275   38.7131   71.0442 C   0  0  0  0  0  0
    8.1202   38.0077   69.9102 C   0  0  0  0  0  0
    8.1058   36.6159   69.9586 C   0  0  0  0  0  0
    7.6861   38.6314   68.7576 O   0  0  0  0  0  0
    8.3799   39.7114   68.2610 C   0  0  0  0  0  0
    9.3208   39.5108   67.2545 C   0  0  0  0  0  0
   10.0702   40.5763   66.7597 C   0  0  0  0  0  0
    9.8485   41.8648   67.2486 C   0  0  0  0  0  0
    8.8544   42.0734   68.2124 C   0  0  0  0  0  0
    8.1200   41.0036   68.7150 C   0  0  0  0  0  0
   10.7133   43.0611   66.8585 C   0  0  0  0  0  0
   11.4883   43.0334   65.5387 C   0  0  0  0  0  0
   12.7871   42.6847   65.5400 N   0  0  0  0  0  0
   10.9211   43.4160   64.5193 O   0  0  0  0  0  0
   13.6231   42.8097   64.3369 C   0  0  0  0  0  0
   15.0385   42.2094   64.4398 C   0  0  0  0  0  0
   16.0627   42.9080   65.3394 C   0  0  0  0  0  0
   15.7009   43.8159   66.3400 C   0  0  0  0  0  0
   16.6758   44.4025   67.1407 C   0  0  0  0  0  0
   18.0267   44.0995   66.9478 C   0  0  0  0  0  0
   18.3913   43.2089   65.9354 C   0  0  0  0  0  0
   17.4140   42.6200   65.1399 C   0  0  0  0  0  0
   19.0995   44.7409   67.8245 C   0  0  0  0  0  0
   18.6711   45.8826   68.3676 F   0  0  0  0  0  0
   19.4235   43.9066   68.8113 F   0  0  0  0  0  0
   20.1982   45.0157   67.1199 F   0  0  0  0  0  0
    8.5106   34.8548   71.1401 H   0  0  0  0  0  0
    9.2296   36.1281   73.1210 H   0  0  0  0  0  0
    9.2218   38.5957   73.0629 H   0  0  0  0  0  0
    8.5213   39.7916   71.0526 H   0  0  0  0  0  0
    7.7696   36.0568   69.0987 H   0  0  0  0  0  0
    9.4754   38.5153   66.8731 H   0  0  0  0  0  0
   10.8255   40.3827   66.0111 H   0  0  0  0  0  0
    8.6608   43.0658   68.5937 H   0  0  0  0  0  0
    7.3607   41.1751   69.4647 H   0  0  0  0  0  0
   11.3821   43.2999   67.6845 H   0  0  0  0  0  0
   10.0235   43.8944   66.7413 H   0  0  0  0  0  0
   13.2213   42.3606   66.3899 H   0  0  0  0  0  0
   13.7289   43.8812   64.1513 H   0  0  0  0  0  0
   13.1328   42.4245   63.4411 H   0  0  0  0  0  0
   15.4465   42.2140   63.4263 H   0  0  0  0  0  0
   14.9543   41.1585   64.7154 H   0  0  0  0  0  0
   14.6697   44.0790   66.5161 H   0  0  0  0  0  0
   16.3679   45.0807   67.9229 H   0  0  0  0  0  0
   19.4313   42.9778   65.7490 H   0  0  0  0  0  0
   17.7244   41.9750   64.3310 H   0  0  0  0  0  0
  1  2  2  0  0  0
  1  6  1  0  0  0
  1 30  1  0  0  0
  2  3  1  0  0  0
  2 31  1  0  0  0
  3  4  2  0  0  0
  3 32  1  0  0  0
  4  5  1  0  0  0
  4 33  1  0  0  0
  5  6  2  0  0  0
  5  7  1  0  0  0
  6 34  1  0  0  0
  7  8  1  0  0  0
  8  9  2  0  0  0
  8 13  1  0  0  0
  9 10  1  0  0  0
  9 35  1  0  0  0
 10 11  2  0  0  0
 10 36  1  0  0  0
 11 12  1  0  0  0
 11 14  1  0  0  0
 12 13  2  0  0  0
 12 37  1  0  0  0
 13 38  1  0  0  0
 14 15  1  0  0  0
 14 39  1  0  0  0
 14 40  1  0  0  0
 15 16  1  0  0  0
 15 17  2  0  0  0
 16 18  1  0  0  0
 16 41  1  0  0  0
 18 19  1  0  0  0
 18 42  1  0  0  0
 18 43  1  0  0  0
 19 20  1  0  0  0
 19 44  1  0  0  0
 19 45  1  0  0  0
 20 21  2  0  0  0
 20 25  1  0  0  0
 21 22  1  0  0  0
 21 46  1  0  0  0
 22 23  2  0  0  0
 22 47  1  0  0  0
 23 24  1  0  0  0
 23 26  1  0  0  0
 24 25  2  0  0  0
 24 48  1  0  0  0
 25 49  1  0  0  0
 26 27  1  0  0  0
 26 28  1  0  0  0
 26 29  1  0  0  0
M  END
> <s_m_entry_id>
6785

> <s_m_entry_name>
dock_pv.215

> <s_m_Source_Path>
/home/csk/Desktop/cluster/DUD-E-result/lkha4

> <s_m_Source_File>
dock_pv.maegz

> <i_m_Source_File_Index>
215

> <chembl_id>
CHEMBL4536499

> <chembl_pref_name>
None

> <i_lp_mmshare_version>
53161

> <i_f3d_flags>
0

> <r_lp_tautomer_probability>
1

> <s_lp_Force_Field>
OPLS_2005

> <r_lp_Energy>
19.783526

> <b_lp_Chiralities_Consistent>
1

> <s_lp_Variant>
CHEMBL4618_lig505 -1

> <s_i_glide_gridfile>
glide-grid_3chp

> <i_i_glide_lignum>
605

> <i_i_glide_rotatable_bonds>
9

> <r_i_docking_score>
-9.33896771475078

> <r_i_glide_ligand_efficiency>
-0.322033369474165

> <r_i_glide_ligand_efficiency_sa>
-0.989388538357262

> <r_i_glide_ligand_efficiency_ln>
-2.13838679088971

> <r_i_glide_gscore>
-9.33896771475078

> <r_i_glide_lipo>
-4.60680662206464

> <r_i_glide_hbond>
-0.0819328865486471

> <r_i_glide_metal>
0

> <r_i_glide_rewards>
-1.58581385249432

> <r_i_glide_evdw>
-51.903003692627

> <r_i_glide_ecoul>
-8.46629619598389

> <r_i_glide_erotb>
0.982626553896933

> <r_i_glide_esite>
-0.181946293511169

> <r_i_glide_emodel>
-78.1948305536124

> <r_i_glide_energy>
-60.3692998886108

> <r_i_glide_einternal>
12.6883516311646

> <i_i_glide_confnum>
11

> <i_i_glide_posenum>
352

> <r_i_glide_eff_state_penalty>
0

> <s_user_duplicate_titles>
CHEMBL4618_lig505 

> <s_m_subgroup_title>
dock_pv

> <s_m_subgroupid>
dock_pv

> <b_m_subgroup_collapsed>
1

$$$$
CHEMBL4618_lig9
                    3D
 Schrodinger Suite 2021-1.
 54 56  0  0  1  0            999 V2000
   15.7525   42.3226   64.0130 C   0  0  2  0  0  0
   16.5833   42.7161   65.2440 C   0  0  0  0  0  0
   14.1769   42.3221   64.1783 C   0  0  2  0  0  0
   16.5210   44.0368   65.5431 O   0  0  0  0  0  0
   13.5082   43.1824   65.3065 C   0  0  0  0  0  0
   17.2306   41.8785   65.8737 O   0  0  0  0  0  0
    8.3602   41.7064   67.3288 O   0  0  0  0  0  0
   16.2365   41.0651   63.5400 O   0  0  0  0  0  0
   13.7210   40.9589   64.3400 N   0  0  0  0  0  0
   12.0943   42.7570   65.7531 C   0  0  0  0  0  0
    9.5857   42.0066   66.7705 C   0  0  0  0  0  0
   16.9902   44.5581   66.7920 C   0  0  0  0  0  0
    8.3401   41.3852   68.7319 C   0  0  0  0  0  0
   11.9438   41.6046   66.5175 C   0  0  0  0  0  0
   10.9590   43.4927   65.4345 C   0  0  0  0  0  0
    9.7101   43.1231   65.9404 C   0  0  0  0  0  0
   10.7074   41.2196   67.0167 C   0  0  0  0  0  0
   18.4805   44.3485   67.0718 C   0  0  0  0  0  0
    8.3475   39.8788   69.0263 C   0  0  0  0  0  0
    8.5210   39.4160   70.3378 C   0  0  0  0  0  0
    8.1215   38.9517   68.0135 C   0  0  0  0  0  0
   19.4156   44.2160   66.0378 C   0  0  0  0  0  0
   18.8965   44.2550   68.4028 C   0  0  0  0  0  0
    7.9869   37.6093   68.3315 C   0  0  0  0  0  0
   20.7493   43.9550   66.3400 C   0  0  0  0  0  0
   20.2331   44.0056   68.7022 C   0  0  0  0  0  0
    8.4078   38.0670   70.6524 C   0  0  0  0  0  0
    8.1210   37.1621   69.6407 C   0  0  0  0  0  0
   21.1537   43.8528   67.6685 C   0  0  0  0  0  0
   16.0216   43.0160   63.2226 H   0  0  0  0  0  0
   13.7555   42.6574   63.2275 H   0  0  0  0  0  0
   14.1033   43.1346   66.2181 H   0  0  0  0  0  0
   13.5204   44.2360   65.0253 H   0  0  0  0  0  0
   15.8776   41.0122   62.6255 H   0  0  0  0  0  0
   12.7285   40.9488   64.5407 H   0  0  0  0  0  0
   13.8741   40.4554   63.4704 H   0  0  0  0  0  0
   16.4050   44.1013   67.5920 H   0  0  0  0  0  0
   16.7793   45.6252   66.8233 H   0  0  0  0  0  0
    9.1505   41.8883   69.2603 H   0  0  0  0  0  0
    7.4154   41.7960   69.1399 H   0  0  0  0  0  0
   12.8187   41.0160   66.7400 H   0  0  0  0  0  0
   11.0626   44.3818   64.8394 H   0  0  0  0  0  0
    8.8438   43.7331   65.7358 H   0  0  0  0  0  0
   10.6336   40.3280   67.6195 H   0  0  0  0  0  0
    8.6664   40.1114   71.1421 H   0  0  0  0  0  0
    8.0253   39.2628   66.9841 H   0  0  0  0  0  0
   19.1118   44.2758   65.0007 H   0  0  0  0  0  0
   18.1800   44.3426   69.2074 H   0  0  0  0  0  0
    7.7681   36.9292   67.5400 H   0  0  0  0  0  0
   21.4650   43.8160   65.5421 H   0  0  0  0  0  0
   20.5482   43.9011   69.7297 H   0  0  0  0  0  0
    8.5101   37.7324   71.6743 H   0  0  0  0  0  0
    8.0088   36.1115   69.8682 H   0  0  0  0  0  0
   22.1876   43.6353   67.8947 H   0  0  0  0  0  0
  1  2  1  0  0  0
  1  3  1  0  0  0
  1  8  1  0  0  0
  1 30  1  0  0  0
  2  4  1  0  0  0
  2  6  2  0  0  0
  3  5  1  0  0  0
  3  9  1  0  0  0
  3 31  1  0  0  0
  4 12  1  0  0  0
  5 10  1  0  0  0
  5 32  1  0  0  0
  5 33  1  0  0  0
  7 11  1  0  0  0
  7 13  1  0  0  0
  8 34  1  0  0  0
  9 35  1  0  0  0
  9 36  1  0  0  0
 10 14  1  0  0  0
 10 15  2  0  0  0
 11 16  2  0  0  0
 11 17  1  0  0  0
 12 18  1  0  0  0
 12 37  1  0  0  0
 12 38  1  0  0  0
 13 19  1  0  0  0
 13 39  1  0  0  0
 13 40  1  0  0  0
 14 17  2  0  0  0
 14 41  1  0  0  0
 15 16  1  0  0  0
 15 42  1  0  0  0
 16 43  1  0  0  0
 17 44  1  0  0  0
 18 22  2  0  0  0
 18 23  1  0  0  0
 19 20  1  0  0  0
 19 21  2  0  0  0
 20 27  2  0  0  0
 20 45  1  0  0  0
 21 24  1  0  0  0
 21 46  1  0  0  0
 22 25  1  0  0  0
 22 47  1  0  0  0
 23 26  2  0  0  0
 23 48  1  0  0  0
 24 28  2  0  0  0
 24 49  1  0  0  0
 25 29  2  0  0  0
 25 50  1  0  0  0
 26 29  1  0  0  0
 26 51  1  0  0  0
 27 28  1  0  0  0
 27 52  1  0  0  0
 28 53  1  0  0  0
 29 54  1  0  0  0
M  END
> <s_m_entry_id>
6786

> <s_m_entry_name>
dock_pv.216

> <s_m_Source_Path>
/home/csk/Desktop/cluster/DUD-E-result/lkha4

> <s_m_Source_File>
dock_pv.maegz

> <i_m_Source_File_Index>
216

> <chembl_id>
CHEMBL68478

> <chembl_pref_name>
None

> <i_lp_mmshare_version>
53161

> <i_f3d_flags>
0

> <r_lp_tautomer_probability>
1

> <s_lp_Force_Field>
OPLS_2005

> <r_lp_Energy>
29.057275

> <b_lp_Chiralities_Consistent>
1

> <s_lp_Variant>
CHEMBL4618_lig9-1

> <s_i_glide_gridfile>
glide-grid_3chp

> <i_i_glide_lignum>
9

> <i_i_glide_rotatable_bonds>
11

> <r_i_docking_score>
-9.33224168082662

> <r_i_glide_ligand_efficiency>
-0.321801437269884

> <r_i_glide_ligand_efficiency_sa>
-0.98867596914443

> <r_i_glide_ligand_efficiency_ln>
-2.13684669967858

> <r_i_glide_gscore>
-9.33224168082662

> <r_i_glide_lipo>
-4.43806361211898

> <r_i_glide_hbond>
-0.433978429244447

> <r_i_glide_metal>
0

> <r_i_glide_rewards>
-1.01340536996339

> <r_i_glide_evdw>
-39.8954086303711

> <r_i_glide_ecoul>
-16.6543579101562

> <r_i_glide_erotb>
1.14612984854218

> <r_i_glide_esite>
-0.1

> <r_i_glide_emodel>
-85.4136315636898

> <r_i_glide_energy>
-56.5497665405273

> <r_i_glide_einternal>
17.3778057098389

> <i_i_glide_confnum>
24

> <i_i_glide_posenum>
253

> <r_i_glide_eff_state_penalty>
0

> <s_user_duplicate_titles>
CHEMBL4618_lig9,110997

> <s_m_subgroup_title>
dock_pv

> <s_m_subgroupid>
dock_pv

> <b_m_subgroup_collapsed>
1

$$$$
CHEMBL4618_lig28
                    3D
 Schrodinger Suite 2021-1.
 48 50  0  0  1  0            999 V2000
   13.9043   42.3348   64.4165 C   0  0  1  0  0  0
   15.4398   42.1791   64.5412 C   0  0  0  0  0  0
   11.8235   42.4316   65.5368 N   0  0  2  0  0  0
   13.0768   41.6729   65.5380 C   0  0  0  0  0  0
   13.3771   43.7857   64.3550 C   0  0  0  0  0  0
   16.0374   42.5563   65.5418 O   0  0  0  0  0  0
   12.2484   43.8137   65.3792 C   0  0  0  0  0  0
   16.1235   41.6320   63.5405 N   0  0  0  0  0  0
    8.0885   37.7559   69.8300 C   0  0  0  0  0  0
    7.7303   36.6945   70.8598 C   0  0  0  0  0  0
    8.6488   39.7213   67.9283 C   0  0  0  0  0  0
    8.1213   37.4323   68.4715 C   0  0  0  0  0  0
    8.2670   39.0812   70.2062 C   0  0  0  0  0  0
    8.5165   40.0717   69.2623 C   0  0  0  0  0  0
    8.4379   38.4050   67.5253 C   0  0  0  0  0  0
    8.8074   36.2506   71.8579 C   0  0  0  0  0  0
   10.8803   42.2266   66.6367 C   0  0  0  0  0  0
    9.0184   40.6857   67.0262 O   0  0  0  0  0  0
   10.4278   40.7584   66.8101 C   0  0  0  0  0  0
    9.2444   34.9295   71.8893 C   0  0  0  0  0  0
    9.2704   37.1391   72.8174 C   0  0  0  0  0  0
   10.1192   34.4741   72.8776 C   0  0  0  0  0  0
   10.1297   36.6939   73.8301 C   0  0  0  0  0  0
   10.5191   35.3596   73.8717 C   0  0  0  0  0  0
   13.6216   41.8685   63.4751 H   0  0  0  0  0  0
   12.8366   40.6236   65.3354 H   0  0  0  0  0  0
   13.5289   41.7158   66.5281 H   0  0  0  0  0  0
   14.1210   44.5223   64.6649 H   0  0  0  0  0  0
   13.0296   44.0478   63.3549 H   0  0  0  0  0  0
   12.5643   44.2154   66.3382 H   0  0  0  0  0  0
   11.3998   44.4219   65.0737 H   0  0  0  0  0  0
   17.1124   41.8468   63.4828 H   0  0  0  0  0  0
   15.6372   41.4293   62.6563 H   0  0  0  0  0  0
    6.9204   37.0975   71.4570 H   0  0  0  0  0  0
    7.3275   35.8244   70.3389 H   0  0  0  0  0  0
    7.9475   36.4098   68.1751 H   0  0  0  0  0  0
    8.1739   39.3777   71.2415 H   0  0  0  0  0  0
    8.6442   41.1034   69.5377 H   0  0  0  0  0  0
    8.5336   38.1489   66.4803 H   0  0  0  0  0  0
   11.3168   42.5937   67.5684 H   0  0  0  0  0  0
   10.0009   42.8477   66.4477 H   0  0  0  0  0  0
   10.6587   40.1454   65.9406 H   0  0  0  0  0  0
   10.9863   40.3400   67.6450 H   0  0  0  0  0  0
    8.8981   34.2309   71.1401 H   0  0  0  0  0  0
    8.9310   38.1644   72.8431 H   0  0  0  0  0  0
   10.4459   33.4472   72.9007 H   0  0  0  0  0  0
   10.4757   37.3780   74.5846 H   0  0  0  0  0  0
   11.1635   35.0163   74.6678 H   0  0  0  0  0  0
  1  2  1  0  0  0
  1  4  1  0  0  0
  1  5  1  0  0  0
  1 25  1  0  0  0
  2  6  2  0  0  0
  2  8  1  0  0  0
  3  4  1  0  0  0
  3 17  1  0  0  0
  3  7  1  0  0  0
  4 26  1  0  0  0
  4 27  1  0  0  0
  5  7  1  0  0  0
  5 28  1  0  0  0
  5 29  1  0  0  0
  7 30  1  0  0  0
  7 31  1  0  0  0
  8 32  1  0  0  0
  8 33  1  0  0  0
  9 12  2  0  0  0
  9 10  1  0  0  0
  9 13  1  0  0  0
 10 16  1  0  0  0
 10 34  1  0  0  0
 10 35  1  0  0  0
 11 18  1  0  0  0
 11 14  1  0  0  0
 11 15  2  0  0  0
 12 15  1  0  0  0
 12 36  1  0  0  0
 13 14  2  0  0  0
 13 37  1  0  0  0
 14 38  1  0  0  0
 15 39  1  0  0  0
 16 20  2  0  0  0
 16 21  1  0  0  0
 17 19  1  0  0  0
 17 40  1  0  0  0
 17 41  1  0  0  0
 18 19  1  0  0  0
 19 42  1  0  0  0
 19 43  1  0  0  0
 20 22  1  0  0  0
 20 44  1  0  0  0
 21 23  2  0  0  0
 21 45  1  0  0  0
 22 24  2  0  0  0
 22 46  1  0  0  0
 23 24  1  0  0  0
 23 47  1  0  0  0
 24 48  1  0  0  0
M  END
> <s_m_entry_id>
6787

> <s_m_entry_name>
dock_pv.217

> <s_m_Source_Path>
/home/csk/Desktop/cluster/DUD-E-result/lkha4

> <s_m_Source_File>
dock_pv.maegz

> <i_m_Source_File_Index>
217

> <chembl_id>
CHEMBL115445

> <chembl_pref_name>
None

> <i_lp_mmshare_version>
53161

> <i_f3d_flags>
0

> <r_lp_tautomer_probability>
1

> <s_lp_Force_Field>
OPLS_2005

> <r_lp_Energy>
34.319293

> <b_lp_Chiralities_Consistent>
1

> <s_lp_Variant>
CHEMBL4618_lig28-2

> <s_i_glide_gridfile>
glide-grid_3chp

> <i_i_glide_lignum>
39

> <i_i_glide_rotatable_bonds>
7

> <r_i_docking_score>
-9.32456957019721

> <r_i_glide_ligand_efficiency>
-0.38852373209155

> <r_i_glide_ligand_efficiency_sa>
-1.12069637013933

> <r_i_glide_ligand_efficiency_ln>
-2.23179737476495

> <r_i_glide_gscore>
-9.32456957019721

> <r_i_glide_lipo>
-5.49312911352556

> <r_i_glide_hbond>
-0.44469466009962

> <r_i_glide_metal>
0

> <r_i_glide_rewards>
-0.0104532322040418

> <r_i_glide_evdw>
-44.6753768920898

> <r_i_glide_ecoul>
-13.4010372161865

> <r_i_glide_erotb>
1.06763186266448

> <r_i_glide_esite>
-0.2

> <r_i_glide_emodel>
-73.9018645892587

> <r_i_glide_energy>
-58.0764141082764

> <r_i_glide_einternal>
11.6906957626343

> <i_i_glide_confnum>
52

> <i_i_glide_posenum>
131

> <r_i_glide_eff_state_penalty>
0

> <s_user_duplicate_titles>
CHEMBL4618_lig28

> <s_m_subgroup_title>
dock_pv

> <s_m_subgroupid>
dock_pv

> <b_m_subgroup_collapsed>
1

$$$$
CHEMBL4618_lig276
                    3D
 Schrodinger Suite 2021-1.
 46 49  0  0  1  0            999 V2000
   10.4197   35.7557   73.7630 C   0  0  0  0  0  0
   10.0043   34.6158   73.0835 C   0  0  0  0  0  0
    9.2084   34.7098   71.9400 C   0  0  0  0  0  0
   10.1209   37.0294   73.2817 C   0  0  0  0  0  0
    9.3677   37.1354   72.1030 C   0  0  0  0  0  0
    8.8695   35.9803   71.4534 C   0  0  0  0  0  0
    8.1210   36.2161   70.3410 N   0  0  0  0  0  0
    8.1213   37.4750   70.0244 C   0  0  0  0  0  0
    8.9210   38.5457   71.1504 S   0  0  0  0  0  0
    7.5753   37.9660   68.8629 O   0  0  0  0  0  0
    8.0139   39.1606   68.3400 C   0  0  0  0  0  0
    8.9433   39.1246   67.3144 C   0  0  0  0  0  0
    9.3906   40.3062   66.7400 C   0  0  0  0  0  0
    8.8675   41.5363   67.1397 C   0  0  0  0  0  0
    7.9450   41.5788   68.1847 C   0  0  0  0  0  0
    7.5236   40.3912   68.7719 C   0  0  0  0  0  0
    9.1534   42.8015   66.3349 C   0  0  0  0  0  0
   10.5702   43.3970   66.3768 C   0  0  0  0  0  0
   11.5593   42.6449   65.6045 N   0  0  0  0  0  0
   12.3599   41.7854   66.4746 C   0  0  0  0  0  0
   13.2554   40.8702   65.6336 C   0  0  0  0  0  0
   14.2291   41.6864   64.7684 C   0  0  0  0  0  0
   13.4392   42.7199   63.9544 C   0  0  0  0  0  0
   12.4371   43.5235   64.8133 C   0  0  0  0  0  0
   11.0044   35.6475   74.6654 H   0  0  0  0  0  0
   10.2674   33.6420   73.4732 H   0  0  0  0  0  0
    8.8522   33.8187   71.4463 H   0  0  0  0  0  0
   10.4929   37.9042   73.7932 H   0  0  0  0  0  0
    9.3210   38.1775   66.9631 H   0  0  0  0  0  0
   10.1077   40.2521   65.9400 H   0  0  0  0  0  0
    7.5022   42.5144   68.5001 H   0  0  0  0  0  0
    6.7776   40.4148   69.5400 H   0  0  0  0  0  0
    8.4590   43.5766   66.6652 H   0  0  0  0  0  0
    8.8892   42.6177   65.2961 H   0  0  0  0  0  0
   10.8904   43.5513   67.4076 H   0  0  0  0  0  0
   10.4676   44.3791   65.9273 H   0  0  0  0  0  0
   11.7297   41.1753   67.1183 H   0  0  0  0  0  0
   12.9534   42.4149   67.1397 H   0  0  0  0  0  0
   12.6433   40.2045   65.0241 H   0  0  0  0  0  0
   13.7868   40.2160   66.3131 H   0  0  0  0  0  0
   14.9526   42.2002   65.4023 H   0  0  0  0  0  0
   14.7913   41.0333   64.0999 H   0  0  0  0  0  0
   14.1214   43.4131   63.4648 H   0  0  0  0  0  0
   12.9210   42.2237   63.1400 H   0  0  0  0  0  0
   11.8206   44.1319   64.1529 H   0  0  0  0  0  0
   12.9602   44.2163   65.4745 H   0  0  0  0  0  0
  1  2  2  0  0  0
  1  4  1  0  0  0
  1 25  1  0  0  0
  2  3  1  0  0  0
  2 26  1  0  0  0
  3  6  2  0  0  0
  3 27  1  0  0  0
  4  5  2  0  0  0
  4 28  1  0  0  0
  5  9  1  0  0  0
  5  6  1  0  0  0
  6  7  1  0  0  0
  7  8  2  0  0  0
  8  9  1  0  0  0
  8 10  1  0  0  0
 10 11  1  0  0  0
 11 12  2  0  0  0
 11 16  1  0  0  0
 12 13  1  0  0  0
 12 29  1  0  0  0
 13 14  2  0  0  0
 13 30  1  0  0  0
 14 15  1  0  0  0
 14 17  1  0  0  0
 15 16  2  0  0  0
 15 31  1  0  0  0
 16 32  1  0  0  0
 17 18  1  0  0  0
 17 33  1  0  0  0
 17 34  1  0  0  0
 18 19  1  0  0  0
 18 35  1  0  0  0
 18 36  1  0  0  0
 19 20  1  0  0  0
 19 24  1  0  0  0
 20 21  1  0  0  0
 20 37  1  0  0  0
 20 38  1  0  0  0
 21 22  1  0  0  0
 21 39  1  0  0  0
 21 40  1  0  0  0
 22 23  1  0  0  0
 22 41  1  0  0  0
 22 42  1  0  0  0
 23 24  1  0  0  0
 23 43  1  0  0  0
 23 44  1  0  0  0
 24 45  1  0  0  0
 24 46  1  0  0  0
M  END
> <s_m_entry_id>
6789

> <s_m_entry_name>
dock_pv.219

> <s_m_Source_Path>
/home/csk/Desktop/cluster/DUD-E-result/lkha4

> <s_m_Source_File>
dock_pv.maegz

> <i_m_Source_File_Index>
219

> <chembl_id>
CHEMBL470753

> <chembl_pref_name>
None

> <i_lp_mmshare_version>
53161

> <i_f3d_flags>
0

> <r_lp_tautomer_probability>
1

> <s_lp_Force_Field>
OPLS_2005

> <r_lp_Energy>
28.070552

> <b_lp_Chiralities_Consistent>
1

> <s_lp_Variant>
CHEMBL4618_lig276-1

> <s_i_glide_gridfile>
glide-grid_3chp

> <i_i_glide_lignum>
314

> <i_i_glide_rotatable_bonds>
5

> <r_i_docking_score>
-9.31538206111498

> <r_i_glide_ligand_efficiency>
-0.388140919213124

> <r_i_glide_ligand_efficiency_sa>
-1.11959214672166

> <r_i_glide_ligand_efficiency_ln>
-2.22959838225426

> <r_i_glide_gscore>
-9.31538206111498

> <r_i_glide_lipo>
-5.61646954499087

> <r_i_glide_hbond>
0

> <r_i_glide_metal>
0

> <r_i_glide_rewards>
-2.00135809090909

> <r_i_glide_evdw>
-41.7523803710938

> <r_i_glide_ecoul>
-2.90245509147644

> <r_i_glide_erotb>
0.825432857061134

> <r_i_glide_esite>
0

> <r_i_glide_emodel>
-63.5220329668974

> <r_i_glide_energy>
-44.6548354625702

> <r_i_glide_einternal>
7.51545429229736

> <i_i_glide_confnum>
69

> <i_i_glide_posenum>
29

> <r_i_glide_eff_state_penalty>
0

> <s_user_duplicate_titles>
CHEMBL4618_lig276,466871

> <s_m_subgroup_title>
dock_pv

> <s_m_subgroupid>
dock_pv

> <b_m_subgroup_collapsed>
1

$$$$
CHEMBL4618_lig359
                    3D
 Schrodinger Suite 2021-1.
 44 46  0  0  1  0            999 V2000
    8.9185   35.4236   71.5612 C   0  0  0  0  0  0
    9.6307   36.0258   72.5964 C   0  0  0  0  0  0
    9.6322   37.4124   72.7285 C   0  0  0  0  0  0
    8.9158   38.1972   71.8228 C   0  0  0  0  0  0
    8.2133   37.6009   70.7782 C   0  0  0  0  0  0
    8.2202   36.2161   70.6510 C   0  0  0  0  0  0
    7.3496   38.4318   69.8391 C   0  0  0  0  0  0
    8.0897   39.3466   68.8726 C   0  0  0  0  0  0
    8.6603   38.8184   67.7161 C   0  0  0  0  0  0
    9.3204   39.6603   66.8250 C   0  0  0  0  0  0
    9.4204   41.0249   67.0852 C   0  0  0  0  0  0
    8.7794   41.5661   68.2008 C   0  0  0  0  0  0
    8.1211   40.7268   69.0872 C   0  0  0  0  0  0
   10.1568   41.7893   66.2116 O   0  0  0  0  0  0
   10.9213   42.8582   66.7670 C   0  0  0  0  0  0
   12.2322   43.0491   65.9851 C   0  0  1  0  0  0
   13.0236   41.7235   65.7818 C   0  0  0  0  0  0
   14.3023   41.8989   64.9508 C   0  0  0  0  0  0
   13.9977   42.6957   63.6851 C   0  0  0  0  0  0
   13.3210   44.0286   64.0273 C   0  0  0  0  0  0
   12.0722   43.8160   64.7455 N   0  0  2  0  0  0
   10.5206   35.0483   73.7108 Cl  0  0  0  0  0  0
    8.9032   34.3488   71.4636 H   0  0  0  0  0  0
   10.1743   37.8734   73.5398 H   0  0  0  0  0  0
    8.8707   39.2689   71.9352 H   0  0  0  0  0  0
    7.6703   35.7789   69.8363 H   0  0  0  0  0  0
    6.7001   37.7763   69.2590 H   0  0  0  0  0  0
    6.6902   39.0160   70.4698 H   0  0  0  0  0  0
    8.6150   37.7582   67.5154 H   0  0  0  0  0  0
    9.7847   39.2458   65.9419 H   0  0  0  0  0  0
    8.8006   42.6289   68.3899 H   0  0  0  0  0  0
    7.6576   41.1771   69.9400 H   0  0  0  0  0  0
   10.3185   43.7656   66.7401 H   0  0  0  0  0  0
   11.1756   42.6754   67.8128 H   0  0  0  0  0  0
   12.8538   43.7118   66.5926 H   0  0  0  0  0  0
   13.3094   41.2962   66.7402 H   0  0  0  0  0  0
   12.3953   40.9894   65.2759 H   0  0  0  0  0  0
   15.0572   42.4248   65.5356 H   0  0  0  0  0  0
   14.7220   40.9293   64.6899 H   0  0  0  0  0  0
   14.9220   42.8800   63.1398 H   0  0  0  0  0  0
   13.3535   42.1253   63.0162 H   0  0  0  0  0  0
   13.9786   44.6167   64.6682 H   0  0  0  0  0  0
   13.1387   44.6168   63.1314 H   0  0  0  0  0  0
   11.7030   44.7226   65.0031 H   0  0  0  0  0  0
  1  6  1  0  0  0
  1  2  2  0  0  0
  1 23  1  0  0  0
  2  3  1  0  0  0
  2 22  1  0  0  0
  3  4  2  0  0  0
  3 24  1  0  0  0
  4  5  1  0  0  0
  4 25  1  0  0  0
  5  6  2  0  0  0
  5  7  1  0  0  0
  6 26  1  0  0  0
  7  8  1  0  0  0
  7 27  1  0  0  0
  7 28  1  0  0  0
  8 13  1  0  0  0
  8  9  2  0  0  0
  9 10  1  0  0  0
  9 29  1  0  0  0
 10 11  2  0  0  0
 10 30  1  0  0  0
 11 12  1  0  0  0
 11 14  1  0  0  0
 12 13  2  0  0  0
 12 31  1  0  0  0
 13 32  1  0  0  0
 14 15  1  0  0  0
 15 16  1  0  0  0
 15 33  1  0  0  0
 15 34  1  0  0  0
 16 17  1  0  0  0
 16 21  1  0  0  0
 16 35  1  0  0  0
 17 18  1  0  0  0
 17 36  1  0  0  0
 17 37  1  0  0  0
 18 19  1  0  0  0
 18 38  1  0  0  0
 18 39  1  0  0  0
 19 20  1  0  0  0
 19 40  1  0  0  0
 19 41  1  0  0  0
 20 21  1  0  0  0
 20 42  1  0  0  0
 20 43  1  0  0  0
 21 44  1  0  0  0
M  END
> <s_m_entry_id>
6790

> <s_m_entry_name>
dock_pv.220

> <s_m_Source_Path>
/home/csk/Desktop/cluster/DUD-E-result/lkha4

> <s_m_Source_File>
dock_pv.maegz

> <i_m_Source_File_Index>
220

> <chembl_id>
CHEMBL1098168

> <chembl_pref_name>
None

> <i_lp_mmshare_version>
53161

> <i_f3d_flags>
0

> <r_lp_tautomer_probability>
1

> <s_lp_Force_Field>
OPLS_2005

> <r_lp_Energy>
23.425129

> <b_lp_Chiralities_Consistent>
1

> <s_lp_Variant>
CHEMBL4618_lig359-1

> <s_i_glide_gridfile>
glide-grid_3chp

> <i_i_glide_lignum>
405

> <i_i_glide_rotatable_bonds>
5

> <r_i_docking_score>
-9.31033351434387

> <r_i_glide_ligand_efficiency>
-0.423196977924721

> <r_i_glide_ligand_efficiency_sa>
-1.18581457553777

> <r_i_glide_ligand_efficiency_ln>
-2.27578511357199

> <r_i_glide_gscore>
-9.31033351434387

> <r_i_glide_lipo>
-5.22821601185429

> <r_i_glide_hbond>
0

> <r_i_glide_metal>
0

> <r_i_glide_rewards>
-2.26485380202491

> <r_i_glide_evdw>
-41.8174934387207

> <r_i_glide_ecoul>
-4.3940486907959

> <r_i_glide_erotb>
0.932718275090754

> <r_i_glide_esite>
0

> <r_i_glide_emodel>
-63.1930615858895

> <r_i_glide_energy>
-46.2115421295166

> <r_i_glide_einternal>
6.84613370895386

> <i_i_glide_confnum>
72

> <i_i_glide_posenum>
394

> <r_i_glide_eff_state_penalty>
0

> <s_user_duplicate_titles>
CHEMBL4618_lig359,627476

> <s_m_subgroup_title>
dock_pv

> <s_m_subgroupid>
dock_pv

> <b_m_subgroup_collapsed>
1

$$$$
CHEMBL4618_lig456
                    3D
 Schrodinger Suite 2021-1.
 46 50  0  0  1  0            999 V2000
    9.3210   39.5806   67.5062 C   0  0  0  0  0  0
    8.1676   39.6936   68.2801 C   0  0  0  0  0  0
    7.6465   40.9617   68.5773 C   0  0  0  0  0  0
    8.2550   42.1390   68.1257 C   0  0  0  0  0  0
    7.5880   38.5206   68.7318 O   0  0  0  0  0  0
    7.9938   36.6255   70.1282 N   0  0  0  0  0  0
    8.0868   37.9004   69.8610 C   0  0  0  0  0  0
    8.9210   38.8577   71.0523 S   0  0  0  0  0  0
    9.2843   37.4042   71.9387 C   0  0  0  0  0  0
    8.6942   36.3092   71.2602 C   0  0  0  0  0  0
   10.0469   37.2336   73.1023 C   0  0  0  0  0  0
   10.2426   35.9361   73.5671 C   0  0  0  0  0  0
    9.7210   34.8446   72.8836 C   0  0  0  0  0  0
    8.9210   35.0160   71.7517 C   0  0  0  0  0  0
   11.1662   41.0160   66.3400 C   0  0  0  0  0  0
    9.9809   40.7354   67.0737 C   0  0  0  0  0  0
    9.4344   41.9950   67.3841 C   0  0  0  0  0  0
   10.2145   42.9963   66.8720 O   0  0  0  0  0  0
   11.2881   42.3942   66.2725 C   0  0  0  0  0  0
   12.3150   43.3271   65.6504 C   0  0  0  0  0  0
   13.6698   42.7527   65.5595 N   0  0  0  0  0  0
   14.6801   43.8186   65.5599 C   0  0  0  0  0  0
   16.1332   43.2957   65.5019 C   0  0  0  0  0  0
   16.3555   42.2777   64.3719 C   0  0  0  0  0  0
   15.2321   41.2342   64.3911 C   0  0  0  0  0  0
   13.8392   41.8914   64.3788 C   0  0  0  0  0  0
    9.7209   38.6071   67.2774 H   0  0  0  0  0  0
    6.7298   41.0318   69.1401 H   0  0  0  0  0  0
    7.8340   43.1125   68.3400 H   0  0  0  0  0  0
   10.4926   38.0757   73.6107 H   0  0  0  0  0  0
   10.8332   35.7690   74.4569 H   0  0  0  0  0  0
    9.9129   33.8481   73.2567 H   0  0  0  0  0  0
    8.5210   34.1568   71.2408 H   0  0  0  0  0  0
   11.8582   40.3024   65.9232 H   0  0  0  0  0  0
   12.3512   44.2160   66.2778 H   0  0  0  0  0  0
   11.9841   43.6770   64.6717 H   0  0  0  0  0  0
   14.5621   44.3851   66.4826 H   0  0  0  0  0  0
   14.4795   44.5098   64.7401 H   0  0  0  0  0  0
   16.4225   42.8993   66.4741 H   0  0  0  0  0  0
   16.8015   44.1426   65.3424 H   0  0  0  0  0  0
   16.3541   42.7872   63.4063 H   0  0  0  0  0  0
   17.3390   41.8162   64.4625 H   0  0  0  0  0  0
   15.3206   40.5638   63.5400 H   0  0  0  0  0  0
   15.3020   40.6160   65.2806 H   0  0  0  0  0  0
   13.0873   41.1067   64.3654 H   0  0  0  0  0  0
   13.6875   42.4762   63.4686 H   0  0  0  0  0  0
  1 16  2  0  0  0
  1  2  1  0  0  0
  1 27  1  0  0  0
  2  3  2  0  0  0
  2  5  1  0  0  0
  3  4  1  0  0  0
  3 28  1  0  0  0
  4 17  2  0  0  0
  4 29  1  0  0  0
  5  7  1  0  0  0
  6  7  2  0  0  0
  6 10  1  0  0  0
  7  8  1  0  0  0
  8  9  1  0  0  0
  9 10  1  0  0  0
  9 11  2  0  0  0
 10 14  2  0  0  0
 11 12  1  0  0  0
 11 30  1  0  0  0
 12 13  2  0  0  0
 12 31  1  0  0  0
 13 14  1  0  0  0
 13 32  1  0  0  0
 14 33  1  0  0  0
 15 16  1  0  0  0
 15 19  2  0  0  0
 15 34  1  0  0  0
 16 17  1  0  0  0
 17 18  1  0  0  0
 18 19  1  0  0  0
 19 20  1  0  0  0
 20 21  1  0  0  0
 20 35  1  0  0  0
 20 36  1  0  0  0
 21 22  1  0  0  0
 21 26  1  0  0  0
 22 23  1  0  0  0
 22 37  1  0  0  0
 22 38  1  0  0  0
 23 24  1  0  0  0
 23 39  1  0  0  0
 23 40  1  0  0  0
 24 25  1  0  0  0
 24 41  1  0  0  0
 24 42  1  0  0  0
 25 26  1  0  0  0
 25 43  1  0  0  0
 25 44  1  0  0  0
 26 45  1  0  0  0
 26 46  1  0  0  0
M  END
> <s_m_entry_id>
6791

> <s_m_entry_name>
dock_pv.221

> <s_m_Source_Path>
/home/csk/Desktop/cluster/DUD-E-result/lkha4

> <s_m_Source_File>
dock_pv.maegz

> <i_m_Source_File_Index>
221

> <chembl_id>
CHEMBL2313558

> <chembl_pref_name>
None

> <i_lp_mmshare_version>
53161

> <i_f3d_flags>
0

> <r_lp_tautomer_probability>
1

> <s_lp_Force_Field>
OPLS_2005

> <r_lp_Energy>
24.471353

> <b_lp_Chiralities_Consistent>
1

> <s_lp_Variant>
CHEMBL4618_lig456-1

> <s_i_glide_gridfile>
glide-grid_3chp

> <i_i_glide_lignum>
532

> <i_i_glide_rotatable_bonds>
4

> <r_i_docking_score>
-9.30025287194825

> <r_i_glide_ligand_efficiency>
-0.357702033536471

> <r_i_glide_ligand_efficiency_sa>
-1.05969086686226

> <r_i_glide_ligand_efficiency_ln>
-2.18413387035833

> <r_i_glide_gscore>
-9.30025287194825

> <r_i_glide_lipo>
-5.2963906011823

> <r_i_glide_hbond>
0

> <r_i_glide_metal>
0

> <r_i_glide_rewards>
-1.82412477272727

> <r_i_glide_evdw>
-46.4154243469238

> <r_i_glide_ecoul>
-2.91929268836975

> <r_i_glide_erotb>
0.578927622562972

> <r_i_glide_esite>
0

> <r_i_glide_emodel>
-73.089324578828

> <r_i_glide_energy>
-49.3347170352936

> <r_i_glide_einternal>
4.88691186904907

> <i_i_glide_confnum>
13

> <i_i_glide_posenum>
234

> <r_i_glide_eff_state_penalty>
0

> <s_user_duplicate_titles>
CHEMBL4618_lig456

> <s_m_subgroup_title>
dock_pv

> <s_m_subgroupid>
dock_pv

> <b_m_subgroup_collapsed>
1

$$$$
CHEMBL4618_lig18
                    3D
 Schrodinger Suite 2021-1.
 54 57  0  0  1  0            999 V2000
   12.0899   42.8383   64.9799 N   0  0  1  0  0  0
   14.1047   41.6381   64.9922 C   0  0  1  0  0  0
   14.9030   42.7047   65.7881 C   0  0  2  0  0  0
   13.1852   43.5112   64.2817 C   0  0  1  0  0  0
   14.2425   43.9950   65.2796 C   0  0  0  0  0  0
   12.6718   41.6096   65.5391 C   0  0  0  0  0  0
   16.4271   42.6147   65.5384 C   0  0  0  0  0  0
   13.9111   42.3345   63.6501 C   0  0  0  0  0  0
   16.9213   41.5477   65.1386 O   0  0  0  0  0  0
    8.0370   39.0248   68.9347 C   0  0  0  0  0  0
   17.1026   43.7238   65.9047 O   0  0  0  0  0  0
   11.2810   43.6193   65.9111 C   0  0  0  0  0  0
    7.3434   38.0874   69.9241 C   0  0  0  0  0  0
    9.2741   40.7788   67.1390 C   0  0  0  0  0  0
    8.5271   38.5423   67.7259 C   0  0  0  0  0  0
    8.1203   40.3911   69.1924 C   0  0  0  0  0  0
    8.7141   41.2692   68.3109 C   0  0  0  0  0  0
    9.1634   39.4162   66.8462 C   0  0  0  0  0  0
    8.2430   37.3700   70.9220 C   0  0  0  0  0  0
    9.9789   41.5477   66.2442 O   0  0  0  0  0  0
    9.9078   42.9762   66.2214 C   0  0  0  0  0  0
   18.5168   43.7715   65.7778 C   0  0  0  0  0  0
    8.9644   38.0880   71.8669 C   0  0  0  0  0  0
    8.2801   35.9829   70.9601 C   0  0  0  0  0  0
    9.7276   37.4162   72.8210 C   0  0  0  0  0  0
    8.9984   35.3012   71.9384 C   0  0  0  0  0  0
    9.7222   36.0267   72.8727 C   0  0  0  0  0  0
   14.5422   40.6407   64.9380 H   0  0  0  0  0  0
   14.7212   42.6192   66.8540 H   0  0  0  0  0  0
   12.8563   44.2728   63.5744 H   0  0  0  0  0  0
   13.8311   44.5905   66.0796 H   0  0  0  0  0  0
   14.9219   44.6165   64.7443 H   0  0  0  0  0  0
   12.1680   40.7317   65.1405 H   0  0  0  0  0  0
   12.6757   41.5753   66.6299 H   0  0  0  0  0  0
   14.8389   42.6134   63.1412 H   0  0  0  0  0  0
   13.3200   41.7713   62.9401 H   0  0  0  0  0  0
   11.8313   43.8151   66.8305 H   0  0  0  0  0  0
   11.1014   44.5917   65.4536 H   0  0  0  0  0  0
    6.6185   38.6321   70.5293 H   0  0  0  0  0  0
    6.7489   37.3692   69.3604 H   0  0  0  0  0  0
    8.4675   37.4901   67.4886 H   0  0  0  0  0  0
    7.7214   40.8140   70.0841 H   0  0  0  0  0  0
    8.7498   42.3054   68.5991 H   0  0  0  0  0  0
    9.5958   39.0249   65.9407 H   0  0  0  0  0  0
    9.5331   43.4311   67.1311 H   0  0  0  0  0  0
    9.1946   43.2522   65.4448 H   0  0  0  0  0  0
   18.8873   44.7392   66.1210 H   0  0  0  0  0  0
   18.8255   43.6420   64.7406 H   0  0  0  0  0  0
   18.9965   42.9939   66.3766 H   0  0  0  0  0  0
    8.9206   39.1648   71.8536 H   0  0  0  0  0  0
    7.7211   35.4284   70.2333 H   0  0  0  0  0  0
   10.3020   37.9759   73.5403 H   0  0  0  0  0  0
    8.9920   34.2219   71.9595 H   0  0  0  0  0  0
   10.2947   35.5125   73.6314 H   0  0  0  0  0  0
  1  4  1  0  0  0
  1  6  1  0  0  0
  1 12  1  0  0  0
  2  6  1  0  0  0
  2  3  1  0  0  0
  2  8  1  0  0  0
  2 28  1  0  0  0
  3  7  1  0  0  0
  3  5  1  0  0  0
  3 29  1  0  0  0
  4  5  1  0  0  0
  4  8  1  0  0  0
  4 30  1  0  0  0
  5 31  1  0  0  0
  5 32  1  0  0  0
  6 33  1  0  0  0
  6 34  1  0  0  0
  7  9  2  0  0  0
  7 11  1  0  0  0
  8 35  1  0  0  0
  8 36  1  0  0  0
 10 15  1  0  0  0
 10 13  1  0  0  0
 10 16  2  0  0  0
 11 22  1  0  0  0
 12 21  1  0  0  0
 12 37  1  0  0  0
 12 38  1  0  0  0
 13 19  1  0  0  0
 13 39  1  0  0  0
 13 40  1  0  0  0
 14 20  1  0  0  0
 14 17  2  0  0  0
 14 18  1  0  0  0
 15 18  2  0  0  0
 15 41  1  0  0  0
 16 17  1  0  0  0
 16 42  1  0  0  0
 17 43  1  0  0  0
 18 44  1  0  0  0
 19 23  2  0  0  0
 19 24  1  0  0  0
 20 21  1  0  0  0
 21 45  1  0  0  0
 21 46  1  0  0  0
 22 47  1  0  0  0
 22 48  1  0  0  0
 22 49  1  0  0  0
 23 25  1  0  0  0
 23 50  1  0  0  0
 24 26  2  0  0  0
 24 51  1  0  0  0
 25 27  2  0  0  0
 25 52  1  0  0  0
 26 27  1  0  0  0
 26 53  1  0  0  0
 27 54  1  0  0  0
M  END
> <s_m_entry_id>
6792

> <s_m_entry_name>
dock_pv.222

> <s_m_Source_Path>
/home/csk/Desktop/cluster/DUD-E-result/lkha4

> <s_m_Source_File>
dock_pv.maegz

> <i_m_Source_File_Index>
222

> <chembl_id>
CHEMBL114591

> <chembl_pref_name>
None

> <i_lp_mmshare_version>
53161

> <i_f3d_flags>
0

> <r_lp_tautomer_probability>
1

> <s_lp_Force_Field>
OPLS_2005

> <r_lp_Energy>
64.967207

> <b_lp_Chiralities_Consistent>
1

> <s_lp_Variant>
CHEMBL4618_lig18-4

> <s_i_glide_gridfile>
glide-grid_3chp

> <i_i_glide_lignum>
25

> <i_i_glide_rotatable_bonds>
8

> <r_i_docking_score>
-9.30011274094989

> <r_i_glide_ligand_efficiency>
-0.344448620035181

> <r_i_glide_ligand_efficiency_sa>
-1.0333458589703

> <r_i_glide_ligand_efficiency_ln>
-2.16491292175165

> <r_i_glide_gscore>
-9.30011274094989

> <r_i_glide_lipo>
-5.08931648767161

> <r_i_glide_hbond>
-0.32

> <r_i_glide_metal>
0

> <r_i_glide_rewards>
-1.80257126731458

> <r_i_glide_evdw>
-34.1553611755371

> <r_i_glide_ecoul>
-8.59079551696777

> <r_i_glide_erotb>
1.00816240035832

> <r_i_glide_esite>
-0.1

> <r_i_glide_emodel>
-61.846314997419

> <r_i_glide_energy>
-42.7461566925049

> <r_i_glide_einternal>
5.48533630371094

> <i_i_glide_confnum>
27

> <i_i_glide_posenum>
306

> <r_i_glide_eff_state_penalty>
0

> <s_user_duplicate_titles>
CHEMBL4618_lig18,188154

> <s_m_subgroup_title>
dock_pv

> <s_m_subgroupid>
dock_pv

> <b_m_subgroup_collapsed>
1

$$$$
CHEMBL4618_lig411
                    3D
 Schrodinger Suite 2021-1.
 42 45  0  0  1  0            999 V2000
   10.9210   35.3669   74.4351 C   0  0  0  0  0  0
   10.5043   36.6158   73.9661 C   0  0  0  0  0  0
    9.7930   34.2159   72.6217 N   0  0  0  0  0  0
   10.5790   34.2181   73.7261 C   0  0  0  0  0  0
    9.3448   35.3961   72.2057 C   0  0  0  0  0  0
    9.7209   36.6206   72.8007 C   0  0  0  0  0  0
    9.0952   37.9155   71.7979 S   0  0  0  0  0  0
    8.4115   36.7128   70.7175 C   0  0  0  0  0  0
    8.5210   35.4897   71.1400 N   0  0  0  0  0  0
    7.8849   37.0274   69.4739 O   0  0  0  0  0  0
    8.0876   38.2365   68.8323 C   0  0  0  0  0  0
    8.6354   38.2504   67.5545 C   0  0  0  0  0  0
    8.9093   39.4525   66.9052 C   0  0  0  0  0  0
    8.6109   40.6744   67.5241 C   0  0  0  0  0  0
    7.9764   40.6601   68.7640 C   0  0  0  0  0  0
    7.7210   39.4468   69.3975 C   0  0  0  0  0  0
    8.9522   42.0336   66.8906 C   0  0  0  0  0  0
   10.1509   42.0587   66.0344 N   0  0  0  0  0  0
   10.3897   43.4161   65.5236 C   0  0  0  0  0  0
   11.7210   43.5621   64.7400 C   0  0  0  0  0  0
   12.9436   42.9917   65.4594 C   0  0  0  0  0  0
   12.6141   41.5819   65.9400 C   0  0  0  0  0  0
   11.3236   41.5838   66.7657 C   0  0  0  0  0  0
   11.6883   35.2665   75.5400 F   0  0  0  0  0  0
   10.7998   37.5271   74.4620 H   0  0  0  0  0  0
   10.9243   33.2507   74.0612 H   0  0  0  0  0  0
    8.9204   37.3264   67.0834 H   0  0  0  0  0  0
    9.3905   39.4256   65.9401 H   0  0  0  0  0  0
    7.6898   41.5828   69.2495 H   0  0  0  0  0  0
    7.2177   39.4160   70.3400 H   0  0  0  0  0  0
    9.0684   42.7692   67.6900 H   0  0  0  0  0  0
    8.0897   42.3563   66.3097 H   0  0  0  0  0  0
   10.3914   44.1241   66.3478 H   0  0  0  0  0  0
    9.5475   43.7111   64.8975 H   0  0  0  0  0  0
   11.9121   44.6160   64.5572 H   0  0  0  0  0  0
   11.6150   43.1242   63.7503 H   0  0  0  0  0  0
   13.8106   42.9834   64.7971 H   0  0  0  0  0  0
   13.2015   43.6241   66.3108 H   0  0  0  0  0  0
   12.5211   40.8799   65.1130 H   0  0  0  0  0  0
   13.4242   41.1969   66.5504 H   0  0  0  0  0  0
   11.4374   42.2475   67.6203 H   0  0  0  0  0  0
   11.1763   40.5895   67.1752 H   0  0  0  0  0  0
  1  2  2  0  0  0
  1  4  1  0  0  0
  1 24  1  0  0  0
  2  6  1  0  0  0
  2 25  1  0  0  0
  3  5  1  0  0  0
  3  4  2  0  0  0
  4 26  1  0  0  0
  5  6  2  0  0  0
  5  9  1  0  0  0
  6  7  1  0  0  0
  7  8  1  0  0  0
  8  9  2  0  0  0
  8 10  1  0  0  0
 10 11  1  0  0  0
 11 12  2  0  0  0
 11 16  1  0  0  0
 12 13  1  0  0  0
 12 27  1  0  0  0
 13 14  2  0  0  0
 13 28  1  0  0  0
 14 15  1  0  0  0
 14 17  1  0  0  0
 15 16  2  0  0  0
 15 29  1  0  0  0
 16 30  1  0  0  0
 17 18  1  0  0  0
 17 31  1  0  0  0
 17 32  1  0  0  0
 18 19  1  0  0  0
 18 23  1  0  0  0
 19 20  1  0  0  0
 19 33  1  0  0  0
 19 34  1  0  0  0
 20 21  1  0  0  0
 20 35  1  0  0  0
 20 36  1  0  0  0
 21 22  1  0  0  0
 21 37  1  0  0  0
 21 38  1  0  0  0
 22 23  1  0  0  0
 22 39  1  0  0  0
 22 40  1  0  0  0
 23 41  1  0  0  0
 23 42  1  0  0  0
M  END
> <s_m_entry_id>
6793

> <s_m_entry_name>
dock_pv.223

> <s_m_Source_Path>
/home/csk/Desktop/cluster/DUD-E-result/lkha4

> <s_m_Source_File>
dock_pv.maegz

> <i_m_Source_File_Index>
223

> <chembl_id>
CHEMBL2207735

> <chembl_pref_name>
None

> <i_lp_mmshare_version>
53161

> <i_f3d_flags>
0

> <r_lp_tautomer_probability>
1

> <s_lp_Force_Field>
OPLS_2005

> <r_lp_Energy>
24.704211

> <b_lp_Chiralities_Consistent>
1

> <s_lp_Variant>
CHEMBL4618_lig411-1

> <s_i_glide_gridfile>
glide-grid_3chp

> <i_i_glide_lignum>
478

> <i_i_glide_rotatable_bonds>
4

> <r_i_docking_score>
-9.2991557575512

> <r_i_glide_ligand_efficiency>
-0.3874648232313

> <r_i_glide_ligand_efficiency_sa>
-1.11764194844518

> <r_i_glide_ligand_efficiency_ln>
-2.22571468323489

> <r_i_glide_gscore>
-9.2991557575512

> <r_i_glide_lipo>
-5.54272643312332

> <r_i_glide_hbond>
0

> <r_i_glide_metal>
0

> <r_i_glide_rewards>
-1.96759484318182

> <r_i_glide_evdw>
-41.3468017578125

> <r_i_glide_ecoul>
-2.07642936706543

> <r_i_glide_erotb>
0.643556244975005

> <r_i_glide_esite>
-0.0535862332706366

> <r_i_glide_emodel>
-57.2446610379434

> <r_i_glide_energy>
-43.4232311248779

> <r_i_glide_einternal>
3.96291327476501

> <i_i_glide_confnum>
23

> <i_i_glide_posenum>
323

> <r_i_glide_eff_state_penalty>
0

> <s_user_duplicate_titles>
CHEMBL4618_lig411

> <s_m_subgroup_title>
dock_pv

> <s_m_subgroupid>
dock_pv

> <b_m_subgroup_collapsed>
1

$$$$
CHEMBL4618_lig169
                    3D
 Schrodinger Suite 2021-1.
 49 50  0  0  1  0            999 V2000
    9.2219   37.8160   71.9400 S   0  0  0  0  0  0
    8.5210   36.5788   70.9367 C   0  0  0  0  0  0
   16.3833   42.4973   64.9040 C   0  0  0  0  0  0
   14.9544   42.5314   64.3696 C   0  0  0  0  0  0
    9.8013   36.7059   73.1212 C   0  0  0  0  0  0
    8.8187   35.3526   71.5412 C   0  0  0  0  0  0
    9.5330   35.4151   72.7400 C   0  0  0  0  0  0
   16.9210   41.4160   65.1400 O   0  0  0  0  0  0
    7.7209   36.8703   69.6566 C   0  0  0  0  0  0
   13.9733   43.1872   65.3679 C   0  0  0  0  0  0
   12.6415   42.5665   65.4054 N   0  0  2  0  0  0
    8.0155   38.1875   68.9194 C   0  0  0  0  0  0
    8.7592   40.6449   67.7663 C   0  0  0  0  0  0
   16.9210   43.7100   65.1400 O   0  0  0  0  0  0
    8.5463   38.2255   67.6340 C   0  0  0  0  0  0
    7.7474   39.3930   69.5427 C   0  0  0  0  0  0
    8.9213   39.4415   67.0558 C   0  0  0  0  0  0
    8.1210   40.6089   68.9945 C   0  0  0  0  0  0
   10.3047   43.4147   65.8191 C   0  0  0  0  0  0
    9.2230   41.8892   67.3868 O   0  0  0  0  0  0
   11.7715   43.3578   66.2898 C   0  0  0  0  0  0
    9.4805   42.1457   66.0202 C   0  0  0  0  0  0
   12.7281   41.1650   65.8392 C   0  0  0  0  0  0
   18.2789   43.8257   65.5397 C   0  0  0  0  0  0
   14.9285   43.0160   63.3958 H   0  0  0  0  0  0
   14.6738   41.5040   64.1527 H   0  0  0  0  0  0
   10.3112   37.0562   74.0071 H   0  0  0  0  0  0
    8.5210   34.4000   71.1400 H   0  0  0  0  0  0
    9.8181   34.5457   73.3153 H   0  0  0  0  0  0
    6.6681   36.9029   69.9400 H   0  0  0  0  0  0
    7.8060   36.0395   68.9586 H   0  0  0  0  0  0
   14.3815   43.1942   66.3820 H   0  0  0  0  0  0
   13.8775   44.2359   65.0801 H   0  0  0  0  0  0
    8.7623   37.3105   67.1150 H   0  0  0  0  0  0
    7.3210   39.3638   70.5221 H   0  0  0  0  0  0
    9.4017   39.4036   66.0916 H   0  0  0  0  0  0
    7.9518   41.5251   69.5400 H   0  0  0  0  0  0
    9.7832   44.2160   66.3400 H   0  0  0  0  0  0
   10.2872   43.6778   64.7617 H   0  0  0  0  0  0
   11.8265   42.9761   67.3113 H   0  0  0  0  0  0
   12.1210   44.3847   66.3400 H   0  0  0  0  0  0
    8.5203   42.2726   65.5400 H   0  0  0  0  0  0
    9.9782   41.3239   65.5400 H   0  0  0  0  0  0
   11.7738   40.7091   66.0724 H   0  0  0  0  0  0
   13.1761   40.5307   65.0762 H   0  0  0  0  0  0
   13.3212   41.0718   66.7400 H   0  0  0  0  0  0
   18.5339   44.8754   65.6838 H   0  0  0  0  0  0
   18.9441   43.4205   64.7746 H   0  0  0  0  0  0
   18.4633   43.2971   66.4761 H   0  0  0  0  0  0
  1  2  1  0  0  0
  1  5  1  0  0  0
  2  6  2  0  0  0
  2  9  1  0  0  0
  3  4  1  0  0  0
  3  8  2  0  0  0
  3 14  1  0  0  0
  4 10  1  0  0  0
  4 25  1  0  0  0
  4 26  1  0  0  0
  5  7  2  0  0  0
  5 27  1  0  0  0
  6  7  1  0  0  0
  6 28  1  0  0  0
  7 29  1  0  0  0
  9 12  1  0  0  0
  9 30  1  0  0  0
  9 31  1  0  0  0
 10 11  1  0  0  0
 10 32  1  0  0  0
 10 33  1  0  0  0
 11 21  1  0  0  0
 11 23  1  0  0  0
 12 15  2  0  0  0
 12 16  1  0  0  0
 13 18  1  0  0  0
 13 20  1  0  0  0
 13 17  2  0  0  0
 14 24  1  0  0  0
 15 17  1  0  0  0
 15 34  1  0  0  0
 16 18  2  0  0  0
 16 35  1  0  0  0
 17 36  1  0  0  0
 18 37  1  0  0  0
 19 22  1  0  0  0
 19 21  1  0  0  0
 19 38  1  0  0  0
 19 39  1  0  0  0
 20 22  1  0  0  0
 21 40  1  0  0  0
 21 41  1  0  0  0
 22 42  1  0  0  0
 22 43  1  0  0  0
 23 44  1  0  0  0
 23 45  1  0  0  0
 23 46  1  0  0  0
 24 47  1  0  0  0
 24 48  1  0  0  0
 24 49  1  0  0  0
M  END
> <s_m_entry_id>
6794

> <s_m_entry_name>
dock_pv.224

> <s_m_Source_Path>
/home/csk/Desktop/cluster/DUD-E-result/lkha4

> <s_m_Source_File>
dock_pv.maegz

> <i_m_Source_File_Index>
224

> <chembl_id>
CHEMBL116571

> <chembl_pref_name>
None

> <i_lp_mmshare_version>
53161

> <i_f3d_flags>
0

> <r_lp_tautomer_probability>
1

> <s_lp_Force_Field>
OPLS_2005

> <r_lp_Energy>
11.517588

> <b_lp_Chiralities_Consistent>
1

> <s_lp_Variant>
CHEMBL4618_lig169-1

> <s_i_glide_gridfile>
glide-grid_3chp

> <i_i_glide_lignum>
195

> <i_i_glide_rotatable_bonds>
11

> <r_i_docking_score>
-9.29906848091372

> <r_i_glide_ligand_efficiency>
-0.387461186704738

> <r_i_glide_ligand_efficiency_sa>
-1.11763145888745

> <r_i_glide_ligand_efficiency_ln>
-2.22569379393068

> <r_i_glide_gscore>
-9.29906848091372

> <r_i_glide_lipo>
-5.00169224258542

> <r_i_glide_hbond>
-0.32

> <r_i_glide_metal>
0

> <r_i_glide_rewards>
-1.89583620459875

> <r_i_glide_evdw>
-44.8096961975098

> <r_i_glide_ecoul>
-8.77849674224854

> <r_i_glide_erotb>
1.57571928748322

> <r_i_glide_esite>
-0.1

> <r_i_glide_emodel>
-79.4907251911219

> <r_i_glide_energy>
-53.5881929397583

> <r_i_glide_einternal>
10.509521484375

> <i_i_glide_confnum>
163

> <i_i_glide_posenum>
114

> <r_i_glide_eff_state_penalty>
0

> <s_user_duplicate_titles>
CHEMBL4618_lig169,192610

> <s_m_subgroup_title>
dock_pv

> <s_m_subgroupid>
dock_pv

> <b_m_subgroup_collapsed>
1

$$$$
CHEMBL4618_lig160
                    3D
 Schrodinger Suite 2021-1.
 46 47  0  0  1  0            999 V2000
   16.2864   42.5245   64.9642 C   0  0  0  0  0  0
   16.8047   41.4160   65.1217 O   0  0  0  0  0  0
    8.4061   40.0462   68.3878 C   0  0  0  0  0  0
    7.5713   39.0391   69.1710 C   0  0  0  0  0  0
    9.9392   41.8714   66.9023 C   0  0  0  0  0  0
   14.1012   43.7604   65.1400 N   0  0  2  0  0  0
   16.9210   43.7122   65.1400 O   0  0  0  0  0  0
    8.2019   41.4233   68.5350 C   0  0  0  0  0  0
    9.3210   39.5889   67.4515 C   0  0  0  0  0  0
    8.9542   42.3259   67.7816 C   0  0  0  0  0  0
   10.1083   40.4914   66.7400 C   0  0  0  0  0  0
    8.2717   38.0972   70.1490 C   0  0  0  0  0  0
   14.8034   42.6160   64.5580 C   0  0  0  0  0  0
   10.6766   42.8164   66.2098 O   0  0  0  0  0  0
   12.6415   43.6737   65.0442 C   0  0  0  0  0  0
   18.3092   43.7725   65.4532 C   0  0  0  0  0  0
   12.0269   42.5046   65.8468 C   0  0  0  0  0  0
    7.9928   36.7290   70.1472 C   0  0  0  0  0  0
    9.1057   38.6160   71.1342 C   0  0  0  0  0  0
   18.5519   43.5968   66.9599 C   0  0  0  0  0  0
    8.5210   35.9036   71.1400 C   0  0  0  0  0  0
    9.6285   37.7968   72.1314 C   0  0  0  0  0  0
    9.3210   36.4420   72.1396 C   0  0  0  0  0  0
    6.9147   39.6152   69.8042 H   0  0  0  0  0  0
    6.9441   38.4801   68.4743 H   0  0  0  0  0  0
   14.4119   44.5731   64.6125 H   0  0  0  0  0  0
    7.4563   41.8007   69.2212 H   0  0  0  0  0  0
    9.4469   38.5276   67.2978 H   0  0  0  0  0  0
    8.7848   43.3872   67.8941 H   0  0  0  0  0  0
   10.8234   40.0923   66.0381 H   0  0  0  0  0  0
   14.7279   42.6466   63.4689 H   0  0  0  0  0  0
   14.3305   41.6862   64.8749 H   0  0  0  0  0  0
   12.2356   44.6093   65.4282 H   0  0  0  0  0  0
   12.3371   43.6238   63.9977 H   0  0  0  0  0  0
   18.6812   44.7480   65.1400 H   0  0  0  0  0  0
   18.8718   43.0338   64.8783 H   0  0  0  0  0  0
   12.0892   41.6047   65.2370 H   0  0  0  0  0  0
   12.6029   42.3233   66.7556 H   0  0  0  0  0  0
    7.3369   36.3044   69.4053 H   0  0  0  0  0  0
    9.3113   39.6749   71.1399 H   0  0  0  0  0  0
   19.6124   43.6915   67.1928 H   0  0  0  0  0  0
   18.2256   42.6160   67.3050 H   0  0  0  0  0  0
   18.0123   44.3494   67.5349 H   0  0  0  0  0  0
    8.2922   34.8500   71.1493 H   0  0  0  0  0  0
   10.2511   38.2107   72.9109 H   0  0  0  0  0  0
    9.7137   35.8036   72.9176 H   0  0  0  0  0  0
  1  2  2  0  0  0
  1  7  1  0  0  0
  1 13  1  0  0  0
  3  9  1  0  0  0
  3  4  1  0  0  0
  3  8  2  0  0  0
  4 12  1  0  0  0
  4 24  1  0  0  0
  4 25  1  0  0  0
  5 14  1  0  0  0
  5 10  2  0  0  0
  5 11  1  0  0  0
  6 13  1  0  0  0
  6 15  1  0  0  0
  6 26  1  0  0  0
  7 16  1  0  0  0
  8 10  1  0  0  0
  8 27  1  0  0  0
  9 11  2  0  0  0
  9 28  1  0  0  0
 10 29  1  0  0  0
 11 30  1  0  0  0
 12 18  1  0  0  0
 12 19  2  0  0  0
 13 31  1  0  0  0
 13 32  1  0  0  0
 14 17  1  0  0  0
 15 17  1  0  0  0
 15 33  1  0  0  0
 15 34  1  0  0  0
 16 20  1  0  0  0
 16 35  1  0  0  0
 16 36  1  0  0  0
 17 37  1  0  0  0
 17 38  1  0  0  0
 18 21  2  0  0  0
 18 39  1  0  0  0
 19 22  1  0  0  0
 19 40  1  0  0  0
 20 41  1  0  0  0
 20 42  1  0  0  0
 20 43  1  0  0  0
 21 23  1  0  0  0
 21 44  1  0  0  0
 22 23  2  0  0  0
 22 45  1  0  0  0
 23 46  1  0  0  0
M  END
> <s_m_entry_id>
6795

> <s_m_entry_name>
dock_pv.225

> <s_m_Source_Path>
/home/csk/Desktop/cluster/DUD-E-result/lkha4

> <s_m_Source_File>
dock_pv.maegz

> <i_m_Source_File_Index>
225

> <chembl_id>
CHEMBL116908

> <chembl_pref_name>
None

> <i_lp_mmshare_version>
53161

> <i_f3d_flags>
0

> <r_lp_tautomer_probability>
1

> <s_lp_Force_Field>
OPLS_2005

> <r_lp_Energy>
19.338898

> <b_lp_Chiralities_Consistent>
1

> <s_lp_Variant>
CHEMBL4618_lig160-1

> <s_i_glide_gridfile>
glide-grid_3chp

> <i_i_glide_lignum>
186

> <i_i_glide_rotatable_bonds>
10

> <r_i_docking_score>
-9.29755991215983

> <r_i_glide_ligand_efficiency>
-0.404241735311297

> <r_i_glide_ligand_efficiency_sa>
-1.14960972172816

> <r_i_glide_ligand_efficiency_ln>
-2.24823429237245

> <r_i_glide_gscore>
-9.29755991215983

> <r_i_glide_lipo>
-4.83333062127449

> <r_i_glide_hbond>
-0.556930000138133

> <r_i_glide_metal>
0

> <r_i_glide_rewards>
-2.02468054925949

> <r_i_glide_evdw>
-43.4167633056641

> <r_i_glide_ecoul>
-8.75858783721924

> <r_i_glide_erotb>
1.70200759937838

> <r_i_glide_esite>
-0.1

> <r_i_glide_emodel>
-76.826284049196

> <r_i_glide_energy>
-52.1753511428833

> <r_i_glide_einternal>
10.8495578765869

> <i_i_glide_confnum>
75

> <i_i_glide_posenum>
331

> <r_i_glide_eff_state_penalty>
0

> <s_user_duplicate_titles>
CHEMBL4618_lig160

> <s_m_subgroup_title>
dock_pv

> <s_m_subgroupid>
dock_pv

> <b_m_subgroup_collapsed>
1

$$$$
CHEMBL4618_lig119
                    3D
 Schrodinger Suite 2021-1.
 44 47  0  0  1  0            999 V2000
   16.1495   41.4162   64.3722 N   0  0  0  0  0  0
   14.8891   41.7695   64.3400 C   0  0  0  0  0  0
   14.5614   42.8361   65.1531 N   0  0  0  0  0  0
   16.7223   42.3541   65.1894 C   0  0  0  0  0  0
   15.7522   43.2402   65.7351 C   0  0  0  0  0  0
   18.0107   42.4035   65.5378 N   0  0  0  0  0  0
    8.3707   40.2240   68.2854 C   0  0  0  0  0  0
    7.4324   39.2890   69.0285 C   0  0  0  0  0  0
   10.1069   41.9158   66.8731 C   0  0  0  0  0  0
   13.2164   43.3783   65.3580 C   0  0  0  0  0  0
    8.2239   41.6118   68.3722 C   0  0  0  0  0  0
    9.3212   39.6863   67.4304 C   0  0  0  0  0  0
   10.1873   40.5243   66.7401 C   0  0  0  0  0  0
    9.0785   42.4460   67.6523 C   0  0  0  0  0  0
    8.0527   38.3158   70.0293 C   0  0  0  0  0  0
   10.9983   42.7940   66.2753 O   0  0  0  0  0  0
   12.2789   42.2809   65.8970 C   0  0  0  0  0  0
   16.1210   44.2145   66.6730 C   0  0  0  0  0  0
   18.3720   43.3720   66.4182 C   0  0  0  0  0  0
    8.0646   36.9481   69.7669 C   0  0  0  0  0  0
    8.5248   38.7649   71.2588 C   0  0  0  0  0  0
   17.4771   44.2692   67.0013 C   0  0  0  0  0  0
    9.0042   37.8661   72.2101 C   0  0  0  0  0  0
    8.5209   36.0611   70.7394 C   0  0  0  0  0  0
    8.9882   36.5093   71.9588 C   0  0  0  0  0  0
   14.1203   41.2864   63.7496 H   0  0  0  0  0  0
    6.7029   39.9048   69.5400 H   0  0  0  0  0  0
    6.8786   38.7111   68.2905 H   0  0  0  0  0  0
   13.2717   44.2154   66.0519 H   0  0  0  0  0  0
   12.8567   43.7682   64.4053 H   0  0  0  0  0  0
    7.4485   42.0487   68.9866 H   0  0  0  0  0  0
    9.4045   38.6155   67.3157 H   0  0  0  0  0  0
   10.9218   40.0586   66.1042 H   0  0  0  0  0  0
    8.9515   43.5115   67.7174 H   0  0  0  0  0  0
   12.1551   41.5130   65.1401 H   0  0  0  0  0  0
   12.7489   41.7954   66.7498 H   0  0  0  0  0  0
   15.4010   44.8651   67.1398 H   0  0  0  0  0  0
   19.4225   43.4039   66.6707 H   0  0  0  0  0  0
    7.7180   36.5642   68.8198 H   0  0  0  0  0  0
    8.5211   39.8162   71.4853 H   0  0  0  0  0  0
   17.8319   44.9910   67.7219 H   0  0  0  0  0  0
    9.3931   38.2160   73.1455 H   0  0  0  0  0  0
    8.5209   35.0139   70.5375 H   0  0  0  0  0  0
    9.3483   35.8094   72.6986 H   0  0  0  0  0  0
  1  2  2  0  0  0
  1  4  1  0  0  0
  2  3  1  0  0  0
  2 26  1  0  0  0
  3 10  1  0  0  0
  3  5  1  0  0  0
  4  5  2  0  0  0
  4  6  1  0  0  0
  5 18  1  0  0  0
  6 19  2  0  0  0
  7 11  1  0  0  0
  7  8  1  0  0  0
  7 12  2  0  0  0
  8 15  1  0  0  0
  8 27  1  0  0  0
  8 28  1  0  0  0
  9 16  1  0  0  0
  9 13  2  0  0  0
  9 14  1  0  0  0
 10 17  1  0  0  0
 10 29  1  0  0  0
 10 30  1  0  0  0
 11 14  2  0  0  0
 11 31  1  0  0  0
 12 13  1  0  0  0
 12 32  1  0  0  0
 13 33  1  0  0  0
 14 34  1  0  0  0
 15 20  1  0  0  0
 15 21  2  0  0  0
 16 17  1  0  0  0
 17 35  1  0  0  0
 17 36  1  0  0  0
 18 22  2  0  0  0
 18 37  1  0  0  0
 19 22  1  0  0  0
 19 38  1  0  0  0
 20 24  2  0  0  0
 20 39  1  0  0  0
 21 23  1  0  0  0
 21 40  1  0  0  0
 22 41  1  0  0  0
 23 25  2  0  0  0
 23 42  1  0  0  0
 24 25  1  0  0  0
 24 43  1  0  0  0
 25 44  1  0  0  0
M  END
> <s_m_entry_id>
6796

> <s_m_entry_name>
dock_pv.226

> <s_m_Source_Path>
/home/csk/Desktop/cluster/DUD-E-result/lkha4

> <s_m_Source_File>
dock_pv.maegz

> <i_m_Source_File_Index>
226

> <chembl_id>
CHEMBL279577

> <chembl_pref_name>
None

> <i_lp_mmshare_version>
53161

> <i_f3d_flags>
0

> <r_lp_tautomer_probability>
1

> <s_lp_Force_Field>
OPLS_2005

> <r_lp_Energy>
29.546305

> <b_lp_Chiralities_Consistent>
1

> <s_lp_Variant>
CHEMBL4618_lig119-1

> <s_i_glide_gridfile>
glide-grid_3chp

> <i_i_glide_lignum>
145

> <i_i_glide_rotatable_bonds>
6

> <r_i_docking_score>
-9.29463744486827

> <r_i_glide_ligand_efficiency>
-0.371785497794731

> <r_i_glide_ligand_efficiency_sa>
-1.08710738919567

> <r_i_glide_ligand_efficiency_ln>
-2.20310761224138

> <r_i_glide_gscore>
-9.29463744486827

> <r_i_glide_lipo>
-4.90744271354978

> <r_i_glide_hbond>
0

> <r_i_glide_metal>
0

> <r_i_glide_rewards>
-2.02405489867862

> <r_i_glide_evdw>
-45.9719657897949

> <r_i_glide_ecoul>
-4.56399250030518

> <r_i_glide_erotb>
0.866087884204416

> <r_i_glide_esite>
-0.246030552308763

> <r_i_glide_emodel>
-74.424295069531

> <r_i_glide_energy>
-50.5359582901001

> <r_i_glide_einternal>
7.51449108123779

> <i_i_glide_confnum>
8

> <i_i_glide_posenum>
46

> <r_i_glide_eff_state_penalty>
0

> <s_user_duplicate_titles>
CHEMBL4618_lig119,14687

> <s_m_subgroup_title>
dock_pv

> <s_m_subgroupid>
dock_pv

> <b_m_subgroup_collapsed>
1

$$$$
CHEMBL4618_lig442
                    3D
 Schrodinger Suite 2021-1.
 56 61  0  0  1  0            999 V2000
    7.4467   37.9258   69.0229 O   0  0  0  0  0  0
    8.9209   38.5511   71.2195 S   0  0  0  0  0  0
    8.0789   37.4627   70.1465 C   0  0  0  0  0  0
    8.1224   36.2144   70.4620 N   0  0  0  0  0  0
    8.9163   35.9838   71.5417 C   0  0  0  0  0  0
    9.3979   37.1486   72.1841 C   0  0  0  0  0  0
    9.2284   34.7465   71.9428 N   0  0  0  0  0  0
   10.0205   34.6394   73.0447 C   0  0  0  0  0  0
   10.4716   35.7280   73.7899 C   0  0  0  0  0  0
   10.1504   37.0181   73.3627 C   0  0  0  0  0  0
    9.5458   39.8583   66.7405 C   0  0  0  0  0  0
    8.9211   38.8045   67.4007 C   0  0  0  0  0  0
    7.9712   39.0183   68.3912 C   0  0  0  0  0  0
    7.5831   40.3081   68.7400 C   0  0  0  0  0  0
    9.4115   42.4559   66.5022 C   0  0  0  0  0  0
    9.1245   41.1615   67.0219 C   0  0  0  0  0  0
    8.1411   41.3528   68.0111 C   0  0  0  0  0  0
    7.7960   42.6560   68.1064 O   0  0  0  0  0  0
    8.5093   43.2917   67.1406 C   0  0  0  0  0  0
   10.3988   42.7887   65.4272 C   0  0  0  0  0  0
   11.7957   42.6116   65.8706 N   0  0  2  0  0  0
   12.4749   43.8932   65.7897 C   0  0  1  0  0  0
   13.7246   43.8147   66.6431 C   0  0  0  0  0  0
   14.6944   42.7524   66.2055 C   0  0  1  0  0  0
   13.9716   41.4910   65.6428 C   0  0  0  0  0  0
   12.6547   41.8283   64.9768 C   0  0  2  0  0  0
   15.8318   43.2944   65.4542 N   0  0  0  0  0  0
   16.9504   42.6362   65.1790 C   0  0  0  0  0  0
   16.9853   41.4160   65.1412 O   0  0  0  0  0  0
   18.2118   43.4727   65.0662 C   0  0  0  0  0  0
   12.9472   42.7406   63.7875 C   0  0  0  0  0  0
   12.8619   44.1517   64.3355 C   0  0  0  0  0  0
   12.2127   40.8658   64.7401 H   0  0  0  0  0  0
   11.8036   44.6161   66.2064 H   0  0  0  0  0  0
   10.2608   33.6321   73.3539 H   0  0  0  0  0  0
   11.0663   35.5759   74.6787 H   0  0  0  0  0  0
   10.5170   37.8728   73.9055 H   0  0  0  0  0  0
   10.2899   39.6704   65.9794 H   0  0  0  0  0  0
    9.2042   37.7943   67.1608 H   0  0  0  0  0  0
    6.8491   40.4870   69.5027 H   0  0  0  0  0  0
    8.2929   44.3460   67.0463 H   0  0  0  0  0  0
   10.2148   43.8147   65.1015 H   0  0  0  0  0  0
   10.1564   42.2160   64.5503 H   0  0  0  0  0  0
   13.3949   43.7450   67.6735 H   0  0  0  0  0  0
   14.3750   44.6484   66.6050 H   0  0  0  0  0  0
   15.1878   42.6163   67.1385 H   0  0  0  0  0  0
   14.5967   40.9142   64.9664 H   0  0  0  0  0  0
   13.7207   40.7923   66.4374 H   0  0  0  0  0  0
   15.6888   44.1773   64.9789 H   0  0  0  0  0  0
   18.4618   43.9182   66.0283 H   0  0  0  0  0  0
   18.0682   44.2694   64.3400 H   0  0  0  0  0  0
   19.0531   42.8596   64.7431 H   0  0  0  0  0  0
   13.8641   42.5215   63.2365 H   0  0  0  0  0  0
   12.1211   42.6166   63.1405 H   0  0  0  0  0  0
   13.7810   44.7184   64.2442 H   0  0  0  0  0  0
   12.1214   44.7200   63.8066 H   0  0  0  0  0  0
  1  3  1  0  0  0
  1 13  1  0  0  0
  2  3  1  0  0  0
  2  6  1  0  0  0
  3  4  2  0  0  0
  4  5  1  0  0  0
  5  6  1  0  0  0
  5  7  2  0  0  0
  6 10  2  0  0  0
  7  8  1  0  0  0
  8  9  2  0  0  0
  8 35  1  0  0  0
  9 10  1  0  0  0
  9 36  1  0  0  0
 10 37  1  0  0  0
 11 16  2  0  0  0
 11 12  1  0  0  0
 11 38  1  0  0  0
 12 13  2  0  0  0
 12 39  1  0  0  0
 13 14  1  0  0  0
 14 17  2  0  0  0
 14 40  1  0  0  0
 15 16  1  0  0  0
 15 19  2  0  0  0
 15 20  1  0  0  0
 16 17  1  0  0  0
 17 18  1  0  0  0
 18 19  1  0  0  0
 19 41  1  0  0  0
 20 21  1  0  0  0
 20 42  1  0  0  0
 20 43  1  0  0  0
 21 22  1  0  0  0
 21 26  1  0  0  0
 22 23  1  0  0  0
 22 32  1  0  0  0
 22 34  1  0  0  0
 23 24  1  0  0  0
 23 44  1  0  0  0
 23 45  1  0  0  0
 24 25  1  0  0  0
 24 27  1  0  0  0
 24 46  1  0  0  0
 25 26  1  0  0  0
 25 47  1  0  0  0
 25 48  1  0  0  0
 26 31  1  0  0  0
 26 33  1  0  0  0
 27 28  1  0  0  0
 27 49  1  0  0  0
 28 29  2  0  0  0
 28 30  1  0  0  0
 30 50  1  0  0  0
 30 51  1  0  0  0
 30 52  1  0  0  0
 31 32  1  0  0  0
 31 53  1  0  0  0
 31 54  1  0  0  0
 32 55  1  0  0  0
 32 56  1  0  0  0
M  END
> <s_m_entry_id>
6797

> <s_m_entry_name>
dock_pv.227

> <s_m_Source_Path>
/home/csk/Desktop/cluster/DUD-E-result/lkha4

> <s_m_Source_File>
dock_pv.maegz

> <i_m_Source_File_Index>
227

> <chembl_id>
CHEMBL2313573

> <chembl_pref_name>
None

> <i_lp_mmshare_version>
53161

> <i_f3d_flags>
0

> <r_lp_tautomer_probability>
1

> <s_lp_Force_Field>
OPLS_2005

> <r_lp_Energy>
48.42229

> <b_lp_Chiralities_Consistent>
1

> <s_lp_Variant>
CHEMBL4618_lig442-1

> <s_i_glide_gridfile>
glide-grid_3chp

> <i_i_glide_lignum>
518

> <i_i_glide_rotatable_bonds>
6

> <r_i_docking_score>
-9.28807383792014

> <r_i_glide_ligand_efficiency>
-0.290252307435004

> <r_i_glide_ligand_efficiency_sa>
-0.921493635252495

> <r_i_glide_ligand_efficiency_ln>
-2.07985291564087

> <r_i_glide_gscore>
-9.28807383792014

> <r_i_glide_lipo>
-4.99280332279581

> <r_i_glide_hbond>
-0.539443284674576

> <r_i_glide_metal>
0

> <r_i_glide_rewards>
-1.493411301556

> <r_i_glide_evdw>
-18.7986583709717

> <r_i_glide_ecoul>
-10.8024568557739

> <r_i_glide_erotb>
0.497885518020915

> <r_i_glide_esite>
-0.2

> <r_i_glide_emodel>
-39.4454616670043

> <r_i_glide_energy>
-29.6011152267456

> <r_i_glide_einternal>
16.2866249084473

> <i_i_glide_confnum>
13

> <i_i_glide_posenum>
391

> <r_i_glide_eff_state_penalty>
0

> <s_user_duplicate_titles>
CHEMBL4618_lig442

> <s_m_subgroup_title>
dock_pv

> <s_m_subgroupid>
dock_pv

> <b_m_subgroup_collapsed>
1

$$$$
CHEMBL4618_lig11
                    3D
 Schrodinger Suite 2021-1.
 42 43  0  0  1  0            999 V2000
   10.0939   42.8035   66.2599 C   0  0  0  0  0  0
   11.5880   42.4702   65.9399 C   0  0  0  0  0  0
    9.4611   42.0947   67.4557 C   0  0  2  0  0  0
    9.4728   43.5934   65.5405 O   0  0  0  0  0  0
    8.7851   40.7648   67.0031 C   0  0  0  0  0  0
   12.1452   41.4466   66.3399 O   0  0  0  0  0  0
    8.1429   36.6419   70.9331 O   0  0  0  0  0  0
    8.5209   43.0159   68.1296 N   0  0  0  0  0  0
    8.5210   39.7159   68.0934 C   0  0  0  0  0  0
    8.2281   37.7041   70.0507 C   0  0  0  0  0  0
   12.1347   43.4193   65.1420 O   0  0  0  0  0  0
    8.3238   36.8105   72.3479 C   0  0  0  0  0  0
    8.5210   40.0311   69.4485 C   0  0  0  0  0  0
    8.2885   38.3909   67.7220 C   0  0  0  0  0  0
    8.1209   37.4041   68.6939 C   0  0  0  0  0  0
    8.4249   39.0370   70.4157 C   0  0  0  0  0  0
    9.3475   35.8182   72.8947 C   0  0  0  0  0  0
   13.4695   43.2922   64.6746 C   0  0  0  0  0  0
    9.6041   34.6160   72.2302 C   0  0  0  0  0  0
   10.0097   36.0985   74.0951 C   0  0  0  0  0  0
   10.9209   35.1851   74.6215 C   0  0  0  0  0  0
   10.5210   33.7063   72.7483 C   0  0  0  0  0  0
   11.1788   33.9975   73.9402 C   0  0  0  0  0  0
   10.2683   41.8509   68.1456 H   0  0  0  0  0  0
    7.8567   40.9869   66.4743 H   0  0  0  0  0  0
    9.4460   40.2599   66.2976 H   0  0  0  0  0  0
    8.8893   43.9646   68.1596 H   0  0  0  0  0  0
    7.6322   43.0969   67.6488 H   0  0  0  0  0  0
    8.6318   37.8005   72.6698 H   0  0  0  0  0  0
    7.3658   36.6169   72.8294 H   0  0  0  0  0  0
    8.6335   41.0491   69.7703 H   0  0  0  0  0  0
    8.2621   38.1217   66.6770 H   0  0  0  0  0  0
    7.9608   36.3806   68.3939 H   0  0  0  0  0  0
    8.4703   39.3670   71.4390 H   0  0  0  0  0  0
   13.7207   44.1457   64.0446 H   0  0  0  0  0  0
   13.5932   42.3855   64.0798 H   0  0  0  0  0  0
   14.1754   43.2630   65.5055 H   0  0  0  0  0  0
    9.0589   34.3716   71.3298 H   0  0  0  0  0  0
    9.8092   37.0160   74.6302 H   0  0  0  0  0  0
   11.4188   35.3912   75.5583 H   0  0  0  0  0  0
   10.7067   32.7691   72.2437 H   0  0  0  0  0  0
   11.8745   33.2811   74.3542 H   0  0  0  0  0  0
  1  2  1  0  0  0
  1  3  1  0  0  0
  1  4  2  0  0  0
  2  6  2  0  0  0
  2 11  1  0  0  0
  3  5  1  0  0  0
  3  8  1  0  0  0
  3 24  1  0  0  0
  5  9  1  0  0  0
  5 25  1  0  0  0
  5 26  1  0  0  0
  7 10  1  0  0  0
  7 12  1  0  0  0
  8 27  1  0  0  0
  8 28  1  0  0  0
  9 13  2  0  0  0
  9 14  1  0  0  0
 10 15  1  0  0  0
 10 16  2  0  0  0
 11 18  1  0  0  0
 12 17  1  0  0  0
 12 29  1  0  0  0
 12 30  1  0  0  0
 13 16  1  0  0  0
 13 31  1  0  0  0
 14 15  2  0  0  0
 14 32  1  0  0  0
 15 33  1  0  0  0
 16 34  1  0  0  0
 17 19  2  0  0  0
 17 20  1  0  0  0
 18 35  1  0  0  0
 18 36  1  0  0  0
 18 37  1  0  0  0
 19 22  1  0  0  0
 19 38  1  0  0  0
 20 21  2  0  0  0
 20 39  1  0  0  0
 21 23  1  0  0  0
 21 40  1  0  0  0
 22 23  2  0  0  0
 22 41  1  0  0  0
 23 42  1  0  0  0
M  END
> <s_m_entry_id>
6798

> <s_m_entry_name>
dock_pv.228

> <s_m_Source_Path>
/home/csk/Desktop/cluster/DUD-E-result/lkha4

> <s_m_Source_File>
dock_pv.maegz

> <i_m_Source_File_Index>
228

> <chembl_id>
CHEMBL68679

> <chembl_pref_name>
None

> <i_lp_mmshare_version>
53161

> <i_f3d_flags>
0

> <r_lp_tautomer_probability>
1

> <s_lp_Force_Field>
OPLS_2005

> <r_lp_Energy>
24.990153

> <b_lp_Chiralities_Consistent>
1

> <s_lp_Variant>
CHEMBL4618_lig11-1

> <s_i_glide_gridfile>
glide-grid_3chp

> <i_i_glide_lignum>
11

> <i_i_glide_rotatable_bonds>
8

> <r_i_docking_score>
-9.28789305579006

> <r_i_glide_ligand_efficiency>
-0.403821437208264

> <r_i_glide_ligand_efficiency_sa>
-1.1484144498325

> <r_i_glide_ligand_efficiency_ln>
-2.24589675884803

> <r_i_glide_gscore>
-9.28789305579006

> <r_i_glide_lipo>
-4.83235069625825

> <r_i_glide_hbond>
-0.320607049473011

> <r_i_glide_metal>
0

> <r_i_glide_rewards>
-2.17258992641956

> <r_i_glide_evdw>
-48.1902465820312

> <r_i_glide_ecoul>
-5.8462438583374

> <r_i_glide_erotb>
1.32410352421293

> <r_i_glide_esite>
0

> <r_i_glide_emodel>
-77.318015766729

> <r_i_glide_energy>
-54.0364904403687

> <r_i_glide_einternal>
8.24727821350098

> <i_i_glide_confnum>
100

> <i_i_glide_posenum>
388

> <r_i_glide_eff_state_penalty>
0

> <s_user_duplicate_titles>
CHEMBL4618_lig11,110996

> <s_m_subgroup_title>
dock_pv

> <s_m_subgroupid>
dock_pv

> <b_m_subgroup_collapsed>
1

$$$$
CHEMBL4618_lig147
                    3D
 Schrodinger Suite 2021-1.
 49 50  0  0  1  0            999 V2000
   16.5635   42.6022   65.0041 C   0  0  0  0  0  0
   10.1210   35.0754   73.1400 S   0  0  0  0  0  0
   15.1667   43.0160   64.5650 C   0  0  0  0  0  0
    8.5347   36.5827   71.6644 C   0  0  0  0  0  0
    8.9586   35.2715   71.8671 C   0  0  0  0  0  0
   10.0027   36.7618   73.4869 C   0  0  0  0  0  0
    9.1310   37.4160   72.6243 C   0  0  0  0  0  0
   16.8653   41.4160   65.1400 O   0  0  0  0  0  0
    7.5229   37.0074   70.6076 C   0  0  0  0  0  0
   13.9839   42.1552   65.0535 C   0  0  0  0  0  0
   12.8286   42.9971   65.3854 N   0  0  2  0  0  0
    7.9918   38.0419   69.5947 C   0  0  0  0  0  0
    8.7417   39.9950   67.7274 C   0  0  0  0  0  0
   17.3730   43.6547   65.2265 O   0  0  0  0  0  0
    8.1210   37.7121   68.2494 C   0  0  0  0  0  0
    8.2130   39.3510   69.9907 C   0  0  0  0  0  0
    8.5210   38.6769   67.3234 C   0  0  0  0  0  0
    8.5210   40.3342   69.0667 C   0  0  0  0  0  0
   10.4036   42.8832   66.1324 C   0  0  0  0  0  0
    9.1852   40.8908   66.7740 O   0  0  0  0  0  0
   11.7629   42.1656   65.9645 C   0  0  0  0  0  0
    9.4904   42.2294   67.1676 C   0  0  0  0  0  0
   12.3743   43.7911   64.2424 C   0  0  0  0  0  0
   18.7433   43.4518   65.5409 C   0  0  0  0  0  0
   15.0254   44.0453   64.8945 H   0  0  0  0  0  0
   15.1608   43.0160   63.4746 H   0  0  0  0  0  0
    8.6389   34.4041   71.3090 H   0  0  0  0  0  0
   10.5578   37.1923   74.3076 H   0  0  0  0  0  0
    8.9210   38.4705   72.7041 H   0  0  0  0  0  0
    6.6370   37.4160   71.0967 H   0  0  0  0  0  0
    7.1816   36.1360   70.0495 H   0  0  0  0  0  0
   13.7209   41.4203   64.2889 H   0  0  0  0  0  0
   14.2570   41.5871   65.9400 H   0  0  0  0  0  0
    7.9475   36.6945   67.9400 H   0  0  0  0  0  0
    8.1210   39.6205   71.0279 H   0  0  0  0  0  0
    8.6718   38.4017   66.2899 H   0  0  0  0  0  0
    8.6307   41.3430   69.4299 H   0  0  0  0  0  0
   10.5362   43.9410   66.3400 H   0  0  0  0  0  0
    9.8727   42.8382   65.1812 H   0  0  0  0  0  0
   11.6123   41.2759   65.3539 H   0  0  0  0  0  0
   12.0935   41.7881   66.9323 H   0  0  0  0  0  0
   10.0169   42.2758   68.1216 H   0  0  0  0  0  0
    8.5643   42.7974   67.2731 H   0  0  0  0  0  0
   11.7210   44.5870   64.5932 H   0  0  0  0  0  0
   13.1825   44.2847   63.7027 H   0  0  0  0  0  0
   11.8244   43.1715   63.5400 H   0  0  0  0  0  0
   19.2405   44.4138   65.6641 H   0  0  0  0  0  0
   19.2520   42.9118   64.7401 H   0  0  0  0  0  0
   18.8571   42.8861   66.4668 H   0  0  0  0  0  0
  1  3  1  0  0  0
  1  8  2  0  0  0
  1 14  1  0  0  0
  2  5  1  0  0  0
  2  6  1  0  0  0
  3 10  1  0  0  0
  3 25  1  0  0  0
  3 26  1  0  0  0
  4  9  1  0  0  0
  4  5  2  0  0  0
  4  7  1  0  0  0
  5 27  1  0  0  0
  6  7  2  0  0  0
  6 28  1  0  0  0
  7 29  1  0  0  0
  9 12  1  0  0  0
  9 30  1  0  0  0
  9 31  1  0  0  0
 10 11  1  0  0  0
 10 32  1  0  0  0
 10 33  1  0  0  0
 11 21  1  0  0  0
 11 23  1  0  0  0
 12 16  1  0  0  0
 12 15  2  0  0  0
 13 20  1  0  0  0
 13 17  2  0  0  0
 13 18  1  0  0  0
 14 24  1  0  0  0
 15 17  1  0  0  0
 15 34  1  0  0  0
 16 18  2  0  0  0
 16 35  1  0  0  0
 17 36  1  0  0  0
 18 37  1  0  0  0
 19 21  1  0  0  0
 19 22  1  0  0  0
 19 38  1  0  0  0
 19 39  1  0  0  0
 20 22  1  0  0  0
 21 40  1  0  0  0
 21 41  1  0  0  0
 22 42  1  0  0  0
 22 43  1  0  0  0
 23 44  1  0  0  0
 23 45  1  0  0  0
 23 46  1  0  0  0
 24 47  1  0  0  0
 24 48  1  0  0  0
 24 49  1  0  0  0
M  END
> <s_m_entry_id>
6799

> <s_m_entry_name>
dock_pv.229

> <s_m_Source_Path>
/home/csk/Desktop/cluster/DUD-E-result/lkha4

> <s_m_Source_File>
dock_pv.maegz

> <i_m_Source_File_Index>
229

> <chembl_id>
CHEMBL332556

> <chembl_pref_name>
None

> <i_lp_mmshare_version>
53161

> <i_f3d_flags>
0

> <r_lp_tautomer_probability>
1

> <s_lp_Force_Field>
OPLS_2005

> <r_lp_Energy>
12.426065

> <b_lp_Chiralities_Consistent>
1

> <s_lp_Variant>
CHEMBL4618_lig147-1

> <s_i_glide_gridfile>
glide-grid_3chp

> <i_i_glide_lignum>
173

> <i_i_glide_rotatable_bonds>
11

> <r_i_docking_score>
-9.26079722133259

> <r_i_glide_ligand_efficiency>
-0.385866550888858

> <r_i_glide_ligand_efficiency_sa>
-1.11303173325182

> <r_i_glide_ligand_efficiency_ln>
-2.21653372535924

> <r_i_glide_gscore>
-9.26079722133259

> <r_i_glide_lipo>
-4.9206835916437

> <r_i_glide_hbond>
-0.32

> <r_i_glide_metal>
0

> <r_i_glide_rewards>
-1.93950719543139

> <r_i_glide_evdw>
-47.3410797119141

> <r_i_glide_ecoul>
-7.9284782409668

> <r_i_glide_erotb>
1.57571928748322

> <r_i_glide_esite>
-0.1

> <r_i_glide_emodel>
-81.9313630468979

> <r_i_glide_energy>
-55.2695579528809

> <r_i_glide_einternal>
15.2930774688721

> <i_i_glide_confnum>
93

> <i_i_glide_posenum>
176

> <r_i_glide_eff_state_penalty>
0

> <s_user_duplicate_titles>
CHEMBL4618_lig147,192427

> <s_m_subgroup_title>
dock_pv

> <s_m_subgroupid>
dock_pv

> <b_m_subgroup_collapsed>
1

$$$$
CHEMBL4618_lig197
                    3D
 Schrodinger Suite 2021-1.
 42 43  0  0  1  0            999 V2000
   11.1424   42.6160   65.8568 C   0  0  0  0  0  0
   11.5947   43.7282   65.1545 C   0  0  0  0  0  0
   12.9193   43.8160   64.7400 C   0  0  0  0  0  0
   13.8014   42.7793   65.0349 C   0  0  0  0  0  0
   13.3299   41.6349   65.6886 C   0  0  0  0  0  0
   12.0249   41.5754   66.1288 C   0  0  0  0  0  0
   15.1491   43.0160   64.7358 N   0  0  0  0  0  0
   16.2042   42.2077   64.8818 C   0  0  0  0  0  0
   16.1210   41.0160   65.1400 O   0  0  0  0  0  0
   17.5972   42.7972   64.7400 C   0  0  0  0  0  0
   18.4759   42.6867   66.0187 C   0  0  0  0  0  0
   19.2456   43.9791   66.3935 C   0  0  1  0  0  0
   18.4175   45.0160   67.2070 C   0  0  0  0  0  0
   20.4805   43.6675   67.1400 N   0  0  0  0  0  0
   17.0977   45.0160   66.8582 O   0  0  0  0  0  0
   18.9208   45.7899   68.0271 O   0  0  0  0  0  0
    9.8207   42.6254   66.3115 N   0  0  0  0  0  0
    9.1023   41.6947   67.0676 C   0  0  0  0  0  0
    8.1210   42.2160   67.8980 C   0  0  0  0  0  0
    7.4216   41.3708   68.7401 C   0  0  0  0  0  0
    7.7210   40.0097   68.7750 C   0  0  0  0  0  0
    8.6479   39.4658   67.8970 C   0  0  0  0  0  0
    9.3210   40.3100   67.0244 C   0  0  0  0  0  0
   10.9313   44.5598   65.0002 H   0  0  0  0  0  0
   13.2642   44.7120   64.2433 H   0  0  0  0  0  0
   13.9561   40.7963   65.9400 H   0  0  0  0  0  0
   11.7533   40.7241   66.7209 H   0  0  0  0  0  0
   15.3219   43.8967   64.2559 H   0  0  0  0  0  0
   17.5509   43.8166   64.3530 H   0  0  0  0  0  0
   18.0708   42.2160   63.9520 H   0  0  0  0  0  0
   19.1907   41.8762   65.8565 H   0  0  0  0  0  0
   17.9013   42.3491   66.8839 H   0  0  0  0  0  0
   19.5379   44.4811   65.4696 H   0  0  0  0  0  0
   20.7942   44.4571   67.6853 H   0  0  0  0  0  0
   20.3753   42.8799   67.7644 H   0  0  0  0  0  0
   16.8902   44.3219   66.2287 H   0  0  0  0  0  0
    9.4225   43.5521   66.3522 H   0  0  0  0  0  0
    7.9048   43.2758   67.9177 H   0  0  0  0  0  0
    6.6714   41.7930   69.3892 H   0  0  0  0  0  0
    7.1957   39.3660   69.4645 H   0  0  0  0  0  0
    8.8381   38.4020   67.8841 H   0  0  0  0  0  0
    9.9894   39.8611   66.3079 H   0  0  0  0  0  0
  1  6  1  0  0  0
  1  2  2  0  0  0
  1 17  1  0  0  0
  2  3  1  0  0  0
  2 24  1  0  0  0
  3  4  2  0  0  0
  3 25  1  0  0  0
  4  7  1  0  0  0
  4  5  1  0  0  0
  5  6  2  0  0  0
  5 26  1  0  0  0
  6 27  1  0  0  0
  7  8  1  0  0  0
  7 28  1  0  0  0
  8  9  2  0  0  0
  8 10  1  0  0  0
 10 11  1  0  0  0
 10 29  1  0  0  0
 10 30  1  0  0  0
 11 12  1  0  0  0
 11 31  1  0  0  0
 11 32  1  0  0  0
 12 13  1  0  0  0
 12 14  1  0  0  0
 12 33  1  0  0  0
 13 15  1  0  0  0
 13 16  2  0  0  0
 14 34  1  0  0  0
 14 35  1  0  0  0
 15 36  1  0  0  0
 17 18  1  0  0  0
 17 37  1  0  0  0
 18 19  2  0  0  0
 18 23  1  0  0  0
 19 20  1  0  0  0
 19 38  1  0  0  0
 20 21  2  0  0  0
 20 39  1  0  0  0
 21 22  1  0  0  0
 21 40  1  0  0  0
 22 23  2  0  0  0
 22 41  1  0  0  0
 23 42  1  0  0  0
M  END
> <s_m_entry_id>
6800

> <s_m_entry_name>
dock_pv.230

> <s_m_Source_Path>
/home/csk/Desktop/cluster/DUD-E-result/lkha4

> <s_m_Source_File>
dock_pv.maegz

> <i_m_Source_File_Index>
230

> <chembl_id>
CHEMBL517211

> <chembl_pref_name>
None

> <i_lp_mmshare_version>
53161

> <i_f3d_flags>
0

> <r_lp_tautomer_probability>
1

> <s_lp_Force_Field>
OPLS_2005

> <r_lp_Energy>
19.270308

> <b_lp_Chiralities_Consistent>
1

> <s_lp_Variant>
CHEMBL4618_lig197-1

> <s_i_glide_gridfile>
glide-grid_3chp

> <i_i_glide_lignum>
225

> <i_i_glide_rotatable_bonds>
9

> <r_i_docking_score>
-9.25917080074557

> <r_i_glide_ligand_efficiency>
-0.402572643510677

> <r_i_glide_ligand_efficiency_sa>
-1.144863046675

> <r_i_glide_ligand_efficiency_ln>
-2.23895145713926

> <r_i_glide_gscore>
-9.25917080074557

> <r_i_glide_lipo>
-3.37176081966003

> <r_i_glide_hbond>
-0.690707752652648

> <r_i_glide_metal>
0

> <r_i_glide_rewards>
-1.73257996498957

> <r_i_glide_evdw>
-37.1850929260254

> <r_i_glide_ecoul>
-19.2861824035645

> <r_i_glide_erotb>
1.51323315285624

> <r_i_glide_esite>
-0.22517340946362

> <r_i_glide_emodel>
-90.9803580337486

> <r_i_glide_energy>
-56.4712753295898

> <r_i_glide_einternal>
12.2096643447876

> <i_i_glide_confnum>
153

> <i_i_glide_posenum>
315

> <r_i_glide_eff_state_penalty>
0

> <s_user_duplicate_titles>
CHEMBL4618_lig197,507012

> <s_m_subgroup_title>
dock_pv

> <s_m_subgroupid>
dock_pv

> <b_m_subgroup_collapsed>
1

$$$$
CHEMBL4618_lig216
                    3D
 Schrodinger Suite 2021-1.
 49 51  0  0  1  0            999 V2000
   11.0861   42.5217   65.8280 C   0  0  0  0  0  0
   11.5329   43.6493   65.1482 C   0  0  0  0  0  0
   12.8652   43.7826   64.7660 C   0  0  0  0  0  0
   13.7721   42.7660   65.0588 C   0  0  0  0  0  0
   13.3207   41.6098   65.7072 C   0  0  0  0  0  0
   12.0009   41.5058   66.1127 C   0  0  0  0  0  0
   15.1165   43.0160   64.7400 N   0  0  0  0  0  0
   16.1822   42.2160   64.8903 C   0  0  0  0  0  0
   16.1210   41.0160   65.1400 O   0  0  0  0  0  0
   17.5615   42.8385   64.7400 C   0  0  0  0  0  0
   18.4395   42.8430   66.0137 C   0  0  0  0  0  0
   17.8483   43.5307   67.2695 C   0  0  1  0  0  0
   18.7234   43.2862   68.5186 C   0  0  0  0  0  0
   17.7211   44.9580   67.0297 N   0  0  0  0  0  0
   18.1780   44.0890   70.0644 S   0  0  0  0  0  0
    9.7365   42.4593   66.1133 O   0  0  0  0  0  0
    9.2227   41.6096   67.0660 C   0  0  0  0  0  0
    8.5505   42.1819   68.1403 C   0  0  0  0  0  0
    8.0002   41.3669   69.1194 C   0  0  0  0  0  0
    8.1210   39.9821   69.0308 C   0  0  0  0  0  0
    8.7579   39.3991   67.9403 C   0  0  0  0  0  0
    9.2924   40.2148   66.9488 C   0  0  0  0  0  0
   19.2635   43.3860   71.2753 C   0  0  0  0  0  0
   19.3041   43.8159   72.5148 N   0  0  0  0  0  0
   20.2363   43.1550   73.3049 N   0  0  0  0  0  0
   20.8716   42.2233   72.6464 C   0  0  0  0  0  0
   20.3838   42.0704   70.9882 S   0  0  0  0  0  0
   21.8288   41.4160   73.1797 N   0  0  0  0  0  0
   10.8333   44.4418   64.9618 H   0  0  0  0  0  0
   13.1916   44.6869   64.2722 H   0  0  0  0  0  0
   13.9604   40.7766   65.9400 H   0  0  0  0  0  0
   11.7143   40.6160   66.6378 H   0  0  0  0  0  0
   15.3012   43.9107   64.2932 H   0  0  0  0  0  0
   17.4881   43.8495   64.3400 H   0  0  0  0  0  0
   18.0540   42.2160   63.9938 H   0  0  0  0  0  0
   19.3951   43.3063   65.7602 H   0  0  0  0  0  0
   18.7061   41.8160   66.2524 H   0  0  0  0  0  0
   16.8526   43.1336   67.4714 H   0  0  0  0  0  0
   19.7540   43.5857   68.3226 H   0  0  0  0  0  0
   18.7433   42.2138   68.6977 H   0  0  0  0  0  0
   17.4444   45.3773   67.9073 H   0  0  0  0  0  0
   18.6342   45.3221   66.8027 H   0  0  0  0  0  0
    8.4478   43.2558   68.2079 H   0  0  0  0  0  0
    7.4693   41.8160   69.9400 H   0  0  0  0  0  0
    7.6922   39.3595   69.8028 H   0  0  0  0  0  0
    8.8303   38.3240   67.8574 H   0  0  0  0  0  0
    9.7607   39.7587   66.0888 H   0  0  0  0  0  0
   22.1212   41.5395   74.1379 H   0  0  0  0  0  0
   22.1210   40.5439   72.7400 H   0  0  0  0  0  0
  1 16  1  0  0  0
  1  6  1  0  0  0
  1  2  2  0  0  0
  2  3  1  0  0  0
  2 29  1  0  0  0
  3  4  2  0  0  0
  3 30  1  0  0  0
  4  7  1  0  0  0
  4  5  1  0  0  0
  5  6  2  0  0  0
  5 31  1  0  0  0
  6 32  1  0  0  0
  7  8  1  0  0  0
  7 33  1  0  0  0
  8  9  2  0  0  0
  8 10  1  0  0  0
 10 11  1  0  0  0
 10 34  1  0  0  0
 10 35  1  0  0  0
 11 12  1  0  0  0
 11 36  1  0  0  0
 11 37  1  0  0  0
 12 14  1  0  0  0
 12 13  1  0  0  0
 12 38  1  0  0  0
 13 15  1  0  0  0
 13 39  1  0  0  0
 13 40  1  0  0  0
 14 41  1  0  0  0
 14 42  1  0  0  0
 15 23  1  0  0  0
 16 17  1  0  0  0
 17 18  2  0  0  0
 17 22  1  0  0  0
 18 19  1  0  0  0
 18 43  1  0  0  0
 19 20  2  0  0  0
 19 44  1  0  0  0
 20 21  1  0  0  0
 20 45  1  0  0  0
 21 22  2  0  0  0
 21 46  1  0  0  0
 22 47  1  0  0  0
 23 24  2  0  0  0
 23 27  1  0  0  0
 24 25  1  0  0  0
 25 26  2  0  0  0
 26 27  1  0  0  0
 26 28  1  0  0  0
 28 48  1  0  0  0
 28 49  1  0  0  0
M  END
> <s_m_entry_id>
6801

> <s_m_entry_name>
dock_pv.231

> <s_m_Source_Path>
/home/csk/Desktop/cluster/DUD-E-result/lkha4

> <s_m_Source_File>
dock_pv.maegz

> <i_m_Source_File_Index>
231

> <chembl_id>
CHEMBL479215

> <chembl_pref_name>
None

> <i_lp_mmshare_version>
53161

> <i_f3d_flags>
0

> <r_lp_tautomer_probability>
1

> <s_lp_Force_Field>
OPLS_2005

> <r_lp_Energy>
25.621203

> <b_lp_Chiralities_Consistent>
1

> <s_lp_Variant>
CHEMBL4618_lig216-1

> <s_i_glide_gridfile>
glide-grid_3chp

> <i_i_glide_lignum>
244

> <i_i_glide_rotatable_bonds>
10

> <r_i_docking_score>
-9.25023286480315

> <r_i_glide_ligand_efficiency>
-0.330365459457255

> <r_i_glide_ligand_efficiency_sa>
-1.00318410976227

> <r_i_glide_ligand_efficiency_ln>
-2.13522534383518

> <r_i_glide_gscore>
-9.25023286480315

> <r_i_glide_lipo>
-3.70447684559748

> <r_i_glide_hbond>
-0.668103431940158

> <r_i_glide_metal>
0

> <r_i_glide_rewards>
-0.938989136194505

> <r_i_glide_evdw>
-46.742862701416

> <r_i_glide_ecoul>
-16.9718837738037

> <r_i_glide_erotb>
1.14367220185543

> <r_i_glide_esite>
-0.199409951785076

> <r_i_glide_emodel>
-93.1968301445984

> <r_i_glide_energy>
-63.7147464752197

> <r_i_glide_einternal>
11.2346134185791

> <i_i_glide_confnum>
92

> <i_i_glide_posenum>
118

> <r_i_glide_eff_state_penalty>
0

> <s_user_duplicate_titles>
CHEMBL4618_lig216,507061

> <s_m_subgroup_title>
dock_pv

> <s_m_subgroupid>
dock_pv

> <b_m_subgroup_collapsed>
1

$$$$
CHEMBL4618_lig134
                    3D
 Schrodinger Suite 2021-1.
 43 46  0  0  1  0            999 V2000
   14.5835   42.7863   65.1581 N   0  0  0  0  0  0
   16.2082   41.4229   64.3407 N   0  0  0  0  0  0
   15.7758   43.2322   65.6991 C   0  0  0  0  0  0
   14.9322   41.7276   64.3400 C   0  0  0  0  0  0
   16.7643   42.3775   65.1497 C   0  0  0  0  0  0
   16.0079   44.2149   66.5802 N   0  0  0  0  0  0
   18.3724   43.6304   66.4242 N   0  0  0  0  0  0
   17.3228   44.3492   66.8987 C   0  0  0  0  0  0
   18.0885   42.6399   65.5385 C   0  0  0  0  0  0
   13.2332   43.3004   65.3950 C   0  0  0  0  0  0
    8.4276   40.1180   68.3427 C   0  0  0  0  0  0
    7.4712   39.1766   69.0559 C   0  0  0  0  0  0
   10.1733   41.8297   66.9713 C   0  0  0  0  0  0
    8.3525   41.5024   68.5349 C   0  0  0  0  0  0
    9.3161   39.6004   67.4112 C   0  0  0  0  0  0
   10.1856   40.4488   66.7400 C   0  0  0  0  0  0
    9.2152   42.3502   67.8408 C   0  0  0  0  0  0
    8.0682   38.2092   70.0859 C   0  0  0  0  0  0
   11.0680   42.7094   66.3850 O   0  0  0  0  0  0
   12.3164   42.1843   65.9271 C   0  0  0  0  0  0
    8.5396   38.6936   71.3028 C   0  0  0  0  0  0
    8.0709   36.8278   69.8689 C   0  0  0  0  0  0
    9.0171   37.8232   72.2811 C   0  0  0  0  0  0
    8.5210   35.9619   70.8701 C   0  0  0  0  0  0
    8.9951   36.4577   72.0713 C   0  0  0  0  0  0
   14.1686   41.2197   63.7638 H   0  0  0  0  0  0
   17.5606   45.1129   67.6236 H   0  0  0  0  0  0
   18.9249   42.0802   65.1493 H   0  0  0  0  0  0
   13.2878   44.1187   66.1121 H   0  0  0  0  0  0
   12.8540   43.7115   64.4586 H   0  0  0  0  0  0
    6.7415   39.8161   69.5410 H   0  0  0  0  0  0
    6.9229   38.6106   68.3029 H   0  0  0  0  0  0
    7.6272   41.9266   69.2154 H   0  0  0  0  0  0
    9.3341   38.5377   67.2158 H   0  0  0  0  0  0
   10.8722   40.0001   66.0396 H   0  0  0  0  0  0
    9.1578   43.4159   67.9972 H   0  0  0  0  0  0
   12.1482   41.4562   65.1399 H   0  0  0  0  0  0
   12.8150   41.6573   66.7399 H   0  0  0  0  0  0
    8.5216   39.7563   71.4957 H   0  0  0  0  0  0
    7.7204   36.4179   68.9340 H   0  0  0  0  0  0
    9.4014   38.2151   73.2041 H   0  0  0  0  0  0
    8.5210   34.8950   70.7374 H   0  0  0  0  0  0
    9.3517   35.7832   72.8360 H   0  0  0  0  0  0
  1  3  1  0  0  0
  1  4  1  0  0  0
  1 10  1  0  0  0
  2  4  2  0  0  0
  2  5  1  0  0  0
  3  5  2  0  0  0
  3  6  1  0  0  0
  4 26  1  0  0  0
  5  9  1  0  0  0
  6  8  2  0  0  0
  7  8  1  0  0  0
  7  9  2  0  0  0
  8 27  1  0  0  0
  9 28  1  0  0  0
 10 20  1  0  0  0
 10 29  1  0  0  0
 10 30  1  0  0  0
 11 14  2  0  0  0
 11 12  1  0  0  0
 11 15  1  0  0  0
 12 18  1  0  0  0
 12 31  1  0  0  0
 12 32  1  0  0  0
 13 19  1  0  0  0
 13 16  1  0  0  0
 13 17  2  0  0  0
 14 17  1  0  0  0
 14 33  1  0  0  0
 15 16  2  0  0  0
 15 34  1  0  0  0
 16 35  1  0  0  0
 17 36  1  0  0  0
 18 21  2  0  0  0
 18 22  1  0  0  0
 19 20  1  0  0  0
 20 37  1  0  0  0
 20 38  1  0  0  0
 21 23  1  0  0  0
 21 39  1  0  0  0
 22 24  2  0  0  0
 22 40  1  0  0  0
 23 25  2  0  0  0
 23 41  1  0  0  0
 24 25  1  0  0  0
 24 42  1  0  0  0
 25 43  1  0  0  0
M  END
> <s_m_entry_id>
6802

> <s_m_entry_name>
dock_pv.232

> <s_m_Source_Path>
/home/csk/Desktop/cluster/DUD-E-result/lkha4

> <s_m_Source_File>
dock_pv.maegz

> <i_m_Source_File_Index>
232

> <chembl_id>
CHEMBL14502

> <chembl_pref_name>
None

> <i_lp_mmshare_version>
53161

> <i_f3d_flags>
0

> <r_lp_tautomer_probability>
1

> <s_lp_Force_Field>
OPLS_2005

> <r_lp_Energy>
18.774367

> <b_lp_Chiralities_Consistent>
1

> <s_lp_Variant>
CHEMBL4618_lig134-1

> <s_i_glide_gridfile>
glide-grid_3chp

> <i_i_glide_lignum>
160

> <i_i_glide_rotatable_bonds>
6

> <r_i_docking_score>
-9.24515969172459

> <r_i_glide_ligand_efficiency>
-0.369806387668984

> <r_i_glide_ligand_efficiency_sa>
-1.08132043608832

> <r_i_glide_ligand_efficiency_ln>
-2.19137990201772

> <r_i_glide_gscore>
-9.24515969172459

> <r_i_glide_lipo>
-4.59942809591201

> <r_i_glide_hbond>
0

> <r_i_glide_metal>
0

> <r_i_glide_rewards>
-2.00668751959454

> <r_i_glide_evdw>
-47.2066841125488

> <r_i_glide_ecoul>
-5.92728137969971

> <r_i_glide_erotb>
0.861515328357989

> <r_i_glide_esite>
-0.251132991993633

> <r_i_glide_emodel>
-76.86530424603

> <r_i_glide_energy>
-53.1339654922485

> <r_i_glide_einternal>
9.44759464263916

> <i_i_glide_confnum>
36

> <i_i_glide_posenum>
85

> <r_i_glide_eff_state_penalty>
0

> <s_user_duplicate_titles>
CHEMBL4618_lig134,14703

> <s_m_subgroup_title>
dock_pv

> <s_m_subgroupid>
dock_pv

> <b_m_subgroup_collapsed>
1

$$$$
CHEMBL4618_lig181
                    3D
 Schrodinger Suite 2021-1.
 44 45  0  0  1  0            999 V2000
    8.9316   37.9216   72.2110 C   0  0  0  0  0  0
    8.9325   36.5354   72.2501 C   0  0  0  0  0  0
    8.5210   35.8159   71.1401 C   0  0  0  0  0  0
    8.0963   36.4900   69.9964 C   0  0  0  0  0  0
    8.0848   37.8830   69.9482 C   0  0  0  0  0  0
    8.5210   38.6037   71.0640 C   0  0  0  0  0  0
    7.5560   38.5557   68.6808 C   0  0  0  0  0  0
    7.6030   39.9953   68.7400 O   0  0  0  0  0  0
    8.5400   40.6839   67.9878 C   0  0  0  0  0  0
    9.6598   40.0673   67.4322 C   0  0  0  0  0  0
   10.5737   40.7904   66.6866 C   0  0  0  0  0  0
   10.4239   42.1656   66.4942 C   0  0  0  0  0  0
    9.2840   42.7861   67.0147 C   0  0  0  0  0  0
    8.3595   42.0542   67.7714 C   0  0  0  0  0  0
   11.3677   42.9148   65.7460 N   0  0  0  0  0  0
   12.6940   42.6416   65.6348 C   0  0  0  0  0  0
   13.2685   41.8186   66.3400 O   0  0  0  0  0  0
   13.5183   43.3909   64.5710 C   0  0  0  0  0  0
   14.6587   42.5430   63.9112 C   0  0  0  0  0  0
   15.9211   42.1693   64.7445 C   0  0  2  0  0  0
   16.6027   43.3488   65.5003 C   0  0  0  0  0  0
   16.9190   41.4160   63.9400 N   0  0  0  0  0  0
   17.6808   43.9087   64.8653 O   0  0  0  0  0  0
   16.1879   43.7113   66.5979 O   0  0  0  0  0  0
    9.2549   38.4606   73.0850 H   0  0  0  0  0  0
    9.2528   36.0183   73.1430 H   0  0  0  0  0  0
    8.5211   34.7360   71.1642 H   0  0  0  0  0  0
    7.7557   35.9152   69.1477 H   0  0  0  0  0  0
    8.5209   39.6840   71.0570 H   0  0  0  0  0  0
    6.5211   38.2485   68.5526 H   0  0  0  0  0  0
    8.0251   38.1238   67.7975 H   0  0  0  0  0  0
    9.8519   39.0174   67.5710 H   0  0  0  0  0  0
   11.3961   40.2532   66.2422 H   0  0  0  0  0  0
    9.1110   43.8380   66.8514 H   0  0  0  0  0  0
    7.4917   42.5516   68.1828 H   0  0  0  0  0  0
   11.0215   43.7498   65.3023 H   0  0  0  0  0  0
   13.9093   44.3198   64.9846 H   0  0  0  0  0  0
   12.8297   43.6876   63.7793 H   0  0  0  0  0  0
   14.9830   43.0159   62.9892 H   0  0  0  0  0  0
   14.2067   41.6156   63.5528 H   0  0  0  0  0  0
   15.5696   41.5054   65.5310 H   0  0  0  0  0  0
   16.7179   41.6013   62.9504 H   0  0  0  0  0  0
   17.8483   41.8168   64.0617 H   0  0  0  0  0  0
   17.8420   43.6314   63.9515 H   0  0  0  0  0  0
  1  6  1  0  0  0
  1  2  2  0  0  0
  1 25  1  0  0  0
  2  3  1  0  0  0
  2 26  1  0  0  0
  3  4  2  0  0  0
  3 27  1  0  0  0
  4  5  1  0  0  0
  4 28  1  0  0  0
  5  7  1  0  0  0
  5  6  2  0  0  0
  6 29  1  0  0  0
  7  8  1  0  0  0
  7 30  1  0  0  0
  7 31  1  0  0  0
  8  9  1  0  0  0
  9 14  1  0  0  0
  9 10  2  0  0  0
 10 11  1  0  0  0
 10 32  1  0  0  0
 11 12  2  0  0  0
 11 33  1  0  0  0
 12 13  1  0  0  0
 12 15  1  0  0  0
 13 14  2  0  0  0
 13 34  1  0  0  0
 14 35  1  0  0  0
 15 16  1  0  0  0
 15 36  1  0  0  0
 16 17  2  0  0  0
 16 18  1  0  0  0
 18 19  1  0  0  0
 18 37  1  0  0  0
 18 38  1  0  0  0
 19 20  1  0  0  0
 19 39  1  0  0  0
 19 40  1  0  0  0
 20 21  1  0  0  0
 20 22  1  0  0  0
 20 41  1  0  0  0
 21 23  1  0  0  0
 21 24  2  0  0  0
 22 42  1  0  0  0
 22 43  1  0  0  0
 23 44  1  0  0  0
M  END
> <s_m_entry_id>
6803

> <s_m_entry_name>
dock_pv.233

> <s_m_Source_Path>
/home/csk/Desktop/cluster/DUD-E-result/lkha4

> <s_m_Source_File>
dock_pv.maegz

> <i_m_Source_File_Index>
233

> <chembl_id>
CHEMBL478534

> <chembl_pref_name>
None

> <i_lp_mmshare_version>
53161

> <i_f3d_flags>
0

> <r_lp_tautomer_probability>
1

> <s_lp_Force_Field>
OPLS_2005

> <r_lp_Energy>
22.322764

> <b_lp_Chiralities_Consistent>
1

> <s_lp_Variant>
CHEMBL4618_lig181-1

> <s_i_glide_gridfile>
glide-grid_3chp

> <i_i_glide_lignum>
208

> <i_i_glide_rotatable_bonds>
10

> <r_i_docking_score>
-9.24499540440456

> <r_i_glide_ligand_efficiency>
-0.38520814185019

> <r_i_glide_ligand_efficiency_sa>
-1.11113255294762

> <r_i_glide_ligand_efficiency_ln>
-2.21275162547023

> <r_i_glide_gscore>
-9.24499540440456

> <r_i_glide_lipo>
-4.16579175367824

> <r_i_glide_hbond>
-0.000675612762618031

> <r_i_glide_metal>
0

> <r_i_glide_rewards>
-1.7208560062262

> <r_i_glide_evdw>
-39.6560287475586

> <r_i_glide_ecoul>
-18.9500102996826

> <r_i_glide_erotb>
1.56763095059282

> <r_i_glide_esite>
-0.1

> <r_i_glide_emodel>
-94.4655751506301

> <r_i_glide_energy>
-58.6060390472412

> <r_i_glide_einternal>
7.13314580917358

> <i_i_glide_confnum>
166

> <i_i_glide_posenum>
61

> <r_i_glide_eff_state_penalty>
0

> <s_user_duplicate_titles>
CHEMBL4618_lig181

> <s_m_subgroup_title>
dock_pv

> <s_m_subgroupid>
dock_pv

> <b_m_subgroup_collapsed>
1

$$$$
CHEMBL4618_lig414
                    3D
 Schrodinger Suite 2021-1.
 42 45  0  0  1  0            999 V2000
   14.0727   43.1927   64.7421 C   0  0  0  0  0  0
   12.8269   43.8160   64.8216 C   0  0  0  0  0  0
   13.3210   41.2204   65.7099 C   0  0  0  0  0  0
   14.3251   41.9259   65.1400 N   0  0  0  0  0  0
   12.0549   41.7611   65.9062 C   0  0  0  0  0  0
   11.7993   43.0641   65.4095 C   0  0  0  0  0  0
   10.0965   43.4160   65.6280 S   0  0  0  0  0  0
    9.9383   41.8524   66.3848 C   0  0  0  0  0  0
   11.0113   41.1207   66.4725 N   0  0  0  0  0  0
    8.6716   41.4773   66.7400 O   0  0  0  0  0  0
    8.5250   40.3896   67.5612 C   0  0  0  0  0  0
    8.5210   39.0828   67.0668 C   0  0  0  0  0  0
    8.2942   38.0188   67.9400 C   0  0  0  0  0  0
    8.1159   38.2482   69.3060 C   0  0  0  0  0  0
    8.2155   39.5525   69.7828 C   0  0  0  0  0  0
    8.3857   40.6218   68.9187 C   0  0  0  0  0  0
    7.7210   37.1027   70.2417 C   0  0  0  0  0  0
    8.7736   36.6941   71.1762 N   0  0  0  0  0  0
    8.8458   37.5282   72.3793 C   0  0  0  0  0  0
   10.1210   37.1675   73.1400 C   0  0  0  0  0  0
   10.1521   35.6991   73.5849 C   0  0  0  0  0  0
    9.8706   34.8017   72.3771 C   0  0  0  0  0  0
    8.6316   35.2954   71.6004 C   0  0  0  0  0  0
   14.9210   43.7142   64.3400 H   0  0  0  0  0  0
   12.6721   44.8198   64.4554 H   0  0  0  0  0  0
   13.5582   40.2160   66.0116 H   0  0  0  0  0  0
    8.6570   38.9003   66.0105 H   0  0  0  0  0  0
    8.2533   37.0160   67.5489 H   0  0  0  0  0  0
    8.1210   39.7840   70.8240 H   0  0  0  0  0  0
    8.4051   41.6325   69.2990 H   0  0  0  0  0  0
    7.4345   36.2535   69.6189 H   0  0  0  0  0  0
    6.8195   37.3894   70.7867 H   0  0  0  0  0  0
    7.9453   37.4095   72.9843 H   0  0  0  0  0  0
    8.9214   38.5817   72.1434 H   0  0  0  0  0  0
   10.2750   37.8160   73.9873 H   0  0  0  0  0  0
   10.9210   37.4164   72.4641 H   0  0  0  0  0  0
   11.1129   35.4476   74.0351 H   0  0  0  0  0  0
    9.3936   35.5336   74.3513 H   0  0  0  0  0  0
   10.7316   34.7419   71.7121 H   0  0  0  0  0  0
    9.7210   33.7783   72.7183 H   0  0  0  0  0  0
    7.7209   35.1738   72.1795 H   0  0  0  0  0  0
    8.5210   34.6530   70.7400 H   0  0  0  0  0  0
  1  2  2  0  0  0
  1  4  1  0  0  0
  1 24  1  0  0  0
  2  6  1  0  0  0
  2 25  1  0  0  0
  3  5  1  0  0  0
  3  4  2  0  0  0
  3 26  1  0  0  0
  5  6  2  0  0  0
  5  9  1  0  0  0
  6  7  1  0  0  0
  7  8  1  0  0  0
  8  9  2  0  0  0
  8 10  1  0  0  0
 10 11  1  0  0  0
 11 12  2  0  0  0
 11 16  1  0  0  0
 12 13  1  0  0  0
 12 27  1  0  0  0
 13 14  2  0  0  0
 13 28  1  0  0  0
 14 15  1  0  0  0
 14 17  1  0  0  0
 15 16  2  0  0  0
 15 29  1  0  0  0
 16 30  1  0  0  0
 17 18  1  0  0  0
 17 31  1  0  0  0
 17 32  1  0  0  0
 18 19  1  0  0  0
 18 23  1  0  0  0
 19 20  1  0  0  0
 19 33  1  0  0  0
 19 34  1  0  0  0
 20 21  1  0  0  0
 20 35  1  0  0  0
 20 36  1  0  0  0
 21 22  1  0  0  0
 21 37  1  0  0  0
 21 38  1  0  0  0
 22 23  1  0  0  0
 22 39  1  0  0  0
 22 40  1  0  0  0
 23 41  1  0  0  0
 23 42  1  0  0  0
M  END
> <s_m_entry_id>
6804

> <s_m_entry_name>
dock_pv.234

> <s_m_Source_Path>
/home/csk/Desktop/cluster/DUD-E-result/lkha4

> <s_m_Source_File>
dock_pv.maegz

> <i_m_Source_File_Index>
234

> <chembl_id>
CHEMBL2207732

> <chembl_pref_name>
None

> <i_lp_mmshare_version>
53161

> <i_f3d_flags>
0

> <r_lp_tautomer_probability>
1

> <s_lp_Force_Field>
OPLS_2005

> <r_lp_Energy>
24.700034

> <b_lp_Chiralities_Consistent>
1

> <s_lp_Variant>
CHEMBL4618_lig414-1

> <s_i_glide_gridfile>
glide-grid_3chp

> <i_i_glide_lignum>
481

> <i_i_glide_rotatable_bonds>
4

> <r_i_docking_score>
-9.24477782242024

> <r_i_glide_ligand_efficiency>
-0.401946861844358

> <r_i_glide_ligand_efficiency_sa>
-1.14308340685942

> <r_i_glide_ligand_efficiency_ln>
-2.23547110447189

> <r_i_glide_gscore>
-9.24477782242024

> <r_i_glide_lipo>
-5.38608094088403

> <r_i_glide_hbond>
0

> <r_i_glide_metal>
0

> <r_i_glide_rewards>
-2.09025709090909

> <r_i_glide_evdw>
-40.2756805419922

> <r_i_glide_ecoul>
-3.08338904380798

> <r_i_glide_erotb>
0.707852593043686

> <r_i_glide_esite>
0

> <r_i_glide_emodel>
-58.4746563975588

> <r_i_glide_energy>
-43.3590695858002

> <r_i_glide_einternal>
4.50361394882202

> <i_i_glide_confnum>
35

> <i_i_glide_posenum>
66

> <r_i_glide_eff_state_penalty>
0

> <s_user_duplicate_titles>
CHEMBL4618_lig414

> <s_m_subgroup_title>
dock_pv

> <s_m_subgroupid>
dock_pv

> <b_m_subgroup_collapsed>
1

$$$$
CHEMBL4618_lig218
                    3D
 Schrodinger Suite 2021-1.
 45 46  0  0  1  0            999 V2000
   10.5303   42.0965   66.2137 C   0  0  0  0  0  0
   10.8353   43.3010   65.5832 C   0  0  0  0  0  0
   12.1284   43.5479   65.1170 C   0  0  0  0  0  0
   13.1329   42.5863   65.2629 C   0  0  0  0  0  0
   12.8337   41.3711   65.8748 C   0  0  0  0  0  0
   11.5420   41.1422   66.3400 C   0  0  0  0  0  0
   14.4214   42.9518   64.8534 N   0  0  0  0  0  0
   15.5676   42.2449   64.7408 C   0  0  0  0  0  0
   15.7210   41.0163   64.7401 O   0  0  0  0  0  0
   16.7844   43.1376   64.5679 C   0  0  0  0  0  0
   18.0414   42.8006   65.4149 C   0  0  0  0  0  0
   18.3452   43.8577   66.5050 C   0  0  1  0  0  0
   17.2327   43.9875   67.5663 C   0  0  0  0  0  0
   19.6095   43.5427   67.1400 N   0  0  0  0  0  0
   17.6530   45.2354   68.9283 S   0  0  0  0  0  0
    9.2358   41.9033   66.6724 O   0  0  0  0  0  0
    8.8780   40.7849   67.4015 C   0  0  0  0  0  0
    8.8691   39.5054   66.8324 C   0  0  0  0  0  0
    8.5210   38.3975   67.5959 C   0  0  0  0  0  0
    8.2411   38.5523   68.9474 C   0  0  0  0  0  0
    8.2681   39.8160   69.5253 C   0  0  0  0  0  0
    8.5216   40.9400   68.7400 C   0  0  0  0  0  0
   16.1210   45.4160   69.5319 O   0  0  0  0  0  0
   18.0569   46.5188   68.3401 O   0  0  0  0  0  0
   18.4667   44.5871   69.9607 O   0  0  0  0  0  0
   10.0670   44.0532   65.4860 H   0  0  0  0  0  0
   12.3489   44.5043   64.6658 H   0  0  0  0  0  0
   13.5861   40.6089   66.0086 H   0  0  0  0  0  0
   11.3210   40.2160   66.8256 H   0  0  0  0  0  0
   14.5047   43.9185   64.5716 H   0  0  0  0  0  0
   16.5359   44.1843   64.7400 H   0  0  0  0  0  0
   16.9210   43.0403   63.4988 H   0  0  0  0  0  0
   18.8968   42.7452   64.7400 H   0  0  0  0  0  0
   17.9737   41.8160   65.8701 H   0  0  0  0  0  0
   18.4764   44.8281   66.0223 H   0  0  0  0  0  0
   17.0325   43.0380   68.0603 H   0  0  0  0  0  0
   16.3014   44.3275   67.1159 H   0  0  0  0  0  0
   19.5532   42.6649   67.6376 H   0  0  0  0  0  0
   20.3227   43.4160   66.4336 H   0  0  0  0  0  0
    9.1595   39.3559   65.8078 H   0  0  0  0  0  0
    8.5220   37.4160   67.1502 H   0  0  0  0  0  0
    8.0262   37.6851   69.5549 H   0  0  0  0  0  0
    8.1210   39.9127   70.5878 H   0  0  0  0  0  0
    8.5258   41.9246   69.1836 H   0  0  0  0  0  0
   15.7275   44.5331   69.7147 H   0  0  0  0  0  0
  1  6  1  0  0  0
  1  2  2  0  0  0
  1 16  1  0  0  0
  2  3  1  0  0  0
  2 26  1  0  0  0
  3  4  2  0  0  0
  3 27  1  0  0  0
  4  7  1  0  0  0
  4  5  1  0  0  0
  5  6  2  0  0  0
  5 28  1  0  0  0
  6 29  1  0  0  0
  7  8  1  0  0  0
  7 30  1  0  0  0
  8  9  2  0  0  0
  8 10  1  0  0  0
 10 11  1  0  0  0
 10 31  1  0  0  0
 10 32  1  0  0  0
 11 12  1  0  0  0
 11 33  1  0  0  0
 11 34  1  0  0  0
 12 13  1  0  0  0
 12 14  1  0  0  0
 12 35  1  0  0  0
 13 15  1  0  0  0
 13 36  1  0  0  0
 13 37  1  0  0  0
 14 38  1  0  0  0
 14 39  1  0  0  0
 15 23  1  0  0  0
 15 24  2  0  0  0
 15 25  2  0  0  0
 16 17  1  0  0  0
 17 18  2  0  0  0
 17 22  1  0  0  0
 18 19  1  0  0  0
 18 40  1  0  0  0
 19 20  2  0  0  0
 19 41  1  0  0  0
 20 21  1  0  0  0
 20 42  1  0  0  0
 21 22  2  0  0  0
 21 43  1  0  0  0
 22 44  1  0  0  0
 23 45  1  0  0  0
M  END
> <s_m_entry_id>
6805

> <s_m_entry_name>
dock_pv.235

> <s_m_Source_Path>
/home/csk/Desktop/cluster/DUD-E-result/lkha4

> <s_m_Source_File>
dock_pv.maegz

> <i_m_Source_File_Index>
235

> <chembl_id>
CHEMBL477277

> <chembl_pref_name>
None

> <i_lp_mmshare_version>
53161

> <i_f3d_flags>
0

> <r_lp_tautomer_probability>
1

> <s_lp_Force_Field>
OPLS_2005

> <r_lp_Energy>
17.415892

> <b_lp_Chiralities_Consistent>
1

> <s_lp_Variant>
CHEMBL4618_lig218-1

> <s_i_glide_gridfile>
glide-grid_3chp

> <i_i_glide_lignum>
247

> <i_i_glide_rotatable_bonds>
10

> <r_i_docking_score>
-9.24457501675836

> <r_i_glide_ligand_efficiency>
-0.369783000670334

> <r_i_glide_ligand_efficiency_sa>
-1.0812520520895

> <r_i_glide_ligand_efficiency_ln>
-2.19124131652942

> <r_i_glide_gscore>
-9.24457501675836

> <r_i_glide_lipo>
-3.67117891998283

> <r_i_glide_hbond>
-0.25730481369374

> <r_i_glide_metal>
0

> <r_i_glide_rewards>
-1.36152798341397

> <r_i_glide_evdw>
-43.3613128662109

> <r_i_glide_ecoul>
-18.5802936553955

> <r_i_glide_erotb>
1.30287167923798

> <r_i_glide_esite>
-0.30232528728592

> <r_i_glide_emodel>
-92.4446732645862

> <r_i_glide_energy>
-61.9416065216064

> <r_i_glide_einternal>
8.24342918395996

> <i_i_glide_confnum>
146

> <i_i_glide_posenum>
202

> <r_i_glide_eff_state_penalty>
0

> <s_user_duplicate_titles>
CHEMBL4618_lig218,507050

> <s_m_subgroup_title>
dock_pv

> <s_m_subgroupid>
dock_pv

> <b_m_subgroup_collapsed>
1

$$$$
CHEMBL4618_lig23
                    3D
 Schrodinger Suite 2021-1.
 47 49  0  0  1  0            999 V2000
   11.1844   42.9192   65.9612 N   0  0  0  0  0  0
    8.1163   37.8740   69.7041 C   0  0  0  0  0  0
    7.7213   36.8104   70.7325 C   0  0  0  0  0  0
    8.6783   39.9111   67.8406 C   0  0  0  0  0  0
    8.2679   39.1916   70.1115 C   0  0  0  0  0  0
    8.2059   37.5850   68.3398 C   0  0  0  0  0  0
    8.5204   38.5916   67.4224 C   0  0  0  0  0  0
    8.5204   40.2066   69.1943 C   0  0  0  0  0  0
    8.7581   36.3748   71.7804 C   0  0  0  0  0  0
    8.9691   40.8557   66.8787 O   0  0  0  0  0  0
    9.7174   43.0060   66.0672 C   0  0  0  0  0  0
    9.0882   42.2356   67.2430 C   0  0  0  0  0  0
   11.7286   41.5629   66.1561 C   0  0  0  0  0  0
   11.6296   43.5780   64.7230 C   0  0  0  0  0  0
    9.3200   37.2974   72.6651 C   0  0  0  0  0  0
    9.0843   35.0222   71.9284 C   0  0  0  0  0  0
   13.1504   43.5358   64.4975 C   0  0  0  0  0  0
   13.2459   41.4907   65.9122 C   0  0  0  0  0  0
   10.2006   36.8783   73.6569 C   0  0  0  0  0  0
    9.9844   34.6041   72.9036 C   0  0  0  0  0  0
   10.5209   35.5318   73.7850 C   0  0  0  0  0  0
   13.6936   42.1096   64.5861 C   0  0  0  0  0  0
    7.3351   35.9374   70.2055 H   0  0  0  0  0  0
    6.8763   37.2162   71.2878 H   0  0  0  0  0  0
    8.1210   39.4387   71.1477 H   0  0  0  0  0  0
    8.0597   36.5814   67.9768 H   0  0  0  0  0  0
    8.6234   38.3506   66.3734 H   0  0  0  0  0  0
    8.5750   41.2240   69.5403 H   0  0  0  0  0  0
    9.2587   42.6382   65.1514 H   0  0  0  0  0  0
    9.4329   44.0547   66.1561 H   0  0  0  0  0  0
    8.0941   42.6324   67.4598 H   0  0  0  0  0  0
    9.7039   42.3842   68.1313 H   0  0  0  0  0  0
   11.5160   41.2444   67.1736 H   0  0  0  0  0  0
   11.2103   40.8374   65.5389 H   0  0  0  0  0  0
   11.1206   43.1293   63.8731 H   0  0  0  0  0  0
   11.3187   44.6160   64.7477 H   0  0  0  0  0  0
    9.0644   38.3419   72.6230 H   0  0  0  0  0  0
    8.6421   34.2861   71.2761 H   0  0  0  0  0  0
   13.3767   43.9437   63.5129 H   0  0  0  0  0  0
   13.6497   44.1999   65.2028 H   0  0  0  0  0  0
   13.7266   41.9973   66.7422 H   0  0  0  0  0  0
   13.5712   40.4518   65.9470 H   0  0  0  0  0  0
   10.6304   37.5925   74.3406 H   0  0  0  0  0  0
   10.2324   33.5562   73.0005 H   0  0  0  0  0  0
   11.1987   35.2060   74.5588 H   0  0  0  0  0  0
   14.7812   42.1133   64.5104 H   0  0  0  0  0  0
   13.3240   41.5145   63.7503 H   0  0  0  0  0  0
  1 11  1  0  0  0
  1 13  1  0  0  0
  1 14  1  0  0  0
  2  5  2  0  0  0
  2  3  1  0  0  0
  2  6  1  0  0  0
  3  9  1  0  0  0
  3 23  1  0  0  0
  3 24  1  0  0  0
  4 10  1  0  0  0
  4  7  1  0  0  0
  4  8  2  0  0  0
  5  8  1  0  0  0
  5 25  1  0  0  0
  6  7  2  0  0  0
  6 26  1  0  0  0
  7 27  1  0  0  0
  8 28  1  0  0  0
  9 15  2  0  0  0
  9 16  1  0  0  0
 10 12  1  0  0  0
 11 12  1  0  0  0
 11 29  1  0  0  0
 11 30  1  0  0  0
 12 31  1  0  0  0
 12 32  1  0  0  0
 13 18  1  0  0  0
 13 33  1  0  0  0
 13 34  1  0  0  0
 14 17  1  0  0  0
 14 35  1  0  0  0
 14 36  1  0  0  0
 15 19  1  0  0  0
 15 37  1  0  0  0
 16 20  2  0  0  0
 16 38  1  0  0  0
 17 22  1  0  0  0
 17 39  1  0  0  0
 17 40  1  0  0  0
 18 22  1  0  0  0
 18 41  1  0  0  0
 18 42  1  0  0  0
 19 21  2  0  0  0
 19 43  1  0  0  0
 20 21  1  0  0  0
 20 44  1  0  0  0
 21 45  1  0  0  0
 22 46  1  0  0  0
 22 47  1  0  0  0
M  END
> <s_m_entry_id>
6806

> <s_m_entry_name>
dock_pv.236

> <s_m_Source_Path>
/home/csk/Desktop/cluster/DUD-E-result/lkha4

> <s_m_Source_File>
dock_pv.maegz

> <i_m_Source_File_Index>
236

> <chembl_id>
CHEMBL112522

> <chembl_pref_name>
None

> <i_lp_mmshare_version>
53161

> <i_f3d_flags>
0

> <r_lp_tautomer_probability>
1

> <s_lp_Force_Field>
OPLS_2005

> <r_lp_Energy>
28.736706

> <b_lp_Chiralities_Consistent>
1

> <s_lp_Variant>
CHEMBL4618_lig23-1

> <s_i_glide_gridfile>
glide-grid_3chp

> <i_i_glide_lignum>
33

> <i_i_glide_rotatable_bonds>
6

> <r_i_docking_score>
-9.23151822234511

> <r_i_glide_ligand_efficiency>
-0.41961446465205

> <r_i_glide_ligand_efficiency_sa>
-1.17577623245549

> <r_i_glide_ligand_efficiency_ln>
-2.25651978134986

> <r_i_glide_gscore>
-9.23151822234511

> <r_i_glide_lipo>
-5.78096042466428

> <r_i_glide_hbond>
0

> <r_i_glide_metal>
0

> <r_i_glide_rewards>
-2.29486811596316

> <r_i_glide_evdw>
-41.5884017944336

> <r_i_glide_ecoul>
-0.832967877388

> <r_i_glide_erotb>
1.04867558961221

> <r_i_glide_esite>
0

> <r_i_glide_emodel>
-60.2098145354317

> <r_i_glide_energy>
-42.4213696718216

> <r_i_glide_einternal>
3.53682231903076

> <i_i_glide_confnum>
97

> <i_i_glide_posenum>
12

> <r_i_glide_eff_state_penalty>
0

> <s_user_duplicate_titles>
CHEMBL4618_lig23,187680

> <s_m_subgroup_title>
dock_pv

> <s_m_subgroupid>
dock_pv

> <b_m_subgroup_collapsed>
1

$$$$
CHEMBL4618_lig458
                    3D
 Schrodinger Suite 2021-1.
 33 35  0  0  1  0            999 V2000
   16.4213   43.2381   65.5400 S   0  0  0  0  0  0
   15.7491   42.0813   64.4408 C   0  0  0  0  0  0
   14.4666   41.8921   64.5499 N   0  0  0  0  0  0
   13.9191   42.6069   65.5181 C   0  0  0  0  0  0
   14.8072   43.4773   66.1511 C   0  0  0  0  0  0
   16.5210   41.4160   63.5400 N   0  0  0  0  0  0
   12.5019   42.3417   65.8987 C   0  0  0  0  0  0
   12.0948   41.0160   65.9400 C   0  0  0  0  0  0
   10.8119   40.6718   66.3404 C   0  0  0  0  0  0
    9.9094   41.6497   66.7400 C   0  0  0  0  0  0
   10.2917   42.9925   66.6588 C   0  0  0  0  0  0
   11.5833   43.3320   66.2373 C   0  0  0  0  0  0
    8.5210   41.2405   67.2333 C   0  0  0  0  0  0
    8.4637   39.9766   68.1045 C   0  0  0  0  0  0
    8.5209   40.0926   69.4915 C   0  0  0  0  0  0
    8.4162   38.9739   70.3119 C   0  0  0  0  0  0
    8.1971   37.7272   69.7405 C   0  0  0  0  0  0
    8.1210   37.5943   68.3585 C   0  0  0  0  0  0
    8.2631   38.7126   67.5378 C   0  0  0  0  0  0
   14.6110   44.1544   66.9687 H   0  0  0  0  0  0
   15.9609   41.0160   62.7767 H   0  0  0  0  0  0
   17.2711   41.9684   63.1161 H   0  0  0  0  0  0
   12.7719   40.2242   65.6496 H   0  0  0  0  0  0
   10.5210   39.6329   66.3400 H   0  0  0  0  0  0
    9.5939   43.7726   66.9273 H   0  0  0  0  0  0
   11.8826   44.3633   66.1799 H   0  0  0  0  0  0
    7.8788   41.1076   66.3631 H   0  0  0  0  0  0
    8.0754   42.0690   67.7879 H   0  0  0  0  0  0
    8.6095   41.0627   69.9400 H   0  0  0  0  0  0
    8.4570   39.0822   71.3860 H   0  0  0  0  0  0
    8.0882   36.8560   70.3702 H   0  0  0  0  0  0
    7.9547   36.6160   67.9400 H   0  0  0  0  0  0
    8.1965   38.6009   66.4649 H   0  0  0  0  0  0
  1  2  1  0  0  0
  1  5  1  0  0  0
  2  3  2  0  0  0
  2  6  1  0  0  0
  3  4  1  0  0  0
  4  5  2  0  0  0
  4  7  1  0  0  0
  5 20  1  0  0  0
  6 21  1  0  0  0
  6 22  1  0  0  0
  7  8  1  0  0  0
  7 12  2  0  0  0
  8  9  2  0  0  0
  8 23  1  0  0  0
  9 10  1  0  0  0
  9 24  1  0  0  0
 10 11  2  0  0  0
 10 13  1  0  0  0
 11 12  1  0  0  0
 11 25  1  0  0  0
 12 26  1  0  0  0
 13 14  1  0  0  0
 13 27  1  0  0  0
 13 28  1  0  0  0
 14 15  1  0  0  0
 14 19  2  0  0  0
 15 16  2  0  0  0
 15 29  1  0  0  0
 16 17  1  0  0  0
 16 30  1  0  0  0
 17 18  2  0  0  0
 17 31  1  0  0  0
 18 19  1  0  0  0
 18 32  1  0  0  0
 19 33  1  0  0  0
M  END
> <s_m_entry_id>
6807

> <s_m_entry_name>
dock_pv.237

> <s_m_Source_Path>
/home/csk/Desktop/cluster/DUD-E-result/lkha4

> <s_m_Source_File>
dock_pv.maegz

> <i_m_Source_File_Index>
237

> <chembl_id>
CHEMBL3883608

> <chembl_pref_name>
None

> <i_lp_mmshare_version>
53161

> <i_f3d_flags>
0

> <r_lp_tautomer_probability>
1

> <s_lp_Force_Field>
OPLS_2005

> <r_lp_Energy>
11.562868

> <b_lp_Chiralities_Consistent>
1

> <s_lp_Variant>
CHEMBL4618_lig458-1

> <s_i_glide_gridfile>
glide-grid_3chp

> <i_i_glide_lignum>
534

> <i_i_glide_rotatable_bonds>
3

> <r_i_docking_score>
-9.22956919786095

> <r_i_glide_ligand_efficiency>
-0.485766799887418

> <r_i_glide_ligand_efficiency_sa>
-1.29622092844176

> <r_i_glide_ligand_efficiency_ln>
-2.33989402462791

> <r_i_glide_gscore>
-9.22956919786095

> <r_i_glide_lipo>
-3.93939174509082

> <r_i_glide_hbond>
-0.273135715227989

> <r_i_glide_metal>
0

> <r_i_glide_rewards>
-2.492988

> <r_i_glide_evdw>
-31.8542346954346

> <r_i_glide_ecoul>
-10.5635557174683

> <r_i_glide_erotb>
0.753191354849829

> <r_i_glide_esite>
-0.1

> <r_i_glide_emodel>
-59.0234027492437

> <r_i_glide_energy>
-42.4177904129028

> <r_i_glide_einternal>
1.70339441299438

> <i_i_glide_confnum>
7

> <i_i_glide_posenum>
393

> <r_i_glide_eff_state_penalty>
0

> <s_user_duplicate_titles>
CHEMBL4618_lig458

> <s_m_subgroup_title>
dock_pv

> <s_m_subgroupid>
dock_pv

> <b_m_subgroup_collapsed>
1

$$$$
CHEMBL4618_lig98
                    3D
 Schrodinger Suite 2021-1.
 47 50  0  0  1  0            999 V2000
   11.4027   42.6160   65.5401 N   0  0  1  0  0  0
   12.5893   43.4898   65.4383 C   0  0  1  0  0  0
   13.9850   41.8877   64.3511 N   0  0  2  0  0  0
   13.6077   42.9259   66.4148 C   0  0  0  0  0  0
   13.5474   41.5796   65.7121 C   0  0  1  0  0  0
   12.0347   41.3088   65.7956 C   0  0  0  0  0  0
   13.3304   43.1733   64.1170 C   0  0  0  0  0  0
    8.0039   38.0801   69.6106 C   0  0  0  0  0  0
   10.4670   43.0142   66.6064 C   0  0  0  0  0  0
    7.5687   37.0724   70.6749 C   0  0  0  0  0  0
    8.7681   39.9591   67.6713 C   0  0  0  0  0  0
    8.1223   37.7003   68.2760 C   0  0  0  0  0  0
    8.1964   39.4156   69.9404 C   0  0  0  0  0  0
    8.5214   40.3648   68.9810 C   0  0  0  0  0  0
    8.5274   38.6293   67.3166 C   0  0  0  0  0  0
    8.6155   36.5855   71.6875 C   0  0  0  0  0  0
    9.3421   40.7739   66.7204 O   0  0  0  0  0  0
    9.1494   42.1948   66.7040 C   0  0  0  0  0  0
    9.2125   37.4713   72.5827 C   0  0  0  0  0  0
    8.9248   35.2263   71.7897 C   0  0  0  0  0  0
   10.1210   37.0158   73.5386 C   0  0  0  0  0  0
    9.8331   34.7638   72.7371 C   0  0  0  0  0  0
   10.4179   35.6601   73.6218 C   0  0  0  0  0  0
   12.3769   44.5514   65.5585 H   0  0  0  0  0  0
   13.7204   41.1930   63.6652 H   0  0  0  0  0  0
   14.5830   43.4150   66.3720 H   0  0  0  0  0  0
   13.2604   42.9303   67.4465 H   0  0  0  0  0  0
   14.1187   40.7571   66.1286 H   0  0  0  0  0  0
   11.7222   40.4990   65.1403 H   0  0  0  0  0  0
   11.8056   40.9473   66.7978 H   0  0  0  0  0  0
   12.6854   43.2113   63.2437 H   0  0  0  0  0  0
   14.1179   43.9077   63.9413 H   0  0  0  0  0  0
   10.9654   43.0231   67.5772 H   0  0  0  0  0  0
   10.1773   44.0427   66.3886 H   0  0  0  0  0  0
    6.7343   37.4999   71.2340 H   0  0  0  0  0  0
    7.1571   36.2134   70.1486 H   0  0  0  0  0  0
    7.9589   36.6731   67.9888 H   0  0  0  0  0  0
    8.1210   39.7412   70.9629 H   0  0  0  0  0  0
    8.6983   41.3800   69.2979 H   0  0  0  0  0  0
    8.7050   38.3081   66.3005 H   0  0  0  0  0  0
    8.5543   42.5679   67.5347 H   0  0  0  0  0  0
    8.5454   42.4163   65.8270 H   0  0  0  0  0  0
    8.9551   38.5181   72.5572 H   0  0  0  0  0  0
    8.4743   34.5030   71.1406 H   0  0  0  0  0  0
   10.5822   37.7073   74.2250 H   0  0  0  0  0  0
   10.0657   33.7101   72.7981 H   0  0  0  0  0  0
   11.1111   35.3006   74.3679 H   0  0  0  0  0  0
  1  2  1  0  0  0
  1  6  1  0  0  0
  1  9  1  0  0  0
  2  4  1  0  0  0
  2  7  1  0  0  0
  2 24  1  0  0  0
  3  5  1  0  0  0
  3  7  1  0  0  0
  3 25  1  0  0  0
  4  5  1  0  0  0
  4 26  1  0  0  0
  4 27  1  0  0  0
  5  6  1  0  0  0
  5 28  1  0  0  0
  6 29  1  0  0  0
  6 30  1  0  0  0
  7 31  1  0  0  0
  7 32  1  0  0  0
  8 12  2  0  0  0
  8 10  1  0  0  0
  8 13  1  0  0  0
  9 18  1  0  0  0
  9 33  1  0  0  0
  9 34  1  0  0  0
 10 16  1  0  0  0
 10 35  1  0  0  0
 10 36  1  0  0  0
 11 17  1  0  0  0
 11 14  1  0  0  0
 11 15  2  0  0  0
 12 15  1  0  0  0
 12 37  1  0  0  0
 13 14  2  0  0  0
 13 38  1  0  0  0
 14 39  1  0  0  0
 15 40  1  0  0  0
 16 19  2  0  0  0
 16 20  1  0  0  0
 17 18  1  0  0  0
 18 41  1  0  0  0
 18 42  1  0  0  0
 19 21  1  0  0  0
 19 43  1  0  0  0
 20 22  2  0  0  0
 20 44  1  0  0  0
 21 23  2  0  0  0
 21 45  1  0  0  0
 22 23  1  0  0  0
 22 46  1  0  0  0
 23 47  1  0  0  0
M  END
> <s_m_entry_id>
6808

> <s_m_entry_name>
dock_pv.238

> <s_m_Source_Path>
/home/csk/Desktop/cluster/DUD-E-result/lkha4

> <s_m_Source_File>
dock_pv.maegz

> <i_m_Source_File_Index>
238

> <chembl_id>
CHEMBL163822

> <chembl_pref_name>
None

> <i_lp_mmshare_version>
53161

> <i_f3d_flags>
0

> <r_lp_tautomer_probability>
1

> <s_lp_Force_Field>
OPLS_2005

> <r_lp_Energy>
90.373566

> <b_lp_Chiralities_Consistent>
1

> <s_lp_Variant>
CHEMBL4618_lig98-1

> <s_i_glide_gridfile>
glide-grid_3chp

> <i_i_glide_lignum>
121

> <i_i_glide_rotatable_bonds>
6

> <r_i_docking_score>
-9.22378516046524

> <r_i_glide_ligand_efficiency>
-0.401034137411532

> <r_i_glide_ligand_efficiency_sa>
-1.14048773998591

> <r_i_glide_ligand_efficiency_ln>
-2.23039488846023

> <r_i_glide_gscore>
-9.22378516046524

> <r_i_glide_lipo>
-5.67552690208688

> <r_i_glide_hbond>
0

> <r_i_glide_metal>
0

> <r_i_glide_rewards>
-2.08297136627451

> <r_i_glide_evdw>
-37.2298545837402

> <r_i_glide_ecoul>
-3.84201288223267

> <r_i_glide_erotb>
0.972507769418061

> <r_i_glide_esite>
0

> <r_i_glide_emodel>
-59.0361489374692

> <r_i_glide_energy>
-41.0718674659729

> <r_i_glide_einternal>
7.16964817047119

> <i_i_glide_confnum>
27

> <i_i_glide_posenum>
53

> <r_i_glide_eff_state_penalty>
0

> <s_user_duplicate_titles>
CHEMBL4618_lig98

> <s_m_subgroup_title>
dock_pv

> <s_m_subgroupid>
dock_pv

> <b_m_subgroup_collapsed>
1

$$$$
CHEMBL4618_lig67
                    3D
 Schrodinger Suite 2021-1.
 44 46  0  0  1  0            999 V2000
   15.7877   41.9872   65.1397 N   0  0  0  0  0  0
   13.3211   41.5542   65.2523 C   0  0  0  0  0  0
   12.2606   42.3343   65.5564 C   0  0  0  0  0  0
   11.0851   41.8919   66.3401 C   0  0  0  0  0  0
    8.9529   40.9934   67.9517 C   0  0  0  0  0  0
    7.8669   40.4994   68.9065 C   0  0  0  0  0  0
   14.5160   41.9634   64.4088 C   0  0  0  0  0  0
   10.6951   40.5601   66.3400 C   0  0  0  0  0  0
   10.3558   42.7829   67.1223 C   0  0  0  0  0  0
    9.6456   40.1081   67.1299 C   0  0  0  0  0  0
    9.2961   42.3467   67.9204 C   0  0  0  0  0  0
    8.0804   39.1161   69.5358 C   0  0  0  0  0  0
   15.8482   43.1553   66.0167 C   0  0  0  0  0  0
   16.9219   42.2516   64.2674 C   0  0  0  0  0  0
    7.7615   37.9579   68.8248 C   0  0  0  0  0  0
    8.5214   39.0010   70.8565 C   0  0  0  0  0  0
   18.0514   42.6669   65.2170 C   0  0  0  0  0  0
   17.3186   43.2794   66.4100 C   0  0  0  0  0  0
    7.9214   36.7135   69.4269 C   0  0  0  0  0  0
    8.6557   37.7600   71.4676 C   0  0  0  0  0  0
    8.3562   36.6149   70.7433 C   0  0  0  0  0  0
   13.3689   40.5449   65.6341 H   0  0  0  0  0  0
   12.2358   43.3505   65.1881 H   0  0  0  0  0  0
    7.7389   41.2352   69.7017 H   0  0  0  0  0  0
    6.9213   40.5128   68.3726 H   0  0  0  0  0  0
   14.3210   42.8984   63.8789 H   0  0  0  0  0  0
   14.6154   41.1872   63.6491 H   0  0  0  0  0  0
   11.2244   39.8373   65.7363 H   0  0  0  0  0  0
   10.6369   43.8160   67.1359 H   0  0  0  0  0  0
    9.4090   39.0562   67.1079 H   0  0  0  0  0  0
    8.7632   43.0578   68.5353 H   0  0  0  0  0  0
   15.1860   43.0161   66.8699 H   0  0  0  0  0  0
   15.4717   44.0590   65.5299 H   0  0  0  0  0  0
   16.6882   43.0165   63.5283 H   0  0  0  0  0  0
   17.1661   41.3795   63.6648 H   0  0  0  0  0  0
    7.4012   38.0181   67.8072 H   0  0  0  0  0  0
    8.7288   39.8695   71.4460 H   0  0  0  0  0  0
   18.7170   43.3866   64.7401 H   0  0  0  0  0  0
   18.6624   41.8160   65.5178 H   0  0  0  0  0  0
   17.5280   42.7457   67.3379 H   0  0  0  0  0  0
   17.5938   44.3232   66.5629 H   0  0  0  0  0  0
    7.7211   35.8160   68.8672 H   0  0  0  0  0  0
    8.9829   37.6889   72.4948 H   0  0  0  0  0  0
    8.4618   35.6418   71.2003 H   0  0  0  0  0  0
  1  7  1  0  0  0
  1 13  1  0  0  0
  1 14  1  0  0  0
  2  7  1  0  0  0
  2  3  2  0  0  0
  2 22  1  0  0  0
  3  4  1  0  0  0
  3 23  1  0  0  0
  4  8  2  0  0  0
  4  9  1  0  0  0
  5 11  1  0  0  0
  5  6  1  0  0  0
  5 10  2  0  0  0
  6 12  1  0  0  0
  6 24  1  0  0  0
  6 25  1  0  0  0
  7 26  1  0  0  0
  7 27  1  0  0  0
  8 10  1  0  0  0
  8 28  1  0  0  0
  9 11  2  0  0  0
  9 29  1  0  0  0
 10 30  1  0  0  0
 11 31  1  0  0  0
 12 15  2  0  0  0
 12 16  1  0  0  0
 13 18  1  0  0  0
 13 32  1  0  0  0
 13 33  1  0  0  0
 14 17  1  0  0  0
 14 34  1  0  0  0
 14 35  1  0  0  0
 15 19  1  0  0  0
 15 36  1  0  0  0
 16 20  2  0  0  0
 16 37  1  0  0  0
 17 18  1  0  0  0
 17 38  1  0  0  0
 17 39  1  0  0  0
 18 40  1  0  0  0
 18 41  1  0  0  0
 19 21  2  0  0  0
 19 42  1  0  0  0
 20 21  1  0  0  0
 20 43  1  0  0  0
 21 44  1  0  0  0
M  END
> <s_m_entry_id>
6809

> <s_m_entry_name>
dock_pv.239

> <s_m_Source_Path>
/home/csk/Desktop/cluster/DUD-E-result/lkha4

> <s_m_Source_File>
dock_pv.maegz

> <i_m_Source_File_Index>
239

> <chembl_id>
CHEMBL162979

> <chembl_pref_name>
None

> <i_lp_mmshare_version>
53161

> <i_f3d_flags>
0

> <r_lp_tautomer_probability>
1

> <s_lp_Force_Field>
OPLS_2005

> <r_lp_Energy>
32.771597

> <b_lp_Chiralities_Consistent>
1

> <s_lp_Variant>
CHEMBL4618_lig67-1

> <s_i_glide_gridfile>
glide-grid_3chp

> <i_i_glide_lignum>
85

> <i_i_glide_rotatable_bonds>
5

> <r_i_docking_score>
-9.21674330837963

> <r_i_glide_ligand_efficiency>
-0.438892538494268

> <r_i_glide_ligand_efficiency_sa>
-1.21087123405628

> <r_i_glide_ligand_efficiency_ln>
-2.27882115881339

> <r_i_glide_gscore>
-9.21674330837963

> <r_i_glide_lipo>
-4.48204457652527

> <r_i_glide_hbond>
-0.284120456254332

> <r_i_glide_metal>
0

> <r_i_glide_rewards>
-2.41770463636364

> <r_i_glide_evdw>
-33.3682823181152

> <r_i_glide_ecoul>
-8.67020225524902

> <r_i_glide_erotb>
0.936070814956726

> <r_i_glide_esite>
0

> <r_i_glide_emodel>
-61.6462213819676

> <r_i_glide_energy>
-42.0384845733643

> <r_i_glide_einternal>
4.21718740463257

> <i_i_glide_confnum>
15

> <i_i_glide_posenum>
346

> <r_i_glide_eff_state_penalty>
0

> <s_user_duplicate_titles>
CHEMBL4618_lig67,270843

> <s_m_subgroup_title>
dock_pv

> <s_m_subgroupid>
dock_pv

> <b_m_subgroup_collapsed>
1

$$$$
CHEMBL4618_lig71
                    3D
 Schrodinger Suite 2021-1.
 47 49  0  0  1  0            999 V2000
   11.0739   42.6295   65.5502 N   0  0  0  0  0  0
    8.9665   40.9996   66.8208 O   0  0  0  0  0  0
    9.7922   43.1700   66.0178 C   0  0  0  0  0  0
    8.6735   40.0449   67.7810 C   0  0  0  0  0  0
    9.1256   42.3828   67.1755 C   0  0  1  0  0  0
    8.1149   38.0008   69.6355 C   0  0  0  0  0  0
    7.6912   36.9337   70.6433 C   0  0  0  0  0  0
    8.5210   40.3289   69.1400 C   0  0  0  0  0  0
    8.5207   38.7224   67.3582 C   0  0  0  0  0  0
    8.2678   39.3143   70.0499 C   0  0  0  0  0  0
    8.2210   37.7121   68.2768 C   0  0  0  0  0  0
    8.7109   36.4517   71.6780 C   0  0  0  0  0  0
   11.7440   43.4787   64.5765 C   0  0  0  0  0  0
   12.0875   42.4276   66.5709 C   0  0  0  0  0  0
    7.7714   43.0243   67.5368 C   0  0  0  0  0  0
    9.2997   37.3413   72.5781 C   0  0  0  0  0  0
    8.9978   35.0876   71.7891 C   0  0  0  0  0  0
   13.1762   42.9500   64.4748 C   0  0  0  0  0  0
   13.3961   42.2241   65.8044 C   0  0  0  0  0  0
   10.1789   36.8734   73.5498 C   0  0  0  0  0  0
    9.8996   34.6195   72.7400 C   0  0  0  0  0  0
   10.4776   35.5159   73.6307 C   0  0  0  0  0  0
    9.9393   44.1997   66.3405 H   0  0  0  0  0  0
    9.1054   43.2062   65.1717 H   0  0  0  0  0  0
    9.7834   42.4775   68.0414 H   0  0  0  0  0  0
    6.8364   37.3338   71.1910 H   0  0  0  0  0  0
    7.3208   36.0729   70.0878 H   0  0  0  0  0  0
    8.6249   41.3262   69.5327 H   0  0  0  0  0  0
    8.6289   38.4825   66.3106 H   0  0  0  0  0  0
    8.1394   39.5656   71.0881 H   0  0  0  0  0  0
    8.0870   36.6969   67.9404 H   0  0  0  0  0  0
   11.7171   44.5327   64.8590 H   0  0  0  0  0  0
   11.2078   43.4158   63.6296 H   0  0  0  0  0  0
   11.8076   41.5422   67.1400 H   0  0  0  0  0  0
   12.1328   43.2529   67.2846 H   0  0  0  0  0  0
    7.8651   44.0946   67.7136 H   0  0  0  0  0  0
    7.0460   42.9109   66.7401 H   0  0  0  0  0  0
    7.3210   42.6037   68.4317 H   0  0  0  0  0  0
    9.0605   38.3900   72.5578 H   0  0  0  0  0  0
    8.5227   34.3727   71.1400 H   0  0  0  0  0  0
   13.8839   43.7692   64.3388 H   0  0  0  0  0  0
   13.2938   42.2748   63.6250 H   0  0  0  0  0  0
   13.5933   41.1616   65.6519 H   0  0  0  0  0  0
   14.2387   42.6428   66.3543 H   0  0  0  0  0  0
   10.6260   37.5608   74.2515 H   0  0  0  0  0  0
   10.1211   33.5639   72.8098 H   0  0  0  0  0  0
   11.1572   35.1554   74.3896 H   0  0  0  0  0  0
  1  3  1  0  0  0
  1 13  1  0  0  0
  1 14  1  0  0  0
  2  5  1  0  0  0
  2  4  1  0  0  0
  3  5  1  0  0  0
  3 23  1  0  0  0
  3 24  1  0  0  0
  4  8  2  0  0  0
  4  9  1  0  0  0
  5 15  1  0  0  0
  5 25  1  0  0  0
  6 11  1  0  0  0
  6  7  1  0  0  0
  6 10  2  0  0  0
  7 12  1  0  0  0
  7 26  1  0  0  0
  7 27  1  0  0  0
  8 10  1  0  0  0
  8 28  1  0  0  0
  9 11  2  0  0  0
  9 29  1  0  0  0
 10 30  1  0  0  0
 11 31  1  0  0  0
 12 16  1  0  0  0
 12 17  2  0  0  0
 13 18  1  0  0  0
 13 32  1  0  0  0
 13 33  1  0  0  0
 14 19  1  0  0  0
 14 34  1  0  0  0
 14 35  1  0  0  0
 15 36  1  0  0  0
 15 37  1  0  0  0
 15 38  1  0  0  0
 16 20  2  0  0  0
 16 39  1  0  0  0
 17 21  1  0  0  0
 17 40  1  0  0  0
 18 19  1  0  0  0
 18 41  1  0  0  0
 18 42  1  0  0  0
 19 43  1  0  0  0
 19 44  1  0  0  0
 20 22  1  0  0  0
 20 45  1  0  0  0
 21 22  2  0  0  0
 21 46  1  0  0  0
 22 47  1  0  0  0
M  END
> <s_m_entry_id>
6810

> <s_m_entry_name>
dock_pv.240

> <s_m_Source_Path>
/home/csk/Desktop/cluster/DUD-E-result/lkha4

> <s_m_Source_File>
dock_pv.maegz

> <i_m_Source_File_Index>
240

> <chembl_id>
CHEMBL348927

> <chembl_pref_name>
None

> <i_lp_mmshare_version>
53161

> <i_f3d_flags>
0

> <r_lp_tautomer_probability>
1

> <s_lp_Force_Field>
OPLS_2005

> <r_lp_Energy>
36.920355

> <b_lp_Chiralities_Consistent>
1

> <s_lp_Variant>
CHEMBL4618_lig71-2

> <s_i_glide_gridfile>
glide-grid_3chp

> <i_i_glide_lignum>
91

> <i_i_glide_rotatable_bonds>
6

> <r_i_docking_score>
-9.20961489735612

> <r_i_glide_ligand_efficiency>
-0.418618858970733

> <r_i_glide_ligand_efficiency_sa>
-1.17298650618149

> <r_i_glide_ligand_efficiency_ln>
-2.25116580977936

> <r_i_glide_gscore>
-9.20961489735612

> <r_i_glide_lipo>
-5.68154914709341

> <r_i_glide_hbond>
0

> <r_i_glide_metal>
0

> <r_i_glide_rewards>
-2.29487316222256

> <r_i_glide_evdw>
-39.9409713745117

> <r_i_glide_ecoul>
-1.89879739284515

> <r_i_glide_erotb>
1.04867558961221

> <r_i_glide_esite>
0

> <r_i_glide_emodel>
-60.2769456897896

> <r_i_glide_energy>
-41.8397687673569

> <r_i_glide_einternal>
4.16440868377686

> <i_i_glide_confnum>
38

> <i_i_glide_posenum>
243

> <r_i_glide_eff_state_penalty>
0

> <s_user_duplicate_titles>
CHEMBL4618_lig71,271653

> <s_m_subgroup_title>
dock_pv

> <s_m_subgroupid>
dock_pv

> <b_m_subgroup_collapsed>
1

$$$$
CHEMBL4618_lig302
                    3D
 Schrodinger Suite 2021-1.
 62 66  0  0  1  0            999 V2000
    9.3003   36.2159   72.4146 C   0  0  0  0  0  0
    9.2449   37.5876   72.6459 C   0  0  0  0  0  0
    8.5733   38.4276   71.7556 C   0  0  0  0  0  0
    7.9734   37.9124   70.6131 C   0  0  0  0  0  0
    7.9919   36.5406   70.4002 C   0  0  0  0  0  0
    8.6262   35.6959   71.3104 C   0  0  0  0  0  0
    7.3210   38.7296   69.7171 O   0  0  0  0  0  0
    7.9945   39.6952   69.0021 C   0  0  0  0  0  0
    9.2428   39.4163   68.4788 C   0  0  0  0  0  0
    9.9135   40.3856   67.7665 C   0  0  0  0  0  0
    9.3590   41.6288   67.4843 C   0  0  0  0  0  0
    8.0835   41.9014   67.9746 C   0  0  0  0  0  0
    7.4137   40.9436   68.7400 C   0  0  0  0  0  0
   10.0494   42.6156   66.7522 N   0  0  0  0  0  0
   11.5085   42.5597   66.5595 C   0  0  0  0  0  0
   11.9378   41.4227   65.6480 C   0  0  0  0  0  0
   13.4332   41.3012   65.4101 C   0  0  0  0  0  0
   13.9721   42.5513   64.8849 N   0  0  1  0  0  0
   13.4921   43.7673   65.5402 C   0  0  0  0  0  0
   11.9730   43.7791   65.7563 C   0  0  0  0  0  0
   15.3580   42.4850   64.4057 C   0  0  0  0  0  0
   16.5250   42.8989   65.3274 C   0  0  0  0  0  0
   16.5204   43.9808   66.2193 C   0  0  0  0  0  0
   17.6585   44.3331   66.9384 C   0  0  0  0  0  0
   18.8586   43.6469   66.7399 C   0  0  0  0  0  0
   18.8797   42.5968   65.8185 C   0  0  0  0  0  0
   17.7210   42.2207   65.1400 C   0  0  0  0  0  0
   20.1060   44.0600   67.4823 C   0  0  0  0  0  0
   21.2043   43.2980   67.2282 O   0  0  0  0  0  0
   20.1305   45.0161   68.2582 O   0  0  0  0  0  0
   10.1127   35.3342   73.3097 C   0  0  0  0  0  0
   10.5528   35.8333   74.4975 O   0  0  0  0  0  0
   11.3210   34.8404   75.0032 C   0  0  0  0  0  0
   11.3174   33.8161   74.0768 C   0  0  0  0  0  0
   10.5212   34.1073   73.0620 N   0  0  0  0  0  0
    9.7329   37.9994   73.5185 H   0  0  0  0  0  0
    8.5210   39.4875   71.9398 H   0  0  0  0  0  0
    7.4968   36.1224   69.5391 H   0  0  0  0  0  0
    8.6200   34.6295   71.1402 H   0  0  0  0  0  0
    9.7210   38.4673   68.6638 H   0  0  0  0  0  0
   10.9257   40.1654   67.5513 H   0  0  0  0  0  0
    7.6134   42.8572   67.7889 H   0  0  0  0  0  0
    6.4444   41.1841   69.1397 H   0  0  0  0  0  0
    9.7178   43.5373   67.0057 H   0  0  0  0  0  0
   11.9974   42.5068   67.5315 H   0  0  0  0  0  0
   11.5382   41.8160   64.7400 H   0  0  0  0  0  0
   11.4709   40.4494   65.7216 H   0  0  0  0  0  0
   13.6377   40.4662   64.7387 H   0  0  0  0  0  0
   13.9304   41.1014   66.3400 H   0  0  0  0  0  0
   13.9335   43.8295   66.5308 H   0  0  0  0  0  0
   13.7965   44.6280   64.9472 H   0  0  0  0  0  0
   11.7210   44.6160   66.3400 H   0  0  0  0  0  0
   11.4413   43.9388   64.8162 H   0  0  0  0  0  0
   15.4303   43.0160   63.4620 H   0  0  0  0  0  0
   15.5309   41.4568   64.0854 H   0  0  0  0  0  0
   15.6746   44.6159   66.3589 H   0  0  0  0  0  0
   17.6035   45.1631   67.6283 H   0  0  0  0  0  0
   19.7946   42.0633   65.5988 H   0  0  0  0  0  0
   17.7648   41.4618   64.3805 H   0  0  0  0  0  0
   21.9607   43.5994   67.7318 H   0  0  0  0  0  0
   11.7814   34.9993   75.9668 H   0  0  0  0  0  0
   11.8267   32.8685   74.1656 H   0  0  0  0  0  0
  1  6  1  0  0  0
  1  2  2  0  0  0
  1 31  1  0  0  0
  2  3  1  0  0  0
  2 36  1  0  0  0
  3  4  2  0  0  0
  3 37  1  0  0  0
  4  5  1  0  0  0
  4  7  1  0  0  0
  5  6  2  0  0  0
  5 38  1  0  0  0
  6 39  1  0  0  0
  7  8  1  0  0  0
  8  9  2  0  0  0
  8 13  1  0  0  0
  9 10  1  0  0  0
  9 40  1  0  0  0
 10 11  2  0  0  0
 10 41  1  0  0  0
 11 12  1  0  0  0
 11 14  1  0  0  0
 12 13  2  0  0  0
 12 42  1  0  0  0
 13 43  1  0  0  0
 14 15  1  0  0  0
 14 44  1  0  0  0
 15 20  1  0  0  0
 15 16  1  0  0  0
 15 45  1  0  0  0
 16 17  1  0  0  0
 16 46  1  0  0  0
 16 47  1  0  0  0
 17 18  1  0  0  0
 17 48  1  0  0  0
 17 49  1  0  0  0
 18 19  1  0  0  0
 18 21  1  0  0  0
 19 20  1  0  0  0
 19 50  1  0  0  0
 19 51  1  0  0  0
 20 52  1  0  0  0
 20 53  1  0  0  0
 21 22  1  0  0  0
 21 54  1  0  0  0
 21 55  1  0  0  0
 22 23  2  0  0  0
 22 27  1  0  0  0
 23 24  1  0  0  0
 23 56  1  0  0  0
 24 25  2  0  0  0
 24 57  1  0  0  0
 25 26  1  0  0  0
 25 28  1  0  0  0
 26 27  2  0  0  0
 26 58  1  0  0  0
 27 59  1  0  0  0
 28 29  1  0  0  0
 28 30  2  0  0  0
 29 60  1  0  0  0
 31 32  1  0  0  0
 31 35  2  0  0  0
 32 33  1  0  0  0
 33 34  2  0  0  0
 33 61  1  0  0  0
 34 35  1  0  0  0
 34 62  1  0  0  0
M  END
> <s_m_entry_id>
6811

> <s_m_entry_name>
dock_pv.241

> <s_m_Source_Path>
/home/csk/Desktop/cluster/DUD-E-result/lkha4

> <s_m_Source_File>
dock_pv.maegz

> <i_m_Source_File_Index>
241

> <chembl_id>
CHEMBL480893

> <chembl_pref_name>
None

> <i_lp_mmshare_version>
53161

> <i_f3d_flags>
0

> <r_lp_tautomer_probability>
1

> <s_lp_Force_Field>
OPLS_2005

> <r_lp_Energy>
36.83061

> <b_lp_Chiralities_Consistent>
1

> <s_lp_Variant>
CHEMBL4618_lig302-1

> <s_i_glide_gridfile>
glide-grid_3chp

> <i_i_glide_lignum>
340

> <i_i_glide_rotatable_bonds>
9

> <r_i_docking_score>
-9.20933347213409

> <r_i_glide_ligand_efficiency>
-0.263123813489545

> <r_i_glide_ligand_efficiency_sa>
-0.860695440693974

> <r_i_glide_ligand_efficiency_ln>
-2.0216530872776

> <r_i_glide_gscore>
-9.20933347213409

> <r_i_glide_lipo>
-5.66557035421374

> <r_i_glide_hbond>
-0.0816681144864514

> <r_i_glide_metal>
0

> <r_i_glide_rewards>
-0.934064035422045

> <r_i_glide_evdw>
-41.5149002075195

> <r_i_glide_ecoul>
-7.64288091659546

> <r_i_glide_erotb>
0.732948203515947

> <r_i_glide_esite>
-0.0388020236625028

> <r_i_glide_emodel>
-41.1167023438455

> <r_i_glide_energy>
-49.157781124115

> <r_i_glide_einternal>
20.1376457214355

> <i_i_glide_confnum>
27

> <i_i_glide_posenum>
117

> <r_i_glide_eff_state_penalty>
0

> <s_user_duplicate_titles>
CHEMBL4618_lig302,467256

> <s_m_subgroup_title>
dock_pv

> <s_m_subgroupid>
dock_pv

> <b_m_subgroup_collapsed>
1

$$$$
CHEMBL4618_lig412
                    3D
 Schrodinger Suite 2021-1.
 42 45  0  0  1  0            999 V2000
   10.8187   35.0550   74.2904 C   0  0  0  0  0  0
   10.3918   36.3393   73.9402 C   0  0  0  0  0  0
    9.7788   34.0590   72.3403 N   0  0  0  0  0  0
   10.5229   33.9712   73.4676 C   0  0  0  0  0  0
    9.3240   35.2709   72.0363 C   0  0  0  0  0  0
    9.6540   36.4434   72.7528 C   0  0  0  0  0  0
    9.0292   37.8176   71.8528 S   0  0  0  0  0  0
    8.3779   36.6940   70.6653 C   0  0  0  0  0  0
    8.5210   35.4503   70.9769 N   0  0  0  0  0  0
    7.8283   37.0654   69.4515 O   0  0  0  0  0  0
    8.0536   38.2761   68.8353 C   0  0  0  0  0  0
    8.5631   38.2930   67.5439 C   0  0  0  0  0  0
    8.8558   39.4960   66.9111 C   0  0  0  0  0  0
    8.6004   40.7139   67.5532 C   0  0  0  0  0  0
    8.0092   40.6969   68.8168 C   0  0  0  0  0  0
    7.7442   39.4787   69.4402 C   0  0  0  0  0  0
    8.9549   42.0664   66.9162 C   0  0  0  0  0  0
   10.1457   42.0661   66.0473 N   0  0  0  0  0  0
   10.3916   43.4162   65.5256 C   0  0  0  0  0  0
   11.7215   43.5611   64.7400 C   0  0  0  0  0  0
   12.9431   42.9847   65.4569 C   0  0  0  0  0  0
   12.6106   41.5761   65.9400 C   0  0  0  0  0  0
   11.3210   41.5791   66.7679 C   0  0  0  0  0  0
   11.7208   34.7894   75.7183 Cl  0  0  0  0  0  0
   10.6358   37.2050   74.5387 H   0  0  0  0  0  0
   10.8751   32.9819   73.7239 H   0  0  0  0  0  0
    8.8121   37.3713   67.0524 H   0  0  0  0  0  0
    9.3213   39.4706   65.9398 H   0  0  0  0  0  0
    7.7711   41.6187   69.3291 H   0  0  0  0  0  0
    7.3171   39.4160   70.4153 H   0  0  0  0  0  0
    9.0892   42.8023   67.7125 H   0  0  0  0  0  0
    8.0919   42.3985   66.3398 H   0  0  0  0  0  0
   10.3980   44.1309   66.3439 H   0  0  0  0  0  0
    9.5483   43.7103   64.9004 H   0  0  0  0  0  0
   11.9147   44.6160   64.5656 H   0  0  0  0  0  0
   11.6136   43.1359   63.7452 H   0  0  0  0  0  0
   13.8088   42.9735   64.7930 H   0  0  0  0  0  0
   13.2054   43.6163   66.3076 H   0  0  0  0  0  0
   12.5208   40.8723   65.1141 H   0  0  0  0  0  0
   13.4202   41.1913   66.5513 H   0  0  0  0  0  0
   11.4427   42.2392   67.6241 H   0  0  0  0  0  0
   11.1653   40.5842   67.1739 H   0  0  0  0  0  0
  1  2  2  0  0  0
  1  4  1  0  0  0
  1 24  1  0  0  0
  2  6  1  0  0  0
  2 25  1  0  0  0
  3  5  1  0  0  0
  3  4  2  0  0  0
  4 26  1  0  0  0
  5  6  2  0  0  0
  5  9  1  0  0  0
  6  7  1  0  0  0
  7  8  1  0  0  0
  8  9  2  0  0  0
  8 10  1  0  0  0
 10 11  1  0  0  0
 11 12  2  0  0  0
 11 16  1  0  0  0
 12 13  1  0  0  0
 12 27  1  0  0  0
 13 14  2  0  0  0
 13 28  1  0  0  0
 14 15  1  0  0  0
 14 17  1  0  0  0
 15 16  2  0  0  0
 15 29  1  0  0  0
 16 30  1  0  0  0
 17 18  1  0  0  0
 17 31  1  0  0  0
 17 32  1  0  0  0
 18 19  1  0  0  0
 18 23  1  0  0  0
 19 20  1  0  0  0
 19 33  1  0  0  0
 19 34  1  0  0  0
 20 21  1  0  0  0
 20 35  1  0  0  0
 20 36  1  0  0  0
 21 22  1  0  0  0
 21 37  1  0  0  0
 21 38  1  0  0  0
 22 23  1  0  0  0
 22 39  1  0  0  0
 22 40  1  0  0  0
 23 41  1  0  0  0
 23 42  1  0  0  0
M  END
> <s_m_entry_id>
6812

> <s_m_entry_name>
dock_pv.242

> <s_m_Source_Path>
/home/csk/Desktop/cluster/DUD-E-result/lkha4

> <s_m_Source_File>
dock_pv.maegz

> <i_m_Source_File_Index>
242

> <chembl_id>
CHEMBL2207734

> <chembl_pref_name>
None

> <i_lp_mmshare_version>
53161

> <i_f3d_flags>
0

> <r_lp_tautomer_probability>
1

> <s_lp_Force_Field>
OPLS_2005

> <r_lp_Energy>
24.368305

> <b_lp_Chiralities_Consistent>
1

> <s_lp_Variant>
CHEMBL4618_lig412-1

> <s_i_glide_gridfile>
glide-grid_3chp

> <i_i_glide_lignum>
479

> <i_i_glide_rotatable_bonds>
4

> <r_i_docking_score>
-9.18562786885918

> <r_i_glide_ligand_efficiency>
-0.382734494535799

> <r_i_glide_ligand_efficiency_sa>
-1.10399731940264

> <r_i_glide_ligand_efficiency_ln>
-2.19854225001553

> <r_i_glide_gscore>
-9.18562786885918

> <r_i_glide_lipo>
-5.54984881510068

> <r_i_glide_hbond>
0

> <r_i_glide_metal>
0

> <r_i_glide_rewards>
-1.85540645454545

> <r_i_glide_evdw>
-41.3588600158691

> <r_i_glide_ecoul>
-2.03058171272278

> <r_i_glide_erotb>
0.592157658488824

> <r_i_glide_esite>
0

> <r_i_glide_emodel>
-56.6110173840304

> <r_i_glide_energy>
-43.3894417285919

> <r_i_glide_einternal>
3.91595149040222

> <i_i_glide_confnum>
23

> <i_i_glide_posenum>
235

> <r_i_glide_eff_state_penalty>
0

> <s_user_duplicate_titles>
CHEMBL4618_lig412

> <s_m_subgroup_title>
dock_pv

> <s_m_subgroupid>
dock_pv

> <b_m_subgroup_collapsed>
1

$$$$
CHEMBL4618_lig420
                    3D
 Schrodinger Suite 2021-1.
 59 62  0  0  1  0            999 V2000
   14.2653   42.6754   65.3916 C   0  0  0  0  0  0
   14.9291   42.0511   64.3401 C   0  0  0  0  0  0
   16.3022   42.1657   64.1468 C   0  0  0  0  0  0
   14.9977   43.4201   66.3309 C   0  0  0  0  0  0
   16.3898   43.5550   66.1962 C   0  0  0  0  0  0
   17.0101   42.9166   65.0860 C   0  0  0  0  0  0
   18.3395   43.2406   65.1402 N   0  0  0  0  0  0
   18.5885   44.0351   66.2195 C   0  0  0  0  0  0
   17.4289   44.2319   66.9455 C   0  0  0  0  0  0
   17.3187   45.0094   68.2459 C   0  0  0  0  0  0
   17.7324   44.2118   69.5107 C   0  0  0  0  0  0
   18.9115   43.3513   69.3721 N   0  0  0  0  0  0
   12.8944   42.5201   65.4165 O   0  0  0  0  0  0
   10.2717   41.8405   65.9397 O   0  0  0  0  0  0
    9.5094   41.1966   66.8823 C   0  0  0  0  0  0
    8.7532   41.7948   67.8993 C   0  0  0  0  0  0
    8.0212   40.9882   68.7700 C   0  0  0  0  0  0
    8.0609   39.5976   68.6414 C   0  0  0  0  0  0
    8.7940   39.0117   67.6176 C   0  0  0  0  0  0
    9.5028   39.8160   66.7401 C   0  0  0  0  0  0
    7.3210   38.8006   69.4768 O   0  0  0  0  0  0
    7.9873   38.0102   70.3769 C   0  0  0  0  0  0
    8.7198   38.5852   71.4098 C   0  0  0  0  0  0
    9.3642   37.7750   72.3397 C   0  0  0  0  0  0
    9.2563   36.3914   72.2506 C   0  0  0  0  0  0
    8.5211   35.8160   71.2205 C   0  0  0  0  0  0
    7.8920   36.6254   70.2811 C   0  0  0  0  0  0
   10.6316   43.2054   66.0369 C   0  0  0  0  0  0
   12.1274   43.2567   66.3665 C   0  0  0  0  0  0
   20.1971   43.8301   69.1821 C   0  0  0  0  0  0
   20.5405   45.0160   69.1477 O   0  0  0  0  0  0
   21.0208   42.7815   69.0137 O   0  0  0  0  0  0
   22.3889   42.9739   68.6827 C   0  0  0  0  0  0
   14.3447   41.5178   63.6017 H   0  0  0  0  0  0
   16.7748   41.7842   63.2490 H   0  0  0  0  0  0
   14.4983   43.9183   67.1406 H   0  0  0  0  0  0
   19.0345   43.0163   64.4355 H   0  0  0  0  0  0
   19.5948   44.3906   66.3905 H   0  0  0  0  0  0
   16.3081   45.3964   68.3804 H   0  0  0  0  0  0
   17.9511   45.8953   68.1853 H   0  0  0  0  0  0
   16.9212   43.5436   69.7977 H   0  0  0  0  0  0
   17.8734   44.8920   70.3545 H   0  0  0  0  0  0
   18.7778   42.3506   69.3559 H   0  0  0  0  0  0
    8.6957   42.8647   68.0227 H   0  0  0  0  0  0
    7.4142   41.4417   69.5391 H   0  0  0  0  0  0
    8.8076   37.9376   67.4989 H   0  0  0  0  0  0
   10.0731   39.3600   65.9451 H   0  0  0  0  0  0
    8.7647   39.6603   71.4885 H   0  0  0  0  0  0
    9.9336   38.2141   73.1444 H   0  0  0  0  0  0
    9.7438   35.7628   72.9811 H   0  0  0  0  0  0
    8.4504   34.7420   71.1459 H   0  0  0  0  0  0
    7.3210   36.1767   69.4870 H   0  0  0  0  0  0
   10.0484   43.7929   66.7398 H   0  0  0  0  0  0
   10.4639   43.6588   65.0593 H   0  0  0  0  0  0
   12.3042   42.8818   67.3732 H   0  0  0  0  0  0
   12.4309   44.2913   66.3399 H   0  0  0  0  0  0
   22.8823   42.0087   68.5630 H   0  0  0  0  0  0
   22.9085   43.5241   69.4672 H   0  0  0  0  0  0
   22.4954   43.5212   67.7445 H   0  0  0  0  0  0
  1  2  2  0  0  0
  1  4  1  0  0  0
  1 13  1  0  0  0
  2  3  1  0  0  0
  2 34  1  0  0  0
  3  6  2  0  0  0
  3 35  1  0  0  0
  4  5  2  0  0  0
  4 36  1  0  0  0
  5  6  1  0  0  0
  5  9  1  0  0  0
  6  7  1  0  0  0
  7  8  1  0  0  0
  7 37  1  0  0  0
  8  9  2  0  0  0
  8 38  1  0  0  0
  9 10  1  0  0  0
 10 11  1  0  0  0
 10 39  1  0  0  0
 10 40  1  0  0  0
 11 12  1  0  0  0
 11 41  1  0  0  0
 11 42  1  0  0  0
 12 30  1  0  0  0
 12 43  1  0  0  0
 13 29  1  0  0  0
 14 15  1  0  0  0
 14 28  1  0  0  0
 15 16  2  0  0  0
 15 20  1  0  0  0
 16 17  1  0  0  0
 16 44  1  0  0  0
 17 18  2  0  0  0
 17 45  1  0  0  0
 18 19  1  0  0  0
 18 21  1  0  0  0
 19 20  2  0  0  0
 19 46  1  0  0  0
 20 47  1  0  0  0
 21 22  1  0  0  0
 22 23  2  0  0  0
 22 27  1  0  0  0
 23 24  1  0  0  0
 23 48  1  0  0  0
 24 25  2  0  0  0
 24 49  1  0  0  0
 25 26  1  0  0  0
 25 50  1  0  0  0
 26 27  2  0  0  0
 26 51  1  0  0  0
 27 52  1  0  0  0
 28 29  1  0  0  0
 28 53  1  0  0  0
 28 54  1  0  0  0
 29 55  1  0  0  0
 29 56  1  0  0  0
 30 31  2  0  0  0
 30 32  1  0  0  0
 32 33  1  0  0  0
 33 57  1  0  0  0
 33 58  1  0  0  0
 33 59  1  0  0  0
M  END
> <s_m_entry_id>
6813

> <s_m_entry_name>
dock_pv.243

> <s_m_Source_Path>
/home/csk/Desktop/cluster/DUD-E-result/lkha4

> <s_m_Source_File>
dock_pv.maegz

> <i_m_Source_File_Index>
243

> <chembl_id>
CHEMBL2316064

> <chembl_pref_name>
None

> <i_lp_mmshare_version>
53161

> <i_f3d_flags>
0

> <r_lp_tautomer_probability>
1

> <s_lp_Force_Field>
OPLS_2005

> <r_lp_Energy>
23.339593

> <b_lp_Chiralities_Consistent>
1

> <s_lp_Variant>
CHEMBL4618_lig420-1

> <s_i_glide_gridfile>
glide-grid_3chp

> <i_i_glide_lignum>
487

> <i_i_glide_rotatable_bonds>
12

> <r_i_docking_score>
-9.18382362145173

> <r_i_glide_ligand_efficiency>
-0.278297685498537

> <r_i_glide_ligand_efficiency_sa>
-0.892649379154555

> <r_i_glide_ligand_efficiency_ln>
-2.04243482211704

> <r_i_glide_gscore>
-9.18382362145173

> <r_i_glide_lipo>
-4.66726514908014

> <r_i_glide_hbond>
-0.161938122412525

> <r_i_glide_metal>
0

> <r_i_glide_rewards>
-0.931643143585955

> <r_i_glide_evdw>
-56.7483329772949

> <r_i_glide_ecoul>
-10.3092727661133

> <r_i_glide_erotb>
1.10447504099347

> <r_i_glide_esite>
-0.143644683584848

> <r_i_glide_emodel>
-100.127151753802

> <r_i_glide_energy>
-67.0576057434082

> <r_i_glide_einternal>
9.92922401428223

> <i_i_glide_confnum>
70

> <i_i_glide_posenum>
344

> <r_i_glide_eff_state_penalty>
0

> <s_user_duplicate_titles>
CHEMBL4618_lig420

> <s_m_subgroup_title>
dock_pv

> <s_m_subgroupid>
dock_pv

> <b_m_subgroup_collapsed>
1

$$$$
CHEMBL4618_lig126
                    3D
 Schrodinger Suite 2021-1.
 44 47  0  0  1  0            999 V2000
   17.2822   44.7629   67.1212 C   0  0  0  0  0  0
   18.6029   44.4049   67.4374 C   0  0  0  0  0  0
   16.9198   45.7869   67.9399 N   0  0  0  0  0  0
   16.5947   44.0891   66.0959 C   0  0  0  0  0  0
   19.2391   43.3760   66.7329 C   0  0  0  0  0  0
   19.0355   45.2072   68.4469 N   0  0  0  0  0  0
   17.2207   43.0746   65.4418 N   0  0  0  0  0  0
   17.9638   45.9127   68.7265 C   0  0  0  0  0  0
   18.5052   42.7317   65.7324 C   0  0  0  0  0  0
   10.3008   42.1600   66.3335 C   0  0  0  0  0  0
    8.8748   41.9396   66.8547 C   0  0  0  0  0  0
   12.8980   42.5766   65.3125 C   0  0  0  0  0  0
   11.2758   41.1665   66.4310 C   0  0  0  0  0  0
   10.6356   43.3672   65.7151 C   0  0  0  0  0  0
   16.5237   42.3578   64.3257 C   0  0  0  0  0  0
   12.5587   41.3708   65.9329 C   0  0  0  0  0  0
   11.9235   43.5718   65.2134 C   0  0  0  0  0  0
    8.6252   40.6568   67.6542 C   0  0  0  0  0  0
   14.1436   42.8565   64.7783 O   0  0  0  0  0  0
   15.1138   41.8133   64.6501 C   0  0  0  0  0  0
    8.5228   39.4185   67.0123 C   0  0  0  0  0  0
    8.5209   40.7168   69.0435 C   0  0  0  0  0  0
    8.3852   38.2552   67.7603 C   0  0  0  0  0  0
    8.4005   39.5453   69.7897 C   0  0  0  0  0  0
    8.3235   38.3172   69.1464 C   0  0  0  0  0  0
   15.5926   44.3407   65.7942 H   0  0  0  0  0  0
   20.2583   43.0955   66.9525 H   0  0  0  0  0  0
   17.9618   46.6259   69.5389 H   0  0  0  0  0  0
   18.9470   41.9467   65.1411 H   0  0  0  0  0  0
    8.5970   42.8035   67.4613 H   0  0  0  0  0  0
    8.1904   41.9618   66.0077 H   0  0  0  0  0  0
   11.0416   40.2168   66.8839 H   0  0  0  0  0  0
    9.8945   44.1509   65.6301 H   0  0  0  0  0  0
   16.4992   43.0163   63.4648 H   0  0  0  0  0  0
   17.1728   41.5495   63.9975 H   0  0  0  0  0  0
   13.2641   40.5614   66.0186 H   0  0  0  0  0  0
   12.1759   44.5104   64.7434 H   0  0  0  0  0  0
   14.7842   41.1527   63.8485 H   0  0  0  0  0  0
   15.1883   41.2008   65.5400 H   0  0  0  0  0  0
    8.6072   39.3429   65.9403 H   0  0  0  0  0  0
    8.5689   41.6731   69.5400 H   0  0  0  0  0  0
    8.3633   37.3055   67.2632 H   0  0  0  0  0  0
    8.3510   39.5900   70.8648 H   0  0  0  0  0  0
    8.2283   37.4084   69.7222 H   0  0  0  0  0  0
  1  2  1  0  0  0
  1  3  1  0  0  0
  1  4  2  0  0  0
  2  5  1  0  0  0
  2  6  2  0  0  0
  3  8  2  0  0  0
  4  7  1  0  0  0
  4 26  1  0  0  0
  5  9  2  0  0  0
  5 27  1  0  0  0
  6  8  1  0  0  0
  7  9  1  0  0  0
  7 15  1  0  0  0
  8 28  1  0  0  0
  9 29  1  0  0  0
 10 14  2  0  0  0
 10 11  1  0  0  0
 10 13  1  0  0  0
 11 18  1  0  0  0
 11 30  1  0  0  0
 11 31  1  0  0  0
 12 19  1  0  0  0
 12 16  1  0  0  0
 12 17  2  0  0  0
 13 16  2  0  0  0
 13 32  1  0  0  0
 14 17  1  0  0  0
 14 33  1  0  0  0
 15 20  1  0  0  0
 15 34  1  0  0  0
 15 35  1  0  0  0
 16 36  1  0  0  0
 17 37  1  0  0  0
 18 21  2  0  0  0
 18 22  1  0  0  0
 19 20  1  0  0  0
 20 38  1  0  0  0
 20 39  1  0  0  0
 21 23  1  0  0  0
 21 40  1  0  0  0
 22 24  2  0  0  0
 22 41  1  0  0  0
 23 25  2  0  0  0
 23 42  1  0  0  0
 24 25  1  0  0  0
 24 43  1  0  0  0
 25 44  1  0  0  0
M  END
> <s_m_entry_id>
6814

> <s_m_entry_name>
dock_pv.244

> <s_m_Source_Path>
/home/csk/Desktop/cluster/DUD-E-result/lkha4

> <s_m_Source_File>
dock_pv.maegz

> <i_m_Source_File_Index>
244

> <chembl_id>
CHEMBL14814

> <chembl_pref_name>
None

> <i_lp_mmshare_version>
53161

> <i_f3d_flags>
0

> <r_lp_tautomer_probability>
1

> <s_lp_Force_Field>
OPLS_2005

> <r_lp_Energy>
25.974189

> <b_lp_Chiralities_Consistent>
1

> <s_lp_Variant>
CHEMBL4618_lig126-1

> <s_i_glide_gridfile>
glide-grid_3chp

> <i_i_glide_lignum>
152

> <i_i_glide_rotatable_bonds>
6

> <r_i_docking_score>
-9.18008926526722

> <r_i_glide_ligand_efficiency>
-0.367203570610689

> <r_i_glide_ligand_efficiency_sa>
-1.07370975284871

> <r_i_glide_ligand_efficiency_ln>
-2.17595626094399

> <r_i_glide_gscore>
-9.18008926526722

> <r_i_glide_lipo>
-4.16859838924049

> <r_i_glide_hbond>
-0.336556858310654

> <r_i_glide_metal>
0

> <r_i_glide_rewards>
-2.06127644369262

> <r_i_glide_evdw>
-47.3576698303223

> <r_i_glide_ecoul>
-6.21627140045166

> <r_i_glide_erotb>
0.866087884204416

> <r_i_glide_esite>
-0.179421256644004

> <r_i_glide_emodel>
-80.5610481779355

> <r_i_glide_energy>
-53.5739412307739

> <r_i_glide_einternal>
4.01095628738403

> <i_i_glide_confnum>
10

> <i_i_glide_posenum>
183

> <r_i_glide_eff_state_penalty>
0

> <s_user_duplicate_titles>
CHEMBL4618_lig126,14710

> <s_m_subgroup_title>
dock_pv

> <s_m_subgroupid>
dock_pv

> <b_m_subgroup_collapsed>
1

$$$$
CHEMBL4618_lig76
                    3D
 Schrodinger Suite 2021-1.
 46 48  0  0  1  0            999 V2000
   10.1098   35.7185   72.9862 N   0  0  0  0  0  0
    8.6875   40.6900   67.6042 C   0  0  0  0  0  0
    8.9093   41.9630   66.7862 C   0  0  0  0  0  0
    8.3156   38.3656   69.1263 C   0  0  0  0  0  0
    8.4412   40.7777   68.9713 C   0  0  0  0  0  0
    8.7175   39.4306   66.9941 C   0  0  0  0  0  0
    8.2821   39.6190   69.7248 C   0  0  0  0  0  0
    8.5210   38.2784   67.7490 C   0  0  0  0  0  0
   10.3285   42.2132   66.2652 C   0  0  0  0  0  0
    9.0789   35.7279   71.9435 C   0  0  0  0  0  0
   10.3667   34.3967   73.5385 C   0  0  0  0  0  0
    9.7801   36.5225   74.1561 C   0  0  0  0  0  0
    8.9290   37.1190   71.2932 C   0  0  0  0  0  0
    8.1463   37.0974   69.9605 C   0  0  0  0  0  0
   11.3485   41.2687   66.4100 C   0  0  0  0  0  0
   10.6101   43.4162   65.6164 C   0  0  0  0  0  0
   10.6867   36.0275   75.2884 C   0  0  0  0  0  0
   11.1547   34.6469   74.8233 C   0  0  0  0  0  0
   12.6301   41.5211   65.9366 C   0  0  0  0  0  0
   11.8961   43.6746   65.1398 C   0  0  0  0  0  0
   12.9018   42.7281   65.3005 C   0  0  0  0  0  0
    8.2248   41.9487   65.9404 H   0  0  0  0  0  0
    8.6093   42.8291   67.3807 H   0  0  0  0  0  0
    8.3955   41.7408   69.4597 H   0  0  0  0  0  0
    8.9169   39.3409   65.9416 H   0  0  0  0  0  0
    8.1245   39.7073   70.7856 H   0  0  0  0  0  0
    8.5595   37.3201   67.2638 H   0  0  0  0  0  0
    9.3193   34.9938   71.1768 H   0  0  0  0  0  0
    8.1179   35.4131   72.3481 H   0  0  0  0  0  0
   10.9210   33.8077   72.8056 H   0  0  0  0  0  0
    9.4524   33.8382   73.7207 H   0  0  0  0  0  0
    8.7239   36.4614   74.4247 H   0  0  0  0  0  0
    9.9710   37.5680   73.9165 H   0  0  0  0  0  0
    8.3719   37.7529   71.9817 H   0  0  0  0  0  0
    9.9045   37.5924   71.1748 H   0  0  0  0  0  0
    8.4851   36.2462   69.3679 H   0  0  0  0  0  0
    7.0834   36.9334   70.1470 H   0  0  0  0  0  0
   11.1532   40.3283   66.8964 H   0  0  0  0  0  0
    9.8360   44.1607   65.5049 H   0  0  0  0  0  0
   10.1242   35.9616   76.2211 H   0  0  0  0  0  0
   11.5255   36.7043   75.4542 H   0  0  0  0  0  0
   12.2247   34.6138   74.6296 H   0  0  0  0  0  0
   10.9526   33.8811   75.5716 H   0  0  0  0  0  0
   13.4022   40.7743   66.0526 H   0  0  0  0  0  0
   12.1217   44.6138   64.6607 H   0  0  0  0  0  0
   13.8956   42.9287   64.9265 H   0  0  0  0  0  0
  1 10  1  0  0  0
  1 11  1  0  0  0
  1 12  1  0  0  0
  2  6  2  0  0  0
  2  3  1  0  0  0
  2  5  1  0  0  0
  3  9  1  0  0  0
  3 22  1  0  0  0
  3 23  1  0  0  0
  4 14  1  0  0  0
  4  7  1  0  0  0
  4  8  2  0  0  0
  5  7  2  0  0  0
  5 24  1  0  0  0
  6  8  1  0  0  0
  6 25  1  0  0  0
  7 26  1  0  0  0
  8 27  1  0  0  0
  9 15  2  0  0  0
  9 16  1  0  0  0
 10 13  1  0  0  0
 10 28  1  0  0  0
 10 29  1  0  0  0
 11 18  1  0  0  0
 11 30  1  0  0  0
 11 31  1  0  0  0
 12 17  1  0  0  0
 12 32  1  0  0  0
 12 33  1  0  0  0
 13 14  1  0  0  0
 13 34  1  0  0  0
 13 35  1  0  0  0
 14 36  1  0  0  0
 14 37  1  0  0  0
 15 19  1  0  0  0
 15 38  1  0  0  0
 16 20  2  0  0  0
 16 39  1  0  0  0
 17 18  1  0  0  0
 17 40  1  0  0  0
 17 41  1  0  0  0
 18 42  1  0  0  0
 18 43  1  0  0  0
 19 21  2  0  0  0
 19 44  1  0  0  0
 20 21  1  0  0  0
 20 45  1  0  0  0
 21 46  1  0  0  0
M  END
> <s_m_entry_id>
6815

> <s_m_entry_name>
dock_pv.245

> <s_m_Source_Path>
/home/csk/Desktop/cluster/DUD-E-result/lkha4

> <s_m_Source_File>
dock_pv.maegz

> <i_m_Source_File_Index>
245

> <chembl_id>
CHEMBL162668

> <chembl_pref_name>
None

> <i_lp_mmshare_version>
53161

> <i_f3d_flags>
0

> <r_lp_tautomer_probability>
1

> <s_lp_Force_Field>
OPLS_2005

> <r_lp_Energy>
30.380957

> <b_lp_Chiralities_Consistent>
1

> <s_lp_Variant>
CHEMBL4618_lig76-1

> <s_i_glide_gridfile>
glide-grid_3chp

> <i_i_glide_lignum>
97

> <i_i_glide_rotatable_bonds>
6

> <r_i_docking_score>
-9.17353264441263

> <r_i_glide_ligand_efficiency>
-0.436834887829173

> <r_i_glide_ligand_efficiency_sa>
-1.20519433189556

> <r_i_glide_ligand_efficiency_ln>
-2.26813740946291

> <r_i_glide_gscore>
-9.17353264441263

> <r_i_glide_lipo>
-5.66781903092288

> <r_i_glide_hbond>
0

> <r_i_glide_metal>
0

> <r_i_glide_rewards>
-2.40396

> <r_i_glide_evdw>
-39.0862731933594

> <r_i_glide_ecoul>
-2.01943278312683

> <r_i_glide_erotb>
1.15547496364724

> <r_i_glide_esite>
0

> <r_i_glide_emodel>
-60.188077052778

> <r_i_glide_energy>
-41.1057059764862

> <r_i_glide_einternal>
4.89711570739746

> <i_i_glide_confnum>
148

> <i_i_glide_posenum>
257

> <r_i_glide_eff_state_penalty>
0

> <s_user_duplicate_titles>
CHEMBL4618_lig76,270880

> <s_m_subgroup_title>
dock_pv

> <s_m_subgroupid>
dock_pv

> <b_m_subgroup_collapsed>
1

$$$$
CHEMBL4618_lig224
                    3D
 Schrodinger Suite 2021-1.
 63 66  0  0  1  0            999 V2000
   10.8333   42.3999   65.8541 C   0  0  0  0  0  0
   11.2460   43.6013   65.2901 C   0  0  0  0  0  0
   12.5769   43.8061   64.9318 C   0  0  0  0  0  0
   13.5083   42.7861   65.1304 C   0  0  0  0  0  0
   13.0966   41.5764   65.7051 C   0  0  0  0  0  0
   11.7726   41.3935   66.0630 C   0  0  0  0  0  0
   14.8385   43.0691   64.7831 N   0  0  0  0  0  0
   15.8872   42.2340   64.7258 C   0  0  0  0  0  0
   17.2877   42.8424   64.7133 C   0  0  0  0  0  0
   15.8028   41.0165   64.7401 O   0  0  0  0  0  0
    9.4841   42.2250   66.0568 O   0  0  0  0  0  0
    9.0057   41.4296   67.0675 C   0  0  0  0  0  0
    8.3706   42.0667   68.1215 C   0  0  0  0  0  0
    7.8210   41.3084   69.1397 C   0  0  0  0  0  0
    7.9142   39.9178   69.1198 C   0  0  0  0  0  0
    8.5246   39.2700   68.0515 C   0  0  0  0  0  0
    9.0591   40.0298   67.0159 C   0  0  0  0  0  0
   17.9377   42.6944   66.0158 N   0  0  1  0  0  0
   19.3895   42.8817   65.8742 C   0  0  0  0  0  0
   17.3572   43.5247   67.0962 C   0  0  1  0  0  0
   18.1920   44.3665   69.2039 N   0  0  2  0  0  0
   19.1295   44.1645   70.3133 C   0  0  0  0  0  0
   18.4764   44.0307   71.6919 C   0  0  0  0  0  0
   17.0915   44.1082   71.8881 C   0  0  0  0  0  0
   16.5578   44.0397   73.1725 C   0  0  0  0  0  0
   17.3981   43.9013   74.2847 C   0  0  0  0  0  0
   18.7838   43.8209   74.0818 C   0  0  0  0  0  0
   19.3132   43.8645   72.7964 C   0  0  0  0  0  0
   16.8071   43.8159   75.6742 C   0  0  0  0  0  0
   17.7074   43.6136   76.6755 O   0  0  0  0  0  0
   15.5991   43.8808   75.8857 O   0  0  0  0  0  0
   17.8432   43.1275   68.5103 C   0  0  0  0  0  0
   17.6526   45.0327   67.0354 C   0  0  0  0  0  0
   18.6665   45.2479   68.1536 C   0  0  0  0  0  0
   10.5150   44.3778   65.1396 H   0  0  0  0  0  0
   12.8773   44.7500   64.5013 H   0  0  0  0  0  0
   13.7669   40.7518   65.8826 H   0  0  0  0  0  0
   11.4786   40.4323   66.4363 H   0  0  0  0  0  0
   15.0347   44.0338   64.5467 H   0  0  0  0  0  0
   17.8063   42.2161   63.9824 H   0  0  0  0  0  0
   17.2997   43.8662   64.3392 H   0  0  0  0  0  0
    8.2856   43.1444   68.1388 H   0  0  0  0  0  0
    7.3205   41.8164   69.9400 H   0  0  0  0  0  0
    7.4857   39.3430   69.9282 H   0  0  0  0  0  0
    8.5772   38.1905   68.0190 H   0  0  0  0  0  0
    9.5039   39.5285   66.1685 H   0  0  0  0  0  0
   19.9284   42.6781   66.7981 H   0  0  0  0  0  0
   19.8011   42.2124   65.1245 H   0  0  0  0  0  0
   19.6397   43.8924   65.5514 H   0  0  0  0  0  0
   16.2746   43.4033   67.1365 H   0  0  0  0  0  0
   19.7674   43.2963   70.1375 H   0  0  0  0  0  0
   19.8063   45.0153   70.3672 H   0  0  0  0  0  0
   16.4186   44.2244   71.0501 H   0  0  0  0  0  0
   15.4846   44.0982   73.2907 H   0  0  0  0  0  0
   19.4669   43.7092   74.9136 H   0  0  0  0  0  0
   20.3834   43.7926   72.6676 H   0  0  0  0  0  0
   17.2517   43.5185   77.5141 H   0  0  0  0  0  0
   17.0734   42.6021   69.0756 H   0  0  0  0  0  0
   18.6872   42.4388   68.4747 H   0  0  0  0  0  0
   18.0298   45.3679   66.0700 H   0  0  0  0  0  0
   16.7510   45.6145   67.2309 H   0  0  0  0  0  0
   19.6943   45.0167   67.8646 H   0  0  0  0  0  0
   18.6733   46.2708   68.5311 H   0  0  0  0  0  0
  1 11  1  0  0  0
  1  6  1  0  0  0
  1  2  2  0  0  0
  2  3  1  0  0  0
  2 35  1  0  0  0
  3  4  2  0  0  0
  3 36  1  0  0  0
  4  5  1  0  0  0
  4  7  1  0  0  0
  5  6  2  0  0  0
  5 37  1  0  0  0
  6 38  1  0  0  0
  7  8  1  0  0  0
  7 39  1  0  0  0
  8  9  1  0  0  0
  8 10  2  0  0  0
  9 18  1  0  0  0
  9 40  1  0  0  0
  9 41  1  0  0  0
 11 12  1  0  0  0
 12 17  1  0  0  0
 12 13  2  0  0  0
 13 14  1  0  0  0
 13 42  1  0  0  0
 14 15  2  0  0  0
 14 43  1  0  0  0
 15 16  1  0  0  0
 15 44  1  0  0  0
 16 17  2  0  0  0
 16 45  1  0  0  0
 17 46  1  0  0  0
 18 19  1  0  0  0
 18 20  1  0  0  0
 19 47  1  0  0  0
 19 48  1  0  0  0
 19 49  1  0  0  0
 20 32  1  0  0  0
 20 33  1  0  0  0
 20 50  1  0  0  0
 21 22  1  0  0  0
 21 32  1  0  0  0
 21 34  1  0  0  0
 22 23  1  0  0  0
 22 51  1  0  0  0
 22 52  1  0  0  0
 23 28  1  0  0  0
 23 24  2  0  0  0
 24 25  1  0  0  0
 24 53  1  0  0  0
 25 26  2  0  0  0
 25 54  1  0  0  0
 26 27  1  0  0  0
 26 29  1  0  0  0
 27 28  2  0  0  0
 27 55  1  0  0  0
 28 56  1  0  0  0
 29 30  1  0  0  0
 29 31  2  0  0  0
 30 57  1  0  0  0
 32 58  1  0  0  0
 32 59  1  0  0  0
 33 34  1  0  0  0
 33 60  1  0  0  0
 33 61  1  0  0  0
 34 62  1  0  0  0
 34 63  1  0  0  0
M  END
> <s_m_entry_id>
6816

> <s_m_entry_name>
dock_pv.246

> <s_m_Source_Path>
/home/csk/Desktop/cluster/DUD-E-result/lkha4

> <s_m_Source_File>
dock_pv.maegz

> <i_m_Source_File_Index>
246

> <chembl_id>
CHEMBL481489

> <chembl_pref_name>
None

> <i_lp_mmshare_version>
53161

> <i_f3d_flags>
0

> <r_lp_tautomer_probability>
1

> <s_lp_Force_Field>
OPLS_2005

> <r_lp_Energy>
70.043972

> <b_lp_Chiralities_Consistent>
1

> <s_lp_Variant>
CHEMBL4618_lig224-2

> <s_i_glide_gridfile>
glide-grid_3chp

> <i_i_glide_lignum>
254

> <i_i_glide_rotatable_bonds>
11

> <r_i_docking_score>
-9.16649835008767

> <r_i_glide_ligand_efficiency>
-0.269602892649637

> <r_i_glide_ligand_efficiency_sa>
-0.87340871165966

> <r_i_glide_ligand_efficiency_ln>
-2.02513659710414

> <r_i_glide_gscore>
-9.16649835008767

> <r_i_glide_lipo>
-4.49432155793371

> <r_i_glide_hbond>
-0.401552143972652

> <r_i_glide_metal>
0

> <r_i_glide_rewards>
-0.725883968304545

> <r_i_glide_evdw>
-53.5321578979492

> <r_i_glide_ecoul>
-10.903413772583

> <r_i_glide_erotb>
0.95283352812541

> <r_i_glide_esite>
-0.185454247217259

> <r_i_glide_emodel>
-94.2127211205332

> <r_i_glide_energy>
-64.4355716705322

> <r_i_glide_einternal>
18.3515644073486

> <i_i_glide_confnum>
65

> <i_i_glide_posenum>
252

> <r_i_glide_eff_state_penalty>
0

> <s_user_duplicate_titles>
CHEMBL4618_lig224,467243

> <s_m_subgroup_title>
dock_pv

> <s_m_subgroupid>
dock_pv

> <b_m_subgroup_collapsed>
1

$$$$
CHEMBL4618_lig59
                    3D
 Schrodinger Suite 2021-1.
 48 50  0  0  1  0            999 V2000
   11.1770   42.6986   65.5400 N   0  0  0  0  0  0
    8.6903   36.6477   71.6714 C   0  0  0  0  0  0
    7.6507   37.0083   70.6037 C   0  0  0  0  0  0
    9.1060   35.3283   71.9400 C   0  0  0  0  0  0
    8.0497   38.0741   69.5723 C   0  0  0  0  0  0
    8.7142   40.0514   67.6847 C   0  0  0  0  0  0
   10.0466   35.0588   72.9528 C   0  0  0  0  0  0
    8.1758   37.7473   68.2270 C   0  0  0  0  0  0
    8.2166   39.4061   69.9400 C   0  0  0  0  0  0
    8.5210   40.3859   69.0209 C   0  0  0  0  0  0
    8.5210   38.7247   67.2868 C   0  0  0  0  0  0
    9.0937   40.9796   66.7400 O   0  0  0  0  0  0
    9.8691   43.1845   65.9857 C   0  0  0  0  0  0
    9.2544   42.3499   67.1213 C   0  0  0  0  0  0
   10.5129   33.7735   73.1500 O   0  0  0  0  0  0
   12.2096   42.5699   66.5518 C   0  0  0  0  0  0
   11.8001   43.5274   64.5219 C   0  0  0  0  0  0
   10.1824   37.4160   73.4023 C   0  0  0  0  0  0
    9.2358   37.6711   72.4351 C   0  0  0  0  0  0
   10.5210   36.1267   73.7197 C   0  0  0  0  0  0
   11.5371   33.6051   74.1388 C   0  0  0  0  0  0
   13.5159   42.3910   65.7762 C   0  0  0  0  0  0
   13.2336   43.0092   64.4050 C   0  0  0  0  0  0
    6.7728   37.3989   71.1226 H   0  0  0  0  0  0
    7.3213   36.1040   70.0910 H   0  0  0  0  0  0
    8.7076   34.5097   71.3594 H   0  0  0  0  0  0
    8.0406   36.7180   67.9400 H   0  0  0  0  0  0
    8.1210   39.7418   70.9497 H   0  0  0  0  0  0
    8.6163   41.3966   69.3829 H   0  0  0  0  0  0
    8.6590   38.4532   66.2505 H   0  0  0  0  0  0
    9.9494   44.2160   66.3182 H   0  0  0  0  0  0
    9.1825   43.1820   65.1400 H   0  0  0  0  0  0
    9.8942   42.4476   67.9993 H   0  0  0  0  0  0
    8.2810   42.7678   67.3852 H   0  0  0  0  0  0
   11.9728   41.6860   67.1400 H   0  0  0  0  0  0
   12.2302   43.4117   67.2464 H   0  0  0  0  0  0
   11.7534   44.5898   64.7676 H   0  0  0  0  0  0
   11.2390   43.4161   63.5940 H   0  0  0  0  0  0
   10.6381   38.2227   73.9400 H   0  0  0  0  0  0
    8.9210   38.6860   72.3400 H   0  0  0  0  0  0
   11.2241   36.0041   74.5274 H   0  0  0  0  0  0
   11.9355   32.6160   74.1518 H   0  0  0  0  0  0
   12.4066   34.2285   73.9400 H   0  0  0  0  0  0
   11.1723   33.8160   75.1446 H   0  0  0  0  0  0
   13.7644   41.3325   65.6855 H   0  0  0  0  0  0
   14.3416   42.8903   66.2834 H   0  0  0  0  0  0
   13.9279   43.8160   64.1730 H   0  0  0  0  0  0
   13.3210   42.2716   63.6050 H   0  0  0  0  0  0
  1 13  1  0  0  0
  1 16  1  0  0  0
  1 17  1  0  0  0
  2  3  1  0  0  0
  2  4  2  0  0  0
  2 19  1  0  0  0
  3  5  1  0  0  0
  3 24  1  0  0  0
  3 25  1  0  0  0
  4  7  1  0  0  0
  4 26  1  0  0  0
  5  8  1  0  0  0
  5  9  2  0  0  0
  6 12  1  0  0  0
  6 10  2  0  0  0
  6 11  1  0  0  0
  7 15  1  0  0  0
  7 20  2  0  0  0
  8 11  2  0  0  0
  8 27  1  0  0  0
  9 10  1  0  0  0
  9 28  1  0  0  0
 10 29  1  0  0  0
 11 30  1  0  0  0
 12 14  1  0  0  0
 13 14  1  0  0  0
 13 31  1  0  0  0
 13 32  1  0  0  0
 14 33  1  0  0  0
 14 34  1  0  0  0
 15 21  1  0  0  0
 16 22  1  0  0  0
 16 35  1  0  0  0
 16 36  1  0  0  0
 17 23  1  0  0  0
 17 37  1  0  0  0
 17 38  1  0  0  0
 18 19  2  0  0  0
 18 20  1  0  0  0
 18 39  1  0  0  0
 19 40  1  0  0  0
 20 41  1  0  0  0
 21 42  1  0  0  0
 21 43  1  0  0  0
 21 44  1  0  0  0
 22 23  1  0  0  0
 22 45  1  0  0  0
 22 46  1  0  0  0
 23 47  1  0  0  0
 23 48  1  0  0  0
M  END
> <s_m_entry_id>
6817

> <s_m_entry_name>
dock_pv.247

> <s_m_Source_Path>
/home/csk/Desktop/cluster/DUD-E-result/lkha4

> <s_m_Source_File>
dock_pv.maegz

> <i_m_Source_File_Index>
247

> <chembl_id>
CHEMBL162158

> <chembl_pref_name>
None

> <i_lp_mmshare_version>
53161

> <i_f3d_flags>
0

> <r_lp_tautomer_probability>
1

> <s_lp_Force_Field>
OPLS_2005

> <r_lp_Energy>
40.135493

> <b_lp_Chiralities_Consistent>
1

> <s_lp_Variant>
CHEMBL4618_lig59-1

> <s_i_glide_gridfile>
glide-grid_3chp

> <i_i_glide_lignum>
77

> <i_i_glide_rotatable_bonds>
7

> <r_i_docking_score>
-9.16134771632072

> <r_i_glide_ligand_efficiency>
-0.398319465926988

> <r_i_glide_ligand_efficiency_sa>
-1.13276757539794

> <r_i_glide_ligand_efficiency_ln>
-2.21529694831465

> <r_i_glide_gscore>
-9.16134771632072

> <r_i_glide_lipo>
-5.56410268791674

> <r_i_glide_hbond>
0

> <r_i_glide_metal>
0

> <r_i_glide_rewards>
-2.1857480051506

> <r_i_glide_evdw>
-40.5914649963379

> <r_i_glide_ecoul>
-2.2535765171051

> <r_i_glide_erotb>
0.956112704129277

> <r_i_glide_esite>
0

> <r_i_glide_emodel>
-59.3980583064359

> <r_i_glide_energy>
-42.845041513443

> <r_i_glide_einternal>
8.82503414154053

> <i_i_glide_confnum>
86

> <i_i_glide_posenum>
39

> <r_i_glide_eff_state_penalty>
0

> <s_user_duplicate_titles>
CHEMBL4618_lig59,271747

> <s_m_subgroup_title>
dock_pv

> <s_m_subgroupid>
dock_pv

> <b_m_subgroup_collapsed>
1

$$$$
CHEMBL4618_lig290
                    3D
 Schrodinger Suite 2021-1.
 45 48  0  0  1  0            999 V2000
    9.7253   34.9544   73.0789 C   0  0  0  0  0  0
   10.2796   36.0951   73.6568 C   0  0  0  0  0  0
   10.0993   37.3575   73.0847 C   0  0  0  0  0  0
    8.9215   35.0290   71.9399 C   0  0  0  0  0  0
    8.7238   36.3012   71.3939 C   0  0  0  0  0  0
    9.3102   37.4636   71.9279 C   0  0  0  0  0  0
    8.9813   38.5435   71.1512 N   0  0  0  0  0  0
    8.2381   38.0003   70.2109 C   0  0  0  0  0  0
    8.0055   36.6586   70.2934 O   0  0  0  0  0  0
    7.6110   38.6395   69.1727 O   0  0  0  0  0  0
    8.2438   39.6964   68.5639 C   0  0  0  0  0  0
    8.1210   40.9981   69.0500 C   0  0  0  0  0  0
    8.7645   42.0508   68.4062 C   0  0  0  0  0  0
    9.5644   41.8180   67.2905 C   0  0  0  0  0  0
    9.6677   40.5095   66.7981 C   0  0  0  0  0  0
    8.9982   39.4593   67.4202 C   0  0  0  0  0  0
   10.2081   42.9267   66.7718 O   0  0  0  0  0  0
   11.0246   42.8613   65.6016 C   0  0  0  0  0  0
   12.2388   41.9062   65.6984 C   0  0  0  0  0  0
   13.4687   42.5095   65.1722 N   0  0  0  0  0  0
   14.1958   43.2186   66.2374 C   0  0  0  0  0  0
   15.7035   43.4532   65.9545 C   0  0  0  0  0  0
   16.3103   42.3289   65.3177 O   0  0  0  0  0  0
   15.6645   42.0799   64.0735 C   0  0  0  0  0  0
   14.2603   41.5393   64.4010 C   0  0  0  0  0  0
    9.9009   33.9925   73.5407 H   0  0  0  0  0  0
   10.8755   35.9959   74.5535 H   0  0  0  0  0  0
   10.5511   38.2192   73.5401 H   0  0  0  0  0  0
    8.4640   34.1477   71.5196 H   0  0  0  0  0  0
    7.5498   41.2041   69.9370 H   0  0  0  0  0  0
    8.6615   43.0545   68.7910 H   0  0  0  0  0  0
   10.2601   40.2673   65.9399 H   0  0  0  0  0  0
    9.0869   38.4554   67.0300 H   0  0  0  0  0  0
   11.3600   43.8839   65.4198 H   0  0  0  0  0  0
   10.4043   42.6145   64.7418 H   0  0  0  0  0  0
   12.0238   40.9974   65.1403 H   0  0  0  0  0  0
   12.3709   41.5634   66.7259 H   0  0  0  0  0  0
   14.1359   42.6165   67.1404 H   0  0  0  0  0  0
   13.6756   44.1470   66.4720 H   0  0  0  0  0  0
   15.8442   44.3444   65.3427 H   0  0  0  0  0  0
   16.2288   43.6524   66.8890 H   0  0  0  0  0  0
   15.6032   42.9910   63.4659 H   0  0  0  0  0  0
   16.2372   41.3607   63.4899 H   0  0  0  0  0  0
   13.7224   41.2555   63.4987 H   0  0  0  0  0  0
   14.3664   40.6187   64.9809 H   0  0  0  0  0  0
  1  2  2  0  0  0
  1  4  1  0  0  0
  1 26  1  0  0  0
  2  3  1  0  0  0
  2 27  1  0  0  0
  3  6  2  0  0  0
  3 28  1  0  0  0
  4  5  2  0  0  0
  4 29  1  0  0  0
  5  9  1  0  0  0
  5  6  1  0  0  0
  6  7  1  0  0  0
  7  8  2  0  0  0
  8  9  1  0  0  0
  8 10  1  0  0  0
 10 11  1  0  0  0
 11 12  2  0  0  0
 11 16  1  0  0  0
 12 13  1  0  0  0
 12 30  1  0  0  0
 13 14  2  0  0  0
 13 31  1  0  0  0
 14 15  1  0  0  0
 14 17  1  0  0  0
 15 16  2  0  0  0
 15 32  1  0  0  0
 16 33  1  0  0  0
 17 18  1  0  0  0
 18 19  1  0  0  0
 18 34  1  0  0  0
 18 35  1  0  0  0
 19 20  1  0  0  0
 19 36  1  0  0  0
 19 37  1  0  0  0
 20 21  1  0  0  0
 20 25  1  0  0  0
 21 22  1  0  0  0
 21 38  1  0  0  0
 21 39  1  0  0  0
 22 23  1  0  0  0
 22 40  1  0  0  0
 22 41  1  0  0  0
 23 24  1  0  0  0
 24 25  1  0  0  0
 24 42  1  0  0  0
 24 43  1  0  0  0
 25 44  1  0  0  0
 25 45  1  0  0  0
M  END
> <s_m_entry_id>
6818

> <s_m_entry_name>
dock_pv.248

> <s_m_Source_Path>
/home/csk/Desktop/cluster/DUD-E-result/lkha4

> <s_m_Source_File>
dock_pv.maegz

> <i_m_Source_File_Index>
248

> <chembl_id>
CHEMBL482256

> <chembl_pref_name>
None

> <i_lp_mmshare_version>
53161

> <i_f3d_flags>
0

> <r_lp_tautomer_probability>
1

> <s_lp_Force_Field>
OPLS_2005

> <r_lp_Energy>
39.15808

> <b_lp_Chiralities_Consistent>
1

> <s_lp_Variant>
CHEMBL4618_lig290-1

> <s_i_glide_gridfile>
glide-grid_3chp

> <i_i_glide_lignum>
328

> <i_i_glide_rotatable_bonds>
6

> <r_i_docking_score>
-9.15848414833033

> <r_i_glide_ligand_efficiency>
-0.366339365933213

> <r_i_glide_ligand_efficiency_sa>
-1.07118280304503

> <r_i_glide_ligand_efficiency_ln>
-2.17083520077684

> <r_i_glide_gscore>
-9.15848414833033

> <r_i_glide_lipo>
-4.68934491374415

> <r_i_glide_hbond>
-0.32

> <r_i_glide_metal>
0

> <r_i_glide_rewards>
-1.77385028749474

> <r_i_glide_evdw>
-48.0095329284668

> <r_i_glide_ecoul>
-5.2804799079895

> <r_i_glide_erotb>
0.817259685530332

> <r_i_glide_esite>
0

> <r_i_glide_emodel>
-81.2749810874275

> <r_i_glide_energy>
-53.2900128364563

> <r_i_glide_einternal>
11.320216178894

> <i_i_glide_confnum>
60

> <i_i_glide_posenum>
335

> <r_i_glide_eff_state_penalty>
0

> <s_user_duplicate_titles>
CHEMBL4618_lig290,467580

> <s_m_subgroup_title>
dock_pv

> <s_m_subgroupid>
dock_pv

> <b_m_subgroup_collapsed>
1

$$$$
CHEMBL4618_lig32
                    3D
 Schrodinger Suite 2021-1.
 44 46  0  0  1  0            999 V2000
   11.6803   43.5026   64.6080 C   0  0  0  0  0  0
   13.1260   43.0073   64.5392 C   0  0  0  0  0  0
   13.3373   42.2958   65.8790 C   0  0  0  0  0  0
   11.9981   42.4390   66.6027 C   0  0  0  0  0  0
   11.0090   42.6289   65.5564 N   0  0  0  0  0  0
    9.6909   43.1037   65.9954 C   0  0  0  0  0  0
    9.0643   42.2611   67.1293 C   0  0  0  0  0  0
    8.9587   40.8784   66.7730 O   0  0  0  0  0  0
    8.6764   39.9439   67.7542 C   0  0  0  0  0  0
    8.5207   40.2565   69.1085 C   0  0  0  0  0  0
    8.2630   39.2539   70.0316 C   0  0  0  0  0  0
    8.5177   38.6160   67.3531 C   0  0  0  0  0  0
    8.2133   37.6198   68.2857 C   0  0  0  0  0  0
    8.1179   37.9306   69.6409 C   0  0  0  0  0  0
    7.7200   36.8806   70.6770 C   0  0  0  0  0  0
    8.7523   36.4584   71.7302 C   0  0  0  0  0  0
    9.0204   35.1007   71.9389 C   0  0  0  0  0  0
    9.9176   34.6930   72.9228 C   0  0  0  0  0  0
   10.5161   35.6443   73.7381 C   0  0  0  0  0  0
   10.2598   36.9987   73.5421 C   0  0  0  0  0  0
    9.3775   37.4040   72.5455 C   0  0  0  0  0  0
   11.6175   44.5523   64.8963 H   0  0  0  0  0  0
   11.1667   43.4265   63.6498 H   0  0  0  0  0  0
   13.8191   43.8399   64.4069 H   0  0  0  0  0  0
   13.2749   42.3297   63.6976 H   0  0  0  0  0  0
   13.5928   41.2455   65.7364 H   0  0  0  0  0  0
   14.1364   42.7585   66.4559 H   0  0  0  0  0  0
   11.7246   41.5336   67.1424 H   0  0  0  0  0  0
   11.9972   43.2456   67.3373 H   0  0  0  0  0  0
    9.7628   44.1390   66.3304 H   0  0  0  0  0  0
    9.0151   43.1015   65.1411 H   0  0  0  0  0  0
    9.6747   42.3975   68.0230 H   0  0  0  0  0  0
    8.0700   42.6455   67.3631 H   0  0  0  0  0  0
    8.5779   41.2699   69.4704 H   0  0  0  0  0  0
    8.1221   39.5199   71.0630 H   0  0  0  0  0  0
    8.6243   38.3576   66.3101 H   0  0  0  0  0  0
    8.0766   36.6035   67.9426 H   0  0  0  0  0  0
    6.8721   37.2898   71.2244 H   0  0  0  0  0  0
    7.3427   36.0023   70.1550 H   0  0  0  0  0  0
    8.5249   34.3522   71.3404 H   0  0  0  0  0  0
   10.1205   33.6428   73.0749 H   0  0  0  0  0  0
   11.1927   35.3303   74.5210 H   0  0  0  0  0  0
   10.7336   37.7318   74.1764 H   0  0  0  0  0  0
    9.1646   38.4538   72.4497 H   0  0  0  0  0  0
  1  2  1  0  0  0
  1  5  1  0  0  0
  1 22  1  0  0  0
  1 23  1  0  0  0
  2  3  1  0  0  0
  2 24  1  0  0  0
  2 25  1  0  0  0
  3  4  1  0  0  0
  3 26  1  0  0  0
  3 27  1  0  0  0
  4  5  1  0  0  0
  4 28  1  0  0  0
  4 29  1  0  0  0
  5  6  1  0  0  0
  6  7  1  0  0  0
  6 30  1  0  0  0
  6 31  1  0  0  0
  7  8  1  0  0  0
  7 32  1  0  0  0
  7 33  1  0  0  0
  8  9  1  0  0  0
  9 10  2  0  0  0
  9 12  1  0  0  0
 10 11  1  0  0  0
 10 34  1  0  0  0
 11 14  2  0  0  0
 11 35  1  0  0  0
 12 13  2  0  0  0
 12 36  1  0  0  0
 13 14  1  0  0  0
 13 37  1  0  0  0
 14 15  1  0  0  0
 15 16  1  0  0  0
 15 38  1  0  0  0
 15 39  1  0  0  0
 16 17  2  0  0  0
 16 21  1  0  0  0
 17 18  1  0  0  0
 17 40  1  0  0  0
 18 19  2  0  0  0
 18 41  1  0  0  0
 19 20  1  0  0  0
 19 42  1  0  0  0
 20 21  2  0  0  0
 20 43  1  0  0  0
 21 44  1  0  0  0
M  END
> <s_m_entry_id>
6819

> <s_m_entry_name>
dock_pv.249

> <s_m_Source_Path>
/home/csk/Desktop/cluster/DUD-E-result/lkha4

> <s_m_Source_File>
dock_pv.maegz

> <i_m_Source_File_Index>
249

> <chembl_id>
CHEMBL14608

> <chembl_pref_name>
None

> <i_lp_mmshare_version>
53161

> <i_f3d_flags>
0

> <r_lp_tautomer_probability>
1

> <s_lp_Force_Field>
OPLS_2005

> <r_lp_Energy>
36.842934

> <b_lp_Chiralities_Consistent>
1

> <s_lp_Variant>
CHEMBL4618_lig32-1

> <s_i_glide_gridfile>
glide-grid_3chp

> <i_i_glide_lignum>
44

> <i_i_glide_rotatable_bonds>
6

> <r_i_docking_score>
-9.15429165051931

> <r_i_glide_ligand_efficiency>
-0.435918650024729

> <r_i_glide_ligand_efficiency_sa>
-1.20266650126813

> <r_i_glide_ligand_efficiency_ln>
-2.26338011260288

> <r_i_glide_gscore>
-9.15429165051931

> <r_i_glide_lipo>
-5.68612658258098

> <r_i_glide_hbond>
0

> <r_i_glide_metal>
0

> <r_i_glide_rewards>
-2.39049911097674

> <r_i_glide_evdw>
-39.1912040710449

> <r_i_glide_ecoul>
-1.73029839992523

> <r_i_glide_erotb>
1.14143900657945

> <r_i_glide_esite>
0

> <r_i_glide_emodel>
-59.5759230156906

> <r_i_glide_energy>
-40.9215024709702

> <r_i_glide_einternal>
2.2265796661377

> <i_i_glide_confnum>
4

> <i_i_glide_posenum>
345

> <r_i_glide_eff_state_penalty>
0

> <s_user_duplicate_titles>
CHEMBL4618_lig32,14652

> <s_m_subgroup_title>
dock_pv

> <s_m_subgroupid>
dock_pv

> <b_m_subgroup_collapsed>
1

$$$$
CHEMBL4618_lig224
                    3D
 Schrodinger Suite 2021-1.
 63 66  0  0  1  0            999 V2000
   11.3679   42.6158   65.6720 C   0  0  0  0  0  0
   12.2872   41.5815   65.8828 C   0  0  0  0  0  0
   13.6315   41.7653   65.5789 C   0  0  0  0  0  0
   14.1032   43.0227   65.1874 C   0  0  0  0  0  0
   13.1806   44.0201   64.8933 C   0  0  0  0  0  0
   11.8272   43.8157   65.1401 C   0  0  0  0  0  0
   15.4592   43.4007   65.1402 N   0  0  0  0  0  0
   16.5622   42.6310   65.1155 C   0  0  0  0  0  0
   17.9373   43.3154   65.0893 C   0  0  0  0  0  0
   16.5324   41.4116   65.1394 O   0  0  0  0  0  0
   10.0057   42.5101   65.8692 O   0  0  0  0  0  0
    9.4439   41.7009   66.8315 C   0  0  0  0  0  0
    9.5223   40.3033   66.7819 C   0  0  0  0  0  0
    8.8842   39.5288   67.7466 C   0  0  0  0  0  0
    8.1321   40.1513   68.7397 C   0  0  0  0  0  0
    8.0138   41.5384   68.7686 C   0  0  0  0  0  0
    8.6731   42.3113   67.8186 C   0  0  0  0  0  0
   18.3229   43.9089   66.3615 N   0  0  2  0  0  0
   19.4847   44.7785   66.1506 C   0  0  0  0  0  0
   18.5165   42.9749   67.4899 C   0  0  2  0  0  0
   19.2149   43.0456   69.7903 N   0  0  1  0  0  0
   19.5375   43.8788   70.9515 C   0  0  0  0  0  0
   18.3495   44.1605   71.8721 C   0  0  0  0  0  0
   17.3206   45.0202   71.4823 C   0  0  0  0  0  0
   16.2665   45.3013   72.3451 C   0  0  0  0  0  0
   16.2176   44.7186   73.6160 C   0  0  0  0  0  0
   17.2587   43.8677   74.0101 C   0  0  0  0  0  0
   18.3161   43.5950   73.1435 C   0  0  0  0  0  0
   15.0569   45.0175   74.5330 C   0  0  0  0  0  0
   15.0757   44.3639   75.7267 O   0  0  0  0  0  0
   14.1520   45.7907   74.2260 O   0  0  0  0  0  0
   18.3528   43.7096   68.8230 C   0  0  0  0  0  0
   19.8589   42.2255   67.6564 C   0  0  0  0  0  0
   20.3966   42.7357   68.9939 C   0  0  0  0  0  0
   11.9844   40.6163   66.2451 H   0  0  0  0  0  0
   14.2783   40.9239   65.7510 H   0  0  0  0  0  0
   13.5112   44.9855   64.5402 H   0  0  0  0  0  0
   11.1275   44.6154   64.9804 H   0  0  0  0  0  0
   15.6194   44.3815   64.9657 H   0  0  0  0  0  0
   18.6983   42.6143   64.7402 H   0  0  0  0  0  0
   17.8577   44.1004   64.3400 H   0  0  0  0  0  0
   10.0493   39.8078   65.9802 H   0  0  0  0  0  0
    8.9576   38.4511   67.7091 H   0  0  0  0  0  0
    7.6240   39.5578   69.4869 H   0  0  0  0  0  0
    7.4076   42.0099   69.5265 H   0  0  0  0  0  0
    8.5696   43.3875   67.8341 H   0  0  0  0  0  0
   19.3177   45.4160   65.2868 H   0  0  0  0  0  0
   19.6808   45.4140   67.0124 H   0  0  0  0  0  0
   20.3918   44.2224   65.9211 H   0  0  0  0  0  0
   17.7309   42.2182   67.4890 H   0  0  0  0  0  0
   20.3163   43.3782   71.5303 H   0  0  0  0  0  0
   19.9664   44.8256   70.6235 H   0  0  0  0  0  0
   17.3349   45.4985   70.5162 H   0  0  0  0  0  0
   15.4887   45.9744   72.0117 H   0  0  0  0  0  0
   17.2643   43.4154   74.9915 H   0  0  0  0  0  0
   19.1168   42.9478   73.4685 H   0  0  0  0  0  0
   14.3022   44.6160   76.2333 H   0  0  0  0  0  0
   18.5710   44.7764   68.7519 H   0  0  0  0  0  0
   17.3214   43.6353   69.1666 H   0  0  0  0  0  0
   19.7211   41.1518   67.7548 H   0  0  0  0  0  0
   20.5765   42.3674   66.8496 H   0  0  0  0  0  0
   20.9846   41.9828   69.5218 H   0  0  0  0  0  0
   21.0625   43.5927   68.8772 H   0  0  0  0  0  0
  1 11  1  0  0  0
  1  6  1  0  0  0
  1  2  2  0  0  0
  2  3  1  0  0  0
  2 35  1  0  0  0
  3  4  2  0  0  0
  3 36  1  0  0  0
  4  5  1  0  0  0
  4  7  1  0  0  0
  5  6  2  0  0  0
  5 37  1  0  0  0
  6 38  1  0  0  0
  7  8  1  0  0  0
  7 39  1  0  0  0
  8  9  1  0  0  0
  8 10  2  0  0  0
  9 18  1  0  0  0
  9 40  1  0  0  0
  9 41  1  0  0  0
 11 12  1  0  0  0
 12 17  1  0  0  0
 12 13  2  0  0  0
 13 14  1  0  0  0
 13 42  1  0  0  0
 14 15  2  0  0  0
 14 43  1  0  0  0
 15 16  1  0  0  0
 15 44  1  0  0  0
 16 17  2  0  0  0
 16 45  1  0  0  0
 17 46  1  0  0  0
 18 19  1  0  0  0
 18 20  1  0  0  0
 19 47  1  0  0  0
 19 48  1  0  0  0
 19 49  1  0  0  0
 20 32  1  0  0  0
 20 33  1  0  0  0
 20 50  1  0  0  0
 21 22  1  0  0  0
 21 32  1  0  0  0
 21 34  1  0  0  0
 22 23  1  0  0  0
 22 51  1  0  0  0
 22 52  1  0  0  0
 23 28  1  0  0  0
 23 24  2  0  0  0
 24 25  1  0  0  0
 24 53  1  0  0  0
 25 26  2  0  0  0
 25 54  1  0  0  0
 26 27  1  0  0  0
 26 29  1  0  0  0
 27 28  2  0  0  0
 27 55  1  0  0  0
 28 56  1  0  0  0
 29 30  1  0  0  0
 29 31  2  0  0  0
 30 57  1  0  0  0
 32 58  1  0  0  0
 32 59  1  0  0  0
 33 34  1  0  0  0
 33 60  1  0  0  0
 33 61  1  0  0  0
 34 62  1  0  0  0
 34 63  1  0  0  0
M  END
> <s_m_entry_id>
6820

> <s_m_entry_name>
dock_pv.250

> <s_m_Source_Path>
/home/csk/Desktop/cluster/DUD-E-result/lkha4

> <s_m_Source_File>
dock_pv.maegz

> <i_m_Source_File_Index>
250

> <chembl_id>
CHEMBL481489

> <chembl_pref_name>
None

> <i_lp_mmshare_version>
53161

> <i_f3d_flags>
0

> <r_lp_tautomer_probability>
1

> <s_lp_Force_Field>
OPLS_2005

> <r_lp_Energy>
68.074311

> <b_lp_Chiralities_Consistent>
1

> <s_lp_Variant>
CHEMBL4618_lig224-1

> <s_i_glide_gridfile>
glide-grid_3chp

> <i_i_glide_lignum>
253

> <i_i_glide_rotatable_bonds>
11

> <r_i_docking_score>
-9.15030237953544

> <r_i_glide_ligand_efficiency>
-0.269126540574572

> <r_i_glide_ligand_efficiency_sa>
-0.871865515857529

> <r_i_glide_ligand_efficiency_ln>
-2.02155845292756

> <r_i_glide_gscore>
-9.15030237953544

> <r_i_glide_lipo>
-4.73693391116559

> <r_i_glide_hbond>
-0.451262892465054

> <r_i_glide_metal>
0

> <r_i_glide_rewards>
-0.700843208071253

> <r_i_glide_evdw>
-54.2894401550293

> <r_i_glide_ecoul>
-8.74704551696777

> <r_i_glide_erotb>
0.95283352812541

> <r_i_glide_esite>
-0.187567060662321

> <r_i_glide_emodel>
-93.6445244830927

> <r_i_glide_energy>
-63.0364856719971

> <r_i_glide_einternal>
10.3454313278198

> <i_i_glide_confnum>
5

> <i_i_glide_posenum>
205

> <r_i_glide_eff_state_penalty>
0

> <s_user_duplicate_titles>
CHEMBL4618_lig224

> <s_m_subgroup_title>
dock_pv

> <s_m_subgroupid>
dock_pv

> <b_m_subgroup_collapsed>
1

$$$$
CHEMBL4618_lig301
                    3D
 Schrodinger Suite 2021-1.
 50 53  0  0  1  0            999 V2000
    9.7221   34.9533   73.0757 C   0  0  0  0  0  0
   10.2680   36.0918   73.6519 C   0  0  0  0  0  0
   10.0604   37.3463   73.0862 C   0  0  0  0  0  0
    8.9203   35.0243   71.9396 C   0  0  0  0  0  0
    8.6721   36.2862   71.3784 C   0  0  0  0  0  0
    9.2401   37.4518   71.9510 C   0  0  0  0  0  0
    8.9217   38.6160   71.3309 N   0  0  0  0  0  0
    8.1322   38.4095   70.3181 C   0  0  0  0  0  0
    7.7213   36.7579   69.9653 S   0  0  0  0  0  0
    7.5535   39.3764   69.5360 O   0  0  0  0  0  0
    8.3446   40.1588   68.7270 C   0  0  0  0  0  0
    9.3200   39.5860   67.9162 C   0  0  0  0  0  0
   10.1161   40.3862   67.1065 C   0  0  0  0  0  0
    9.9496   41.7740   67.0866 C   0  0  0  0  0  0
    8.9182   42.3360   67.8423 C   0  0  0  0  0  0
    8.1196   41.5348   68.6614 C   0  0  0  0  0  0
   10.7475   42.6261   66.3420 O   0  0  0  0  0  0
   12.0283   42.1671   65.8923 C   0  0  0  0  0  0
   12.5698   43.1425   64.8414 C   0  0  0  0  0  0
   13.9052   42.7092   64.1845 C   0  0  0  0  0  0
   15.0677   42.5779   65.0877 N   0  0  0  0  0  0
   16.2499   42.2861   64.2495 C   0  0  0  0  0  0
   17.5792   42.2946   65.0397 C   0  0  0  0  0  0
   17.7832   43.5784   65.8467 C   0  0  0  0  0  0
   16.5502   43.8278   66.7146 C   0  0  0  0  0  0
   15.2566   43.8060   65.8736 C   0  0  0  0  0  0
    9.9116   33.9925   73.5356 H   0  0  0  0  0  0
   10.8792   35.9996   74.5389 H   0  0  0  0  0  0
   10.5065   38.2164   73.5356 H   0  0  0  0  0  0
    8.4848   34.1278   71.5266 H   0  0  0  0  0  0
    9.4699   38.5154   67.9207 H   0  0  0  0  0  0
   10.8451   39.8854   66.4929 H   0  0  0  0  0  0
    8.7496   43.4055   67.8081 H   0  0  0  0  0  0
    7.3302   41.9809   69.2483 H   0  0  0  0  0  0
   11.9891   41.1876   65.4265 H   0  0  0  0  0  0
   12.7115   42.0997   66.7400 H   0  0  0  0  0  0
   12.6370   44.1535   65.2445 H   0  0  0  0  0  0
   11.8274   43.2255   64.0467 H   0  0  0  0  0  0
   14.1220   43.4092   63.3726 H   0  0  0  0  0  0
   13.7479   41.7382   63.7091 H   0  0  0  0  0  0
   16.3313   43.0140   63.4419 H   0  0  0  0  0  0
   16.1025   41.3306   63.7449 H   0  0  0  0  0  0
   18.4091   42.2157   64.3419 H   0  0  0  0  0  0
   17.6476   41.4161   65.6740 H   0  0  0  0  0  0
   18.6808   43.5030   66.4626 H   0  0  0  0  0  0
   17.9395   44.4166   65.1660 H   0  0  0  0  0  0
   16.4939   43.0957   67.5210 H   0  0  0  0  0  0
   16.6362   44.7936   67.2148 H   0  0  0  0  0  0
   15.2851   44.6150   65.1458 H   0  0  0  0  0  0
   14.4009   43.9839   66.5245 H   0  0  0  0  0  0
  1  4  1  0  0  0
  1  2  2  0  0  0
  1 27  1  0  0  0
  2  3  1  0  0  0
  2 28  1  0  0  0
  3  6  2  0  0  0
  3 29  1  0  0  0
  4  5  2  0  0  0
  4 30  1  0  0  0
  5  9  1  0  0  0
  5  6  1  0  0  0
  6  7  1  0  0  0
  7  8  2  0  0  0
  8  9  1  0  0  0
  8 10  1  0  0  0
 10 11  1  0  0  0
 11 16  1  0  0  0
 11 12  2  0  0  0
 12 13  1  0  0  0
 12 31  1  0  0  0
 13 14  2  0  0  0
 13 32  1  0  0  0
 14 15  1  0  0  0
 14 17  1  0  0  0
 15 16  2  0  0  0
 15 33  1  0  0  0
 16 34  1  0  0  0
 17 18  1  0  0  0
 18 19  1  0  0  0
 18 35  1  0  0  0
 18 36  1  0  0  0
 19 20  1  0  0  0
 19 37  1  0  0  0
 19 38  1  0  0  0
 20 21  1  0  0  0
 20 39  1  0  0  0
 20 40  1  0  0  0
 21 22  1  0  0  0
 21 26  1  0  0  0
 22 23  1  0  0  0
 22 41  1  0  0  0
 22 42  1  0  0  0
 23 24  1  0  0  0
 23 43  1  0  0  0
 23 44  1  0  0  0
 24 25  1  0  0  0
 24 45  1  0  0  0
 24 46  1  0  0  0
 25 26  1  0  0  0
 25 47  1  0  0  0
 25 48  1  0  0  0
 26 49  1  0  0  0
 26 50  1  0  0  0
M  END
> <s_m_entry_id>
6821

> <s_m_entry_name>
dock_pv.251

> <s_m_Source_Path>
/home/csk/Desktop/cluster/DUD-E-result/lkha4

> <s_m_Source_File>
dock_pv.maegz

> <i_m_Source_File_Index>
251

> <chembl_id>
CHEMBL479788

> <chembl_pref_name>
None

> <i_lp_mmshare_version>
53161

> <i_f3d_flags>
0

> <r_lp_tautomer_probability>
1

> <s_lp_Force_Field>
OPLS_2005

> <r_lp_Energy>
32.80342

> <b_lp_Chiralities_Consistent>
1

> <s_lp_Variant>
CHEMBL4618_lig301-1

> <s_i_glide_gridfile>
glide-grid_3chp

> <i_i_glide_lignum>
339

> <i_i_glide_rotatable_bonds>
7

> <r_i_docking_score>
-9.14777733555672

> <r_i_glide_ligand_efficiency>
-0.351837589829105

> <r_i_glide_ligand_efficiency_sa>
-1.04231747545466

> <r_i_glide_ligand_efficiency_ln>
-2.14832549094982

> <r_i_glide_gscore>
-9.14777733555672

> <r_i_glide_lipo>
-5.34239786928774

> <r_i_glide_hbond>
-0.0129423883758208

> <r_i_glide_metal>
0

> <r_i_glide_rewards>
-1.53896826325637

> <r_i_glide_evdw>
-49.9344863891602

> <r_i_glide_ecoul>
-4.05495500564575

> <r_i_glide_erotb>
0.851498755668085

> <r_i_glide_esite>
0

> <r_i_glide_emodel>
-75.5376506038352

> <r_i_glide_energy>
-53.9894413948059

> <r_i_glide_einternal>
14.233642578125

> <i_i_glide_confnum>
16

> <i_i_glide_posenum>
103

> <r_i_glide_eff_state_penalty>
0

> <s_user_duplicate_titles>
CHEMBL4618_lig301,467585

> <s_m_subgroup_title>
dock_pv

> <s_m_subgroupid>
dock_pv

> <b_m_subgroup_collapsed>
1

$$$$
CHEMBL4618_lig250
                    3D
 Schrodinger Suite 2021-1.
 68 70  0  0  1  0            999 V2000
   19.4704   44.3534   67.6839 C   0  0  0  0  0  0
   19.5424   43.7819   66.4110 C   0  0  0  0  0  0
   18.3756   43.4838   65.7167 C   0  0  0  0  0  0
   17.1301   43.7575   66.2964 C   0  0  0  0  0  0
   17.0627   44.3971   67.5356 C   0  0  0  0  0  0
   18.2329   44.6905   68.2317 C   0  0  0  0  0  0
   15.9185   43.4168   65.6765 N   0  0  0  0  0  0
   15.6521   42.3016   64.9622 C   0  0  0  0  0  0
   14.2248   42.1493   64.3992 C   0  0  0  0  0  0
   16.4883   41.4162   64.7408 O   0  0  0  0  0  0
   13.2005   42.6689   65.3272 N   0  0  1  0  0  0
   20.6107   44.5620   68.4219 O   0  0  0  0  0  0
   21.2371   43.4308   68.8901 C   0  0  0  0  0  0
   22.3153   42.8922   68.1849 C   0  0  0  0  0  0
   22.9100   41.7112   68.6220 C   0  0  0  0  0  0
   22.4378   41.0859   69.7749 C   0  0  0  0  0  0
   21.3748   41.6284   70.4939 C   0  0  0  0  0  0
   20.7720   42.8033   70.0493 C   0  0  0  0  0  0
   12.4305   43.7650   64.7409 C   0  0  0  0  0  0
   12.3820   41.5872   65.9081 C   0  0  0  0  0  0
   11.1002   41.9403   66.7178 C   0  0  0  0  0  0
   10.1741   40.7042   66.8080 C   0  0  0  0  0  0
    9.3206   40.5522   67.9948 N   0  0  2  0  0  0
    8.6361   39.2468   67.8923 C   0  0  0  0  0  0
    8.3817   41.6728   68.0976 C   0  0  0  0  0  0
    7.6844   38.8315   69.0485 C   0  0  0  0  0  0
    8.2899   37.9798   70.1669 C   0  0  0  0  0  0
    9.1010   38.5572   71.1380 C   0  0  0  0  0  0
    9.6379   37.7722   72.1622 C   0  0  0  0  0  0
    9.3780   36.4016   72.2301 C   0  0  0  0  0  0
    8.5216   35.8348   71.2809 C   0  0  0  0  0  0
    7.9920   36.6166   70.2572 C   0  0  0  0  0  0
   10.0319   35.5614   73.3020 C   0  0  0  0  0  0
   10.1210   34.2322   73.0174 O   0  0  0  0  0  0
   10.5110   36.0463   74.3245 O   0  0  0  0  0  0
   20.4985   43.5385   65.9720 H   0  0  0  0  0  0
   18.4510   43.0264   64.7404 H   0  0  0  0  0  0
   16.1073   44.6180   67.9889 H   0  0  0  0  0  0
   18.1786   45.1350   69.2143 H   0  0  0  0  0  0
   15.1273   44.0199   65.8470 H   0  0  0  0  0  0
   14.2134   42.6686   63.4375 H   0  0  0  0  0  0
   14.0665   41.0999   64.1382 H   0  0  0  0  0  0
   22.6713   43.3700   67.2844 H   0  0  0  0  0  0
   23.7209   41.2719   68.0587 H   0  0  0  0  0  0
   22.8950   40.1661   70.1118 H   0  0  0  0  0  0
   21.0155   41.1282   71.3820 H   0  0  0  0  0  0
   19.9313   43.2135   70.5880 H   0  0  0  0  0  0
   11.8387   44.2766   65.4979 H   0  0  0  0  0  0
   13.0969   44.5133   64.3082 H   0  0  0  0  0  0
   11.7638   43.4097   63.9550 H   0  0  0  0  0  0
   12.1118   40.8651   65.1402 H   0  0  0  0  0  0
   13.0416   41.0324   66.5763 H   0  0  0  0  0  0
   11.3210   42.3101   67.7147 H   0  0  0  0  0  0
   10.5473   42.7448   66.2383 H   0  0  0  0  0  0
    9.5202   40.7319   65.9467 H   0  0  0  0  0  0
   10.7789   39.8160   66.6710 H   0  0  0  0  0  0
    8.0850   39.2128   66.9516 H   0  0  0  0  0  0
    9.3948   38.4672   67.8043 H   0  0  0  0  0  0
    7.8087   41.6327   69.0227 H   0  0  0  0  0  0
    8.9065   42.6287   68.1078 H   0  0  0  0  0  0
    7.6798   41.6892   67.2634 H   0  0  0  0  0  0
    7.1518   39.6743   69.4851 H   0  0  0  0  0  0
    6.9057   38.2250   68.5896 H   0  0  0  0  0  0
    9.3141   39.6136   71.0936 H   0  0  0  0  0  0
   10.2832   38.2159   72.9054 H   0  0  0  0  0  0
    8.2789   34.7825   71.3191 H   0  0  0  0  0  0
    7.3380   36.1500   69.5406 H   0  0  0  0  0  0
   10.5597   33.7744   73.7368 H   0  0  0  0  0  0
  1 12  1  0  0  0
  1  6  1  0  0  0
  1  2  2  0  0  0
  2  3  1  0  0  0
  2 36  1  0  0  0
  3  4  2  0  0  0
  3 37  1  0  0  0
  4  5  1  0  0  0
  4  7  1  0  0  0
  5  6  2  0  0  0
  5 38  1  0  0  0
  6 39  1  0  0  0
  7  8  1  0  0  0
  7 40  1  0  0  0
  8  9  1  0  0  0
  8 10  2  0  0  0
  9 11  1  0  0  0
  9 41  1  0  0  0
  9 42  1  0  0  0
 11 19  1  0  0  0
 11 20  1  0  0  0
 12 13  1  0  0  0
 13 18  1  0  0  0
 13 14  2  0  0  0
 14 15  1  0  0  0
 14 43  1  0  0  0
 15 16  2  0  0  0
 15 44  1  0  0  0
 16 17  1  0  0  0
 16 45  1  0  0  0
 17 18  2  0  0  0
 17 46  1  0  0  0
 18 47  1  0  0  0
 19 48  1  0  0  0
 19 49  1  0  0  0
 19 50  1  0  0  0
 20 21  1  0  0  0
 20 51  1  0  0  0
 20 52  1  0  0  0
 21 22  1  0  0  0
 21 53  1  0  0  0
 21 54  1  0  0  0
 22 23  1  0  0  0
 22 55  1  0  0  0
 22 56  1  0  0  0
 23 24  1  0  0  0
 23 25  1  0  0  0
 24 26  1  0  0  0
 24 57  1  0  0  0
 24 58  1  0  0  0
 25 59  1  0  0  0
 25 60  1  0  0  0
 25 61  1  0  0  0
 26 27  1  0  0  0
 26 62  1  0  0  0
 26 63  1  0  0  0
 27 28  2  0  0  0
 27 32  1  0  0  0
 28 29  1  0  0  0
 28 64  1  0  0  0
 29 30  2  0  0  0
 29 65  1  0  0  0
 30 31  1  0  0  0
 30 33  1  0  0  0
 31 32  2  0  0  0
 31 66  1  0  0  0
 32 67  1  0  0  0
 33 34  1  0  0  0
 33 35  2  0  0  0
 34 68  1  0  0  0
M  END
> <s_m_entry_id>
6822

> <s_m_entry_name>
dock_pv.252

> <s_m_Source_Path>
/home/csk/Desktop/cluster/DUD-E-result/lkha4

> <s_m_Source_File>
dock_pv.maegz

> <i_m_Source_File_Index>
252

> <chembl_id>
CHEMBL479561

> <chembl_pref_name>
None

> <i_lp_mmshare_version>
53161

> <i_f3d_flags>
0

> <r_lp_tautomer_probability>
1

> <s_lp_Force_Field>
OPLS_2005

> <r_lp_Energy>
41.110163

> <b_lp_Chiralities_Consistent>
1

> <s_lp_Variant>
CHEMBL4618_lig250-1

> <s_i_glide_gridfile>
glide-grid_3chp

> <i_i_glide_lignum>
287

> <i_i_glide_rotatable_bonds>
15

> <r_i_docking_score>
-9.13499390809496

> <r_i_glide_ligand_efficiency>
-0.26099982594557

> <r_i_glide_ligand_efficiency_sa>
-0.853747736603851

> <r_i_glide_ligand_efficiency_ln>
-2.00533390309328

> <r_i_glide_gscore>
-9.13499390809496

> <r_i_glide_lipo>
-4.1931556360611

> <r_i_glide_hbond>
-0.171406812770691

> <r_i_glide_metal>
0

> <r_i_glide_rewards>
-0.954612060507414

> <r_i_glide_evdw>
-67.1308441162109

> <r_i_glide_ecoul>
-10.112232208252

> <r_i_glide_erotb>
1.25304300575325

> <r_i_glide_esite>
-0.195485367460664

> <r_i_glide_emodel>
-112.523352241911

> <r_i_glide_energy>
-77.2430763244629

> <r_i_glide_einternal>
20.4789924621582

> <i_i_glide_confnum>
24

> <i_i_glide_posenum>
333

> <r_i_glide_eff_state_penalty>
0

> <s_user_duplicate_titles>
CHEMBL4618_lig250,466724

> <s_m_subgroup_title>
dock_pv

> <s_m_subgroupid>
dock_pv

> <b_m_subgroup_collapsed>
1

$$$$
CHEMBL4618_lig18
                    3D
 Schrodinger Suite 2021-1.
 54 57  0  0  1  0            999 V2000
   11.7676   42.2164   65.6031 N   0  0  1  0  0  0
   13.9473   42.9416   66.1430 C   0  0  2  0  0  0
   14.5905   41.9401   65.1448 C   0  0  1  0  0  0
   12.4778   42.9257   64.5126 C   0  0  2  0  0  0
   13.6360   42.0662   63.9410 C   0  0  0  0  0  0
   12.6927   42.3008   66.7400 C   0  0  0  0  0  0
   16.0633   42.2166   64.7898 C   0  0  0  0  0  0
   13.2762   43.9671   65.2540 C   0  0  0  0  0  0
   16.6781   41.4160   64.0898 O   0  0  0  0  0  0
    8.0222   38.0241   69.6169 C   0  0  0  0  0  0
   16.6041   43.2846   65.4195 O   0  0  0  0  0  0
   10.4403   42.7818   65.9113 C   0  0  0  0  0  0
    7.5940   36.9993   70.6653 C   0  0  0  0  0  0
    8.7696   39.9352   67.7050 C   0  0  0  0  0  0
    8.1216   37.6708   68.2727 C   0  0  0  0  0  0
    8.2121   39.3540   69.9734 C   0  0  0  0  0  0
    8.5213   40.3177   69.0251 C   0  0  0  0  0  0
    8.5209   38.6162   67.3278 C   0  0  0  0  0  0
    8.6362   36.5209   71.6842 C   0  0  0  0  0  0
    9.2777   40.7793   66.7400 O   0  0  0  0  0  0
    9.6783   42.1058   67.0792 C   0  0  0  0  0  0
   17.9705   43.6274   65.2419 C   0  0  0  0  0  0
    9.2146   37.4159   72.5832 C   0  0  0  0  0  0
    8.9624   35.1641   71.7882 C   0  0  0  0  0  0
   10.1213   36.9692   73.5405 C   0  0  0  0  0  0
    9.8732   34.7132   72.7397 C   0  0  0  0  0  0
   10.4419   35.6187   73.6247 C   0  0  0  0  0  0
   14.6072   43.3657   66.8994 H   0  0  0  0  0  0
   14.5403   40.9250   65.5397 H   0  0  0  0  0  0
   11.8222   43.3283   63.7398 H   0  0  0  0  0  0
   14.0939   42.5801   63.0921 H   0  0  0  0  0  0
   13.3211   41.0855   63.5920 H   0  0  0  0  0  0
   12.9461   41.3120   67.1202 H   0  0  0  0  0  0
   12.3265   42.9494   67.5395 H   0  0  0  0  0  0
   12.6094   44.6160   65.8016 H   0  0  0  0  0  0
   13.9573   44.5570   64.6387 H   0  0  0  0  0  0
   10.5268   43.8461   66.1246 H   0  0  0  0  0  0
    9.8193   42.7022   65.0232 H   0  0  0  0  0  0
    6.7476   37.4159   71.2148 H   0  0  0  0  0  0
    7.2112   36.1325   70.1289 H   0  0  0  0  0  0
    7.9480   36.6524   67.9612 H   0  0  0  0  0  0
    8.1212   39.6535   71.0019 H   0  0  0  0  0  0
    8.6526   41.3380   69.3493 H   0  0  0  0  0  0
    8.6773   38.3169   66.3019 H   0  0  0  0  0  0
   10.2971   42.1091   67.9748 H   0  0  0  0  0  0
    8.7866   42.6925   67.3070 H   0  0  0  0  0  0
   18.3080   44.2303   66.0845 H   0  0  0  0  0  0
   18.0978   44.2200   64.3399 H   0  0  0  0  0  0
   18.6175   42.7506   65.1799 H   0  0  0  0  0  0
    8.9471   38.4592   72.5658 H   0  0  0  0  0  0
    8.5211   34.4318   71.1400 H   0  0  0  0  0  0
   10.5678   37.6670   74.2318 H   0  0  0  0  0  0
   10.1195   33.6633   72.8052 H   0  0  0  0  0  0
   11.1354   35.2728   74.3776 H   0  0  0  0  0  0
  1  4  1  0  0  0
  1  6  1  0  0  0
  1 12  1  0  0  0
  2  6  1  0  0  0
  2  3  1  0  0  0
  2  8  1  0  0  0
  2 28  1  0  0  0
  3  7  1  0  0  0
  3  5  1  0  0  0
  3 29  1  0  0  0
  4  5  1  0  0  0
  4  8  1  0  0  0
  4 30  1  0  0  0
  5 31  1  0  0  0
  5 32  1  0  0  0
  6 33  1  0  0  0
  6 34  1  0  0  0
  7  9  2  0  0  0
  7 11  1  0  0  0
  8 35  1  0  0  0
  8 36  1  0  0  0
 10 15  1  0  0  0
 10 13  1  0  0  0
 10 16  2  0  0  0
 11 22  1  0  0  0
 12 21  1  0  0  0
 12 37  1  0  0  0
 12 38  1  0  0  0
 13 19  1  0  0  0
 13 39  1  0  0  0
 13 40  1  0  0  0
 14 20  1  0  0  0
 14 17  2  0  0  0
 14 18  1  0  0  0
 15 18  2  0  0  0
 15 41  1  0  0  0
 16 17  1  0  0  0
 16 42  1  0  0  0
 17 43  1  0  0  0
 18 44  1  0  0  0
 19 23  2  0  0  0
 19 24  1  0  0  0
 20 21  1  0  0  0
 21 45  1  0  0  0
 21 46  1  0  0  0
 22 47  1  0  0  0
 22 48  1  0  0  0
 22 49  1  0  0  0
 23 25  1  0  0  0
 23 50  1  0  0  0
 24 26  2  0  0  0
 24 51  1  0  0  0
 25 27  2  0  0  0
 25 52  1  0  0  0
 26 27  1  0  0  0
 26 53  1  0  0  0
 27 54  1  0  0  0
M  END
> <s_m_entry_id>
6823

> <s_m_entry_name>
dock_pv.253

> <s_m_Source_Path>
/home/csk/Desktop/cluster/DUD-E-result/lkha4

> <s_m_Source_File>
dock_pv.maegz

> <i_m_Source_File_Index>
253

> <chembl_id>
CHEMBL114591

> <chembl_pref_name>
None

> <i_lp_mmshare_version>
53161

> <i_f3d_flags>
0

> <r_lp_tautomer_probability>
1

> <s_lp_Force_Field>
OPLS_2005

> <r_lp_Energy>
67.004282

> <b_lp_Chiralities_Consistent>
1

> <s_lp_Variant>
CHEMBL4618_lig18-1

> <s_i_glide_gridfile>
glide-grid_3chp

> <i_i_glide_lignum>
22

> <i_i_glide_rotatable_bonds>
8

> <r_i_docking_score>
-9.13005897677583

> <r_i_glide_ligand_efficiency>
-0.338150332473179

> <r_i_glide_ligand_efficiency_sa>
-1.01445099630505

> <r_i_glide_ligand_efficiency_ln>
-2.12532720900734

> <r_i_glide_gscore>
-9.13005897677583

> <r_i_glide_lipo>
-5.4987210190261

> <r_i_glide_hbond>
0

> <r_i_glide_metal>
0

> <r_i_glide_rewards>
-1.81697012424804

> <r_i_glide_evdw>
-43.9781799316406

> <r_i_glide_ecoul>
-3.4908082485199

> <r_i_glide_erotb>
1.00816240035832

> <r_i_glide_esite>
-0.1

> <r_i_glide_emodel>
-66.8115190647883

> <r_i_glide_energy>
-47.4689881801605

> <r_i_glide_einternal>
6.18771505355835

> <i_i_glide_confnum>
21

> <i_i_glide_posenum>
61

> <r_i_glide_eff_state_penalty>
0

> <s_user_duplicate_titles>
CHEMBL4618_lig18

> <s_m_subgroup_title>
dock_pv

> <s_m_subgroupid>
dock_pv

> <b_m_subgroup_collapsed>
1

$$$$
CHEMBL4618_lig57
                    3D
 Schrodinger Suite 2021-1.
 46 48  0  0  1  0            999 V2000
   14.0902   43.1305   64.7717 N   0  0  0  0  0  0
   16.7374   41.8173   64.8777 N   0  0  0  0  0  0
    8.3643   39.8860   68.4510 C   0  0  0  0  0  0
    7.5544   38.8831   69.2611 C   0  0  0  0  0  0
    9.8909   41.6870   66.9452 C   0  0  0  0  0  0
    9.2323   39.4155   67.4763 C   0  0  0  0  0  0
    8.1924   41.2640   68.6223 C   0  0  0  0  0  0
    8.9480   42.1570   67.8611 C   0  0  0  0  0  0
   10.0016   40.3062   66.7400 C   0  0  0  0  0  0
    8.2980   37.9790   70.2306 C   0  0  0  0  0  0
   10.6650   42.6156   66.2716 O   0  0  0  0  0  0
   12.6648   43.3446   65.0669 C   0  0  0  0  0  0
   11.9735   42.2133   65.8576 C   0  0  0  0  0  0
   14.3745   41.8691   64.0771 C   0  0  0  0  0  0
   14.9515   43.2795   65.9485 C   0  0  0  0  0  0
   16.4549   43.0647   65.6028 C   0  0  0  0  0  0
   15.8755   41.8001   63.6953 C   0  0  0  0  0  0
    9.1824   38.5422   71.1402 C   0  0  0  0  0  0
    7.9985   36.6163   70.3126 C   0  0  0  0  0  0
    9.7204   37.7697   72.1675 C   0  0  0  0  0  0
    8.5212   35.8443   71.3492 C   0  0  0  0  0  0
    9.3729   36.4267   72.2805 C   0  0  0  0  0  0
   17.6909   41.9341   64.5398 H   0  0  0  0  0  0
    6.9211   38.3037   68.5899 H   0  0  0  0  0  0
    6.9196   39.4465   69.9294 H   0  0  0  0  0  0
    9.3227   38.3527   67.3009 H   0  0  0  0  0  0
    7.4840   41.6471   69.3415 H   0  0  0  0  0  0
    8.8223   43.2213   68.0017 H   0  0  0  0  0  0
   10.6726   39.8905   66.0067 H   0  0  0  0  0  0
   12.1416   43.4860   64.1202 H   0  0  0  0  0  0
   12.5416   44.2869   65.5988 H   0  0  0  0  0  0
   12.5512   41.9398   66.7400 H   0  0  0  0  0  0
   11.9345   41.3411   65.2102 H   0  0  0  0  0  0
   14.1148   41.0100   64.6963 H   0  0  0  0  0  0
   13.7546   41.8164   63.1788 H   0  0  0  0  0  0
   14.8274   44.2861   66.3440 H   0  0  0  0  0  0
   14.6256   42.6186   66.7404 H   0  0  0  0  0  0
   16.8158   43.9030   65.0043 H   0  0  0  0  0  0
   17.0595   43.0818   66.5103 H   0  0  0  0  0  0
   16.1369   42.6162   63.0188 H   0  0  0  0  0  0
   16.0942   40.8904   63.1400 H   0  0  0  0  0  0
    9.3900   39.5993   71.0957 H   0  0  0  0  0  0
    7.3210   36.1635   69.6083 H   0  0  0  0  0  0
   10.3788   38.2146   72.8996 H   0  0  0  0  0  0
    8.2576   34.8008   71.4414 H   0  0  0  0  0  0
    9.7725   35.8345   73.0918 H   0  0  0  0  0  0
  1 12  1  0  0  0
  1 14  1  0  0  0
  1 15  1  0  0  0
  2 16  1  0  0  0
  2 17  1  0  0  0
  2 23  1  0  0  0
  3  6  2  0  0  0
  3  4  1  0  0  0
  3  7  1  0  0  0
  4 10  1  0  0  0
  4 24  1  0  0  0
  4 25  1  0  0  0
  5 11  1  0  0  0
  5  8  1  0  0  0
  5  9  2  0  0  0
  6  9  1  0  0  0
  6 26  1  0  0  0
  7  8  2  0  0  0
  7 27  1  0  0  0
  8 28  1  0  0  0
  9 29  1  0  0  0
 10 18  1  0  0  0
 10 19  2  0  0  0
 11 13  1  0  0  0
 12 13  1  0  0  0
 12 30  1  0  0  0
 12 31  1  0  0  0
 13 32  1  0  0  0
 13 33  1  0  0  0
 14 17  1  0  0  0
 14 34  1  0  0  0
 14 35  1  0  0  0
 15 16  1  0  0  0
 15 36  1  0  0  0
 15 37  1  0  0  0
 16 38  1  0  0  0
 16 39  1  0  0  0
 17 40  1  0  0  0
 17 41  1  0  0  0
 18 20  2  0  0  0
 18 42  1  0  0  0
 19 21  1  0  0  0
 19 43  1  0  0  0
 20 22  1  0  0  0
 20 44  1  0  0  0
 21 22  2  0  0  0
 21 45  1  0  0  0
 22 46  1  0  0  0
M  END
> <s_m_entry_id>
6824

> <s_m_entry_name>
dock_pv.254

> <s_m_Source_Path>
/home/csk/Desktop/cluster/DUD-E-result/lkha4

> <s_m_Source_File>
dock_pv.maegz

> <i_m_Source_File_Index>
254

> <chembl_id>
CHEMBL163266

> <chembl_pref_name>
None

> <i_lp_mmshare_version>
53161

> <i_f3d_flags>
0

> <r_lp_tautomer_probability>
1

> <s_lp_Force_Field>
OPLS_2005

> <r_lp_Energy>
39.19025

> <b_lp_Chiralities_Consistent>
1

> <s_lp_Variant>
CHEMBL4618_lig57-1

> <s_i_glide_gridfile>
glide-grid_3chp

> <i_i_glide_lignum>
74

> <i_i_glide_rotatable_bonds>
6

> <r_i_docking_score>
-9.12808323712762

> <r_i_glide_ligand_efficiency>
-0.414912874414892

> <r_i_glide_ligand_efficiency_sa>
-1.16260219170792

> <r_i_glide_ligand_efficiency_ln>
-2.23123649807995

> <r_i_glide_gscore>
-9.12808323712762

> <r_i_glide_lipo>
-4.72633670160434

> <r_i_glide_hbond>
-0.160046818441619

> <r_i_glide_metal>
0

> <r_i_glide_rewards>
-2.16844603870224

> <r_i_glide_evdw>
-43.1603355407715

> <r_i_glide_ecoul>
-6.38541078567505

> <r_i_glide_erotb>
1.04257471651042

> <r_i_glide_esite>
0

> <r_i_glide_emodel>
-71.1145347205081

> <r_i_glide_energy>
-49.5457463264465

> <r_i_glide_einternal>
5.67831754684448

> <i_i_glide_confnum>
56

> <i_i_glide_posenum>
16

> <r_i_glide_eff_state_penalty>
0

> <s_user_duplicate_titles>
CHEMBL4618_lig57,271028

> <s_m_subgroup_title>
dock_pv

> <s_m_subgroupid>
dock_pv

> <b_m_subgroup_collapsed>
1

$$$$
CHEMBL4618_lig348
                    3D
 Schrodinger Suite 2021-1.
 48 50  0  0  1  0            999 V2000
   10.5210   35.7209   74.1546 C   0  0  0  0  0  0
   10.8691   34.4799   73.6218 C   0  0  0  0  0  0
   10.2091   33.9665   72.5111 C   0  0  0  0  0  0
    9.1769   34.6964   71.9400 C   0  0  0  0  0  0
    8.8247   35.9377   72.4594 C   0  0  0  0  0  0
    9.5019   36.4575   73.5585 C   0  0  0  0  0  0
    7.7585   36.6160   71.9355 O   0  0  0  0  0  0
    7.9940   37.3853   70.8328 C   0  0  0  0  0  0
    7.8867   36.8780   69.5400 C   0  0  0  0  0  0
    8.1319   37.7103   68.4464 C   0  0  0  0  0  0
    8.5156   39.0336   68.6411 C   0  0  0  0  0  0
    8.5210   39.5422   69.9400 C   0  0  0  0  0  0
    8.3110   38.7128   71.0297 C   0  0  0  0  0  0
    8.8896   39.7811   67.5422 O   0  0  0  0  0  0
    9.9513   40.7260   67.7339 C   0  0  0  0  0  0
   10.1234   41.6254   66.5147 C   0  0  1  0  0  0
    8.9326   42.5725   66.4411 C   0  0  0  0  0  0
    9.4582   43.7529   65.6613 C   0  0  0  0  0  0
   10.9318   43.4440   65.4128 C   0  0  0  0  0  0
   11.3239   42.4671   66.4235 N   0  0  2  0  0  0
   12.1210   33.5512   74.3400 Cl  0  0  0  0  0  0
   12.5157   41.7075   66.0209 C   0  0  0  0  0  0
   13.8145   42.5451   65.8597 C   0  0  0  0  0  0
   14.6947   42.0051   64.7274 C   0  0  0  0  0  0
   14.0771   42.2160   63.5400 O   0  0  0  0  0  0
   15.7718   41.4160   64.8769 O   0  0  0  0  0  0
   11.0320   36.1059   75.0250 H   0  0  0  0  0  0
   10.4692   32.9920   72.1233 H   0  0  0  0  0  0
    8.5989   34.2745   71.1400 H   0  0  0  0  0  0
    9.2112   37.4160   73.9552 H   0  0  0  0  0  0
    7.6568   35.8345   69.3942 H   0  0  0  0  0  0
    8.0997   37.3254   67.4443 H   0  0  0  0  0  0
    8.6949   40.5847   70.1235 H   0  0  0  0  0  0
    8.3428   39.1144   72.0305 H   0  0  0  0  0  0
   10.8880   40.2160   67.9400 H   0  0  0  0  0  0
    9.7210   41.3940   68.5620 H   0  0  0  0  0  0
   10.0834   40.9406   65.6688 H   0  0  0  0  0  0
    8.5570   42.8807   67.4194 H   0  0  0  0  0  0
    8.1110   42.0866   65.9400 H   0  0  0  0  0  0
    9.3210   44.6160   66.2895 H   0  0  0  0  0  0
    8.9210   43.9373   64.7400 H   0  0  0  0  0  0
   11.5425   44.3378   65.5316 H   0  0  0  0  0  0
   11.1058   43.0967   64.3925 H   0  0  0  0  0  0
   12.2860   41.1530   65.1149 H   0  0  0  0  0  0
   12.7230   40.9252   66.7400 H   0  0  0  0  0  0
   14.3301   42.7162   66.7989 H   0  0  0  0  0  0
   13.5754   43.5428   65.4926 H   0  0  0  0  0  0
   14.5210   41.7958   62.7828 H   0  0  0  0  0  0
  1  2  2  0  0  0
  1  6  1  0  0  0
  1 27  1  0  0  0
  2 21  1  0  0  0
  2  3  1  0  0  0
  3  4  2  0  0  0
  3 28  1  0  0  0
  4  5  1  0  0  0
  4 29  1  0  0  0
  5  7  1  0  0  0
  5  6  2  0  0  0
  6 30  1  0  0  0
  7  8  1  0  0  0
  8 13  1  0  0  0
  8  9  2  0  0  0
  9 10  1  0  0  0
  9 31  1  0  0  0
 10 11  2  0  0  0
 10 32  1  0  0  0
 11 14  1  0  0  0
 11 12  1  0  0  0
 12 13  2  0  0  0
 12 33  1  0  0  0
 13 34  1  0  0  0
 14 15  1  0  0  0
 15 16  1  0  0  0
 15 35  1  0  0  0
 15 36  1  0  0  0
 16 17  1  0  0  0
 16 20  1  0  0  0
 16 37  1  0  0  0
 17 18  1  0  0  0
 17 38  1  0  0  0
 17 39  1  0  0  0
 18 19  1  0  0  0
 18 40  1  0  0  0
 18 41  1  0  0  0
 19 20  1  0  0  0
 19 42  1  0  0  0
 19 43  1  0  0  0
 20 22  1  0  0  0
 22 23  1  0  0  0
 22 44  1  0  0  0
 22 45  1  0  0  0
 23 24  1  0  0  0
 23 46  1  0  0  0
 23 47  1  0  0  0
 24 25  1  0  0  0
 24 26  2  0  0  0
 25 48  1  0  0  0
M  END
> <s_m_entry_id>
6825

> <s_m_entry_name>
dock_pv.255

> <s_m_Source_Path>
/home/csk/Desktop/cluster/DUD-E-result/lkha4

> <s_m_Source_File>
dock_pv.maegz

> <i_m_Source_File_Index>
255

> <chembl_id>
CHEMBL565605

> <chembl_pref_name>
None

> <i_lp_mmshare_version>
53161

> <i_f3d_flags>
0

> <r_lp_tautomer_probability>
1

> <s_lp_Force_Field>
OPLS_2005

> <r_lp_Energy>
40.47337

> <b_lp_Chiralities_Consistent>
1

> <s_lp_Variant>
CHEMBL4618_lig348-1

> <s_i_glide_gridfile>
glide-grid_3chp

> <i_i_glide_lignum>
392

> <i_i_glide_rotatable_bonds>
9

> <r_i_docking_score>
-9.11472309312026

> <r_i_glide_ligand_efficiency>
-0.350566272812318

> <r_i_glide_ligand_efficiency_sa>
-1.03855120379482

> <r_i_glide_ligand_efficiency_ln>
-2.14056281057343

> <r_i_glide_gscore>
-9.11472309312026

> <r_i_glide_lipo>
-5.25946308559029

> <r_i_glide_hbond>
-0.238662343784957

> <r_i_glide_metal>
0

> <r_i_glide_rewards>
-1.03730815072866

> <r_i_glide_evdw>
-43.573974609375

> <r_i_glide_ecoul>
-9.34903526306152

> <r_i_glide_erotb>
1.09592384828081

> <r_i_glide_esite>
-0.0941593413691869

> <r_i_glide_emodel>
-71.4101169236344

> <r_i_glide_energy>
-52.9230098724365

> <r_i_glide_einternal>
17.2799205780029

> <i_i_glide_confnum>
256

> <i_i_glide_posenum>
290

> <r_i_glide_eff_state_penalty>
0

> <s_user_duplicate_titles>
CHEMBL4618_lig348,583387

> <s_m_subgroup_title>
dock_pv

> <s_m_subgroupid>
dock_pv

> <b_m_subgroup_collapsed>
1

$$$$
CHEMBL4618_lig232
                    3D
 Schrodinger Suite 2021-1.
 66 69  0  0  1  0            999 V2000
    8.0475   36.7793   69.4124 C   0  0  0  0  0  0
    8.4482   36.9098   70.7431 C   0  0  0  0  0  0
    8.8602   38.1609   71.1991 C   0  0  0  0  0  0
    8.9166   39.2314   70.3232 C   0  0  0  0  0  0
    8.5751   39.0849   68.9709 C   0  0  0  0  0  0
    8.1210   37.8493   68.5184 C   0  0  0  0  0  0
    8.7980   40.1320   68.0517 N   0  0  0  0  0  0
    8.5642   41.4284   68.3424 C   0  0  0  0  0  0
    9.5929   42.4689   67.8787 C   0  0  0  0  0  0
    7.6989   41.7831   69.1386 O   0  0  0  0  0  0
    9.7668   42.5734   66.4316 N   0  0  2  0  0  0
   11.1893   42.7667   66.0756 C   0  0  0  0  0  0
    8.9210   43.6651   65.9660 C   0  0  0  0  0  0
   11.9848   41.4517   66.1572 C   0  0  0  0  0  0
   13.4851   41.6546   65.9400 C   0  0  0  0  0  0
   13.7794   42.3544   64.6895 N   0  0  1  0  0  0
   13.0575   43.6136   64.4793 C   0  0  0  0  0  0
   11.5447   43.4799   64.7482 C   0  0  0  0  0  0
   15.1973   42.3848   64.3001 C   0  0  0  0  0  0
   16.2234   42.9421   65.3061 C   0  0  0  0  0  0
   15.8876   43.8166   66.3413 C   0  0  0  0  0  0
   16.8681   44.3437   67.1757 C   0  0  0  0  0  0
   18.2133   44.0056   66.9978 C   0  0  0  0  0  0
   18.5565   43.1267   65.9631 C   0  0  0  0  0  0
   17.5658   42.6021   65.1396 C   0  0  0  0  0  0
   19.2624   44.6431   67.8721 C   0  0  0  0  0  0
   20.4605   43.9951   67.9030 O   0  0  0  0  0  0
   19.0465   45.6786   68.5055 O   0  0  0  0  0  0
    8.3861   35.7846   71.5404 O   0  0  0  0  0  0
    9.2805   35.5443   72.5610 C   0  0  0  0  0  0
   10.1134   34.4287   72.4651 C   0  0  0  0  0  0
   10.9210   34.0691   73.5401 C   0  0  0  0  0  0
   10.9375   34.8573   74.6879 C   0  0  0  0  0  0
   10.1209   35.9786   74.7888 C   0  0  0  0  0  0
    9.2652   36.2966   73.7395 C   0  0  0  0  0  0
    7.7210   35.8159   69.0603 H   0  0  0  0  0  0
    9.1545   38.3300   72.2186 H   0  0  0  0  0  0
    9.2502   40.1734   70.7147 H   0  0  0  0  0  0
    7.8562   37.7093   67.4814 H   0  0  0  0  0  0
    9.4167   39.9272   67.2816 H   0  0  0  0  0  0
    9.3519   43.4159   68.3565 H   0  0  0  0  0  0
   10.5210   42.1775   68.3398 H   0  0  0  0  0  0
   11.6436   43.4215   66.8230 H   0  0  0  0  0  0
    8.9211   43.7327   64.8820 H   0  0  0  0  0  0
    7.9018   43.5389   66.3401 H   0  0  0  0  0  0
    9.2795   44.6161   66.3400 H   0  0  0  0  0  0
   11.8597   41.0149   67.1399 H   0  0  0  0  0  0
   11.6060   40.6880   65.4859 H   0  0  0  0  0  0
   13.8982   42.2158   66.7746 H   0  0  0  0  0  0
   13.9687   40.6770   65.9207 H   0  0  0  0  0  0
   13.4780   44.4308   65.0614 H   0  0  0  0  0  0
   13.2048   43.9006   63.4362 H   0  0  0  0  0  0
   11.0682   43.0161   63.8916 H   0  0  0  0  0  0
   11.1719   44.4970   64.7975 H   0  0  0  0  0  0
   15.4761   41.3588   64.0616 H   0  0  0  0  0  0
   15.3015   42.9293   63.3600 H   0  0  0  0  0  0
   14.8710   44.1214   66.5203 H   0  0  0  0  0  0
   16.5640   45.0171   67.9655 H   0  0  0  0  0  0
   19.5830   42.8676   65.7433 H   0  0  0  0  0  0
   17.8664   41.9786   64.3107 H   0  0  0  0  0  0
   20.4291   43.1775   67.4042 H   0  0  0  0  0  0
   10.0878   33.8121   71.5794 H   0  0  0  0  0  0
   11.5358   33.1815   73.4869 H   0  0  0  0  0  0
   11.5694   34.5784   75.5193 H   0  0  0  0  0  0
   10.1139   36.5675   75.6951 H   0  0  0  0  0  0
    8.5727   37.1152   73.8589 H   0  0  0  0  0  0
  1  6  1  0  0  0
  1  2  2  0  0  0
  1 36  1  0  0  0
  2  3  1  0  0  0
  2 29  1  0  0  0
  3  4  2  0  0  0
  3 37  1  0  0  0
  4  5  1  0  0  0
  4 38  1  0  0  0
  5  6  2  0  0  0
  5  7  1  0  0  0
  6 39  1  0  0  0
  7  8  1  0  0  0
  7 40  1  0  0  0
  8  9  1  0  0  0
  8 10  2  0  0  0
  9 11  1  0  0  0
  9 41  1  0  0  0
  9 42  1  0  0  0
 11 12  1  0  0  0
 11 13  1  0  0  0
 12 14  1  0  0  0
 12 18  1  0  0  0
 12 43  1  0  0  0
 13 44  1  0  0  0
 13 45  1  0  0  0
 13 46  1  0  0  0
 14 15  1  0  0  0
 14 47  1  0  0  0
 14 48  1  0  0  0
 15 16  1  0  0  0
 15 49  1  0  0  0
 15 50  1  0  0  0
 16 17  1  0  0  0
 16 19  1  0  0  0
 17 18  1  0  0  0
 17 51  1  0  0  0
 17 52  1  0  0  0
 18 53  1  0  0  0
 18 54  1  0  0  0
 19 20  1  0  0  0
 19 55  1  0  0  0
 19 56  1  0  0  0
 20 21  2  0  0  0
 20 25  1  0  0  0
 21 22  1  0  0  0
 21 57  1  0  0  0
 22 23  2  0  0  0
 22 58  1  0  0  0
 23 24  1  0  0  0
 23 26  1  0  0  0
 24 25  2  0  0  0
 24 59  1  0  0  0
 25 60  1  0  0  0
 26 27  1  0  0  0
 26 28  2  0  0  0
 27 61  1  0  0  0
 29 30  1  0  0  0
 30 31  2  0  0  0
 30 35  1  0  0  0
 31 32  1  0  0  0
 31 62  1  0  0  0
 32 33  2  0  0  0
 32 63  1  0  0  0
 33 34  1  0  0  0
 33 64  1  0  0  0
 34 35  2  0  0  0
 34 65  1  0  0  0
 35 66  1  0  0  0
M  END
> <s_m_entry_id>
6826

> <s_m_entry_name>
dock_pv.256

> <s_m_Source_Path>
/home/csk/Desktop/cluster/DUD-E-result/lkha4

> <s_m_Source_File>
dock_pv.maegz

> <i_m_Source_File_Index>
256

> <chembl_id>
CHEMBL480145

> <chembl_pref_name>
None

> <i_lp_mmshare_version>
53161

> <i_f3d_flags>
0

> <r_lp_tautomer_probability>
1

> <s_lp_Force_Field>
OPLS_2005

> <r_lp_Energy>
47.410328

> <b_lp_Chiralities_Consistent>
1

> <s_lp_Variant>
CHEMBL4618_lig232-1

> <s_i_glide_gridfile>
glide-grid_3chp

> <i_i_glide_lignum>
266

> <i_i_glide_rotatable_bonds>
11

> <r_i_docking_score>
-9.10408600677707

> <r_i_glide_ligand_efficiency>
-0.260116743050773

> <r_i_glide_ligand_efficiency_sa>
-0.850859113901

> <r_i_glide_ligand_efficiency_ln>
-1.99854893279009

> <r_i_glide_gscore>
-9.10408600677707

> <r_i_glide_lipo>
-5.48902347656022

> <r_i_glide_hbond>
-0.16

> <r_i_glide_metal>
0

> <r_i_glide_rewards>
-0.203347541751936

> <r_i_glide_evdw>
-66.3503189086914

> <r_i_glide_ecoul>
-5.28380680084229

> <r_i_glide_erotb>
0.901999832538836

> <r_i_glide_esite>
-0.0436278554428422

> <r_i_glide_emodel>
-88.297435988591

> <r_i_glide_energy>
-71.6341257095337

> <r_i_glide_einternal>
30.2314491271973

> <i_i_glide_confnum>
9

> <i_i_glide_posenum>
248

> <r_i_glide_eff_state_penalty>
0

> <s_user_duplicate_titles>
CHEMBL4618_lig232,466741

> <s_m_subgroup_title>
dock_pv

> <s_m_subgroupid>
dock_pv

> <b_m_subgroup_collapsed>
1

$$$$
CHEMBL4618_lig85
                    3D
 Schrodinger Suite 2021-1.
 45 47  0  0  1  0            999 V2000
    8.5964   36.6177   71.0012 N   0  0  0  0  0  0
   10.3058   43.1277   66.4150 C   0  0  1  0  0  0
    9.5408   41.9879   67.1023 C   0  0  0  0  0  0
   11.6783   42.8360   65.7754 C   0  0  0  0  0  0
    9.6976   40.6482   66.7402 C   0  0  0  0  0  0
    8.6535   42.3029   68.1340 C   0  0  0  0  0  0
    8.2024   39.9528   68.4946 C   0  0  0  0  0  0
    7.9945   41.2909   68.8200 C   0  0  0  0  0  0
    9.0287   39.6401   67.4112 C   0  0  0  0  0  0
    9.4360   43.8152   65.5399 O   0  0  0  0  0  0
    7.5772   39.0155   69.2869 O   0  0  0  0  0  0
    7.3796   36.8007   70.2133 C   0  0  0  0  0  0
    7.6574   37.6311   68.9556 C   0  0  0  0  0  0
    8.9267   37.7171   71.8986 C   0  0  0  0  0  0
    8.5381   35.4497   71.8539 C   0  0  0  0  0  0
   12.4531   41.7582   66.2008 C   0  0  0  0  0  0
   12.1828   43.6485   64.7517 C   0  0  0  0  0  0
    9.7279   35.6023   72.7947 C   0  0  0  0  0  0
    9.8845   37.1177   72.9391 C   0  0  0  0  0  0
   13.6189   41.4173   65.5356 C   0  0  0  0  0  0
   13.3663   43.3285   64.0992 C   0  0  0  0  0  0
   14.0757   42.1961   64.4771 C   0  0  0  0  0  0
   10.5612   43.8160   67.2115 H   0  0  0  0  0  0
   10.3490   40.3544   65.9374 H   0  0  0  0  0  0
    8.4738   43.3309   68.4184 H   0  0  0  0  0  0
    7.3209   41.5510   69.6185 H   0  0  0  0  0  0
    9.2030   38.6297   67.0780 H   0  0  0  0  0  0
    8.6212   44.0103   66.0119 H   0  0  0  0  0  0
    6.9988   35.8164   69.9395 H   0  0  0  0  0  0
    6.6025   37.2797   70.8108 H   0  0  0  0  0  0
    8.6291   37.3293   68.5647 H   0  0  0  0  0  0
    6.9182   37.4174   68.1827 H   0  0  0  0  0  0
    8.0390   38.1496   72.3631 H   0  0  0  0  0  0
    9.3805   38.5278   71.3275 H   0  0  0  0  0  0
    8.5996   34.5536   71.2369 H   0  0  0  0  0  0
    7.5751   35.3961   72.3471 H   0  0  0  0  0  0
   12.1377   41.1393   67.0232 H   0  0  0  0  0  0
   11.6693   44.5433   64.4591 H   0  0  0  0  0  0
   10.6135   35.1342   72.3658 H   0  0  0  0  0  0
    9.5411   35.1122   73.7511 H   0  0  0  0  0  0
    9.5887   37.4161   73.9408 H   0  0  0  0  0  0
   10.9172   37.4358   72.7803 H   0  0  0  0  0  0
   14.1292   40.5269   65.8482 H   0  0  0  0  0  0
   13.7209   43.9415   63.2843 H   0  0  0  0  0  0
   14.9732   41.9267   63.9395 H   0  0  0  0  0  0
  1 12  1  0  0  0
  1 14  1  0  0  0
  1 15  1  0  0  0
  2  3  1  0  0  0
  2  4  1  0  0  0
  2 10  1  0  0  0
  2 23  1  0  0  0
  3  5  1  0  0  0
  3  6  2  0  0  0
  4 16  1  0  0  0
  4 17  2  0  0  0
  5  9  2  0  0  0
  5 24  1  0  0  0
  6  8  1  0  0  0
  6 25  1  0  0  0
  7 11  1  0  0  0
  7  8  2  0  0  0
  7  9  1  0  0  0
  8 26  1  0  0  0
  9 27  1  0  0  0
 10 28  1  0  0  0
 11 13  1  0  0  0
 12 13  1  0  0  0
 12 29  1  0  0  0
 12 30  1  0  0  0
 13 31  1  0  0  0
 13 32  1  0  0  0
 14 19  1  0  0  0
 14 33  1  0  0  0
 14 34  1  0  0  0
 15 18  1  0  0  0
 15 35  1  0  0  0
 15 36  1  0  0  0
 16 20  2  0  0  0
 16 37  1  0  0  0
 17 21  1  0  0  0
 17 38  1  0  0  0
 18 19  1  0  0  0
 18 39  1  0  0  0
 18 40  1  0  0  0
 19 41  1  0  0  0
 19 42  1  0  0  0
 20 22  1  0  0  0
 20 43  1  0  0  0
 21 22  2  0  0  0
 21 44  1  0  0  0
 22 45  1  0  0  0
M  END
> <s_m_entry_id>
6827

> <s_m_entry_name>
dock_pv.257

> <s_m_Source_Path>
/home/csk/Desktop/cluster/DUD-E-result/lkha4

> <s_m_Source_File>
dock_pv.maegz

> <i_m_Source_File_Index>
257

> <chembl_id>
CHEMBL162844

> <chembl_pref_name>
None

> <i_lp_mmshare_version>
53161

> <i_f3d_flags>
0

> <r_lp_tautomer_probability>
1

> <s_lp_Force_Field>
OPLS_2005

> <r_lp_Energy>
37.701852

> <b_lp_Chiralities_Consistent>
1

> <s_lp_Variant>
CHEMBL4618_lig85-2

> <s_i_glide_gridfile>
glide-grid_3chp

> <i_i_glide_lignum>
107

> <i_i_glide_rotatable_bonds>
7

> <r_i_docking_score>
-9.10095358238159

> <r_i_glide_ligand_efficiency>
-0.413679708290072

> <r_i_glide_ligand_efficiency_sa>
-1.15914681172851

> <r_i_glide_ligand_efficiency_ln>
-2.22460502088182

> <r_i_glide_gscore>
-9.10095358238159

> <r_i_glide_lipo>
-5.23827527137726

> <r_i_glide_hbond>
-0.137649928111932

> <r_i_glide_metal>
0

> <r_i_glide_rewards>
-2.04851895958701

> <r_i_glide_evdw>
-39.4525833129883

> <r_i_glide_ecoul>
-4.93618440628052

> <r_i_glide_erotb>
1.03654740328611

> <r_i_glide_esite>
0

> <r_i_glide_emodel>
-68.9916310606671

> <r_i_glide_energy>
-44.3887677192688

> <r_i_glide_einternal>
7.87623119354248

> <i_i_glide_confnum>
100

> <i_i_glide_posenum>
253

> <r_i_glide_eff_state_penalty>
0

> <s_user_duplicate_titles>
CHEMBL4618_lig85

> <s_m_subgroup_title>
dock_pv

> <s_m_subgroupid>
dock_pv

> <b_m_subgroup_collapsed>
1

$$$$
CHEMBL4618_lig118
                    3D
 Schrodinger Suite 2021-1.
 40 42  0  0  1  0            999 V2000
   12.0021   43.8161   64.6903 N   0  0  0  0  0  0
   11.6082   42.9588   65.6097 C   0  0  0  0  0  0
   14.0729   42.3596   65.1318 S   0  0  0  0  0  0
   13.2435   43.6387   64.3328 C   0  0  0  0  0  0
    8.7852   36.6262   71.1401 N   0  0  0  0  0  0
   12.6089   42.0732   66.0207 C   0  0  0  0  0  0
   10.1405   43.0829   66.0248 C   0  0  0  0  0  0
    9.5800   42.0112   66.9536 C   0  0  0  0  0  0
    8.4404   40.0113   68.5589 C   0  0  0  0  0  0
    9.8865   40.6705   66.7397 C   0  0  0  0  0  0
    8.6774   42.3507   67.9642 C   0  0  0  0  0  0
    8.1212   41.3536   68.7641 C   0  0  0  0  0  0
    9.3137   39.6821   67.5172 C   0  0  0  0  0  0
    7.8654   39.0822   69.4053 O   0  0  0  0  0  0
    7.6238   36.8014   70.2661 C   0  0  0  0  0  0
    7.9413   37.6963   69.0645 C   0  0  0  0  0  0
    8.7101   35.4143   71.9323 C   0  0  0  0  0  0
    8.9737   37.6860   72.1190 C   0  0  0  0  0  0
    9.8980   37.0847   73.1851 C   0  0  0  0  0  0
    9.7923   35.5698   72.9945 C   0  0  0  0  0  0
   13.7207   44.2163   63.5578 H   0  0  0  0  0  0
   12.5546   41.2746   66.7405 H   0  0  0  0  0  0
    9.5055   43.0535   65.1413 H   0  0  0  0  0  0
    9.9496   44.0641   66.4517 H   0  0  0  0  0  0
   10.5467   40.3728   65.9401 H   0  0  0  0  0  0
    8.3909   43.3821   68.1257 H   0  0  0  0  0  0
    7.4213   41.6229   69.5402 H   0  0  0  0  0  0
    9.5803   38.6675   67.2754 H   0  0  0  0  0  0
    7.3207   35.8289   69.8822 H   0  0  0  0  0  0
    6.7734   37.2019   70.8185 H   0  0  0  0  0  0
    8.9209   37.3926   68.7040 H   0  0  0  0  0  0
    7.2310   37.5019   68.2606 H   0  0  0  0  0  0
    8.8758   34.5500   71.2873 H   0  0  0  0  0  0
    7.7138   35.2826   72.3399 H   0  0  0  0  0  0
    8.0308   38.0323   72.5459 H   0  0  0  0  0  0
    9.4041   38.5570   71.6226 H   0  0  0  0  0  0
    9.5603   37.3578   74.1813 H   0  0  0  0  0  0
   10.9209   37.4385   73.0743 H   0  0  0  0  0  0
   10.7301   35.1306   72.6526 H   0  0  0  0  0  0
    9.5158   35.0598   73.9198 H   0  0  0  0  0  0
  1  2  1  0  0  0
  1  4  2  0  0  0
  2  6  2  0  0  0
  2  7  1  0  0  0
  3  4  1  0  0  0
  3  6  1  0  0  0
  4 21  1  0  0  0
  5 15  1  0  0  0
  5 17  1  0  0  0
  5 18  1  0  0  0
  6 22  1  0  0  0
  7  8  1  0  0  0
  7 23  1  0  0  0
  7 24  1  0  0  0
  8 10  1  0  0  0
  8 11  2  0  0  0
  9 12  2  0  0  0
  9 14  1  0  0  0
  9 13  1  0  0  0
 10 13  2  0  0  0
 10 25  1  0  0  0
 11 12  1  0  0  0
 11 26  1  0  0  0
 12 27  1  0  0  0
 13 28  1  0  0  0
 14 16  1  0  0  0
 15 16  1  0  0  0
 15 29  1  0  0  0
 15 30  1  0  0  0
 16 31  1  0  0  0
 16 32  1  0  0  0
 17 20  1  0  0  0
 17 33  1  0  0  0
 17 34  1  0  0  0
 18 19  1  0  0  0
 18 35  1  0  0  0
 18 36  1  0  0  0
 19 20  1  0  0  0
 19 37  1  0  0  0
 19 38  1  0  0  0
 20 39  1  0  0  0
 20 40  1  0  0  0
M  END
> <s_m_entry_id>
6828

> <s_m_entry_name>
dock_pv.258

> <s_m_Source_Path>
/home/csk/Desktop/cluster/DUD-E-result/lkha4

> <s_m_Source_File>
dock_pv.maegz

> <i_m_Source_File_Index>
258

> <chembl_id>
CHEMBL165407

> <chembl_pref_name>
None

> <i_lp_mmshare_version>
53161

> <i_f3d_flags>
0

> <r_lp_tautomer_probability>
1

> <s_lp_Force_Field>
OPLS_2005

> <r_lp_Energy>
31.793647

> <b_lp_Chiralities_Consistent>
1

> <s_lp_Variant>
CHEMBL4618_lig118-1

> <s_i_glide_gridfile>
glide-grid_3chp

> <i_i_glide_lignum>
144

> <i_i_glide_rotatable_bonds>
6

> <r_i_docking_score>
-9.10002099545534

> <r_i_glide_ligand_efficiency>
-0.455001049772767

> <r_i_glide_ligand_efficiency_sa>
-1.23506286383907

> <r_i_glide_ligand_efficiency_ln>
-2.27743511638265

> <r_i_glide_gscore>
-9.10002099545534

> <r_i_glide_lipo>
-5.0774660063043

> <r_i_glide_hbond>
-0.0036157261732965

> <r_i_glide_metal>
0

> <r_i_glide_rewards>
-2.49207056722361

> <r_i_glide_evdw>
-43.7336616516113

> <r_i_glide_ecoul>
-2.89156866073608

> <r_i_glide_erotb>
1.09354968593685

> <r_i_glide_esite>
0

> <r_i_glide_emodel>
-67.3493035383739

> <r_i_glide_energy>
-46.6252303123474

> <r_i_glide_einternal>
8.25252628326416

> <i_i_glide_confnum>
38

> <i_i_glide_posenum>
214

> <r_i_glide_eff_state_penalty>
0

> <s_user_duplicate_titles>
CHEMBL4618_lig118,271053

> <s_m_subgroup_title>
dock_pv

> <s_m_subgroupid>
dock_pv

> <b_m_subgroup_collapsed>
1

$$$$
CHEMBL4618_lig398
                    3D
 Schrodinger Suite 2021-1.
 53 57  0  0  1  0            999 V2000
    9.7091   35.4154   73.0920 C   0  0  0  0  0  0
    8.9225   35.3477   71.9396 C   0  0  0  0  0  0
   10.0270   37.8114   72.8165 N   0  0  0  0  0  0
   10.2048   36.6509   73.5067 C   0  0  0  0  0  0
    9.2462   37.7625   71.7356 C   0  0  0  0  0  0
    8.6733   36.5521   71.2668 C   0  0  0  0  0  0
    7.7210   36.8986   69.8400 S   0  0  0  0  0  0
    8.1187   38.5711   70.0445 C   0  0  0  0  0  0
    8.9215   38.8767   71.0227 N   0  0  0  0  0  0
    7.4344   39.4431   69.2416 O   0  0  0  0  0  0
    8.1222   40.3290   68.4570 C   0  0  0  0  0  0
    7.7341   41.6682   68.4596 C   0  0  0  0  0  0
    8.3598   42.5750   67.6097 C   0  0  0  0  0  0
    9.3751   42.1433   66.7540 C   0  0  0  0  0  0
    9.7429   40.7911   66.7419 C   0  0  0  0  0  0
    9.1204   39.8867   67.5897 C   0  0  0  0  0  0
   10.0539   43.1628   65.8347 C   0  0  0  0  0  0
   11.4221   42.7955   65.4447 N   0  0  1  0  0  0
   11.9536   43.5996   64.3434 C   0  0  0  0  0  0
   13.4361   43.3202   63.9753 C   0  0  0  0  0  0
   14.3386   43.4066   65.2207 C   0  0  0  0  0  0
   13.7194   42.5012   66.2619 C   0  0  0  0  0  0
   12.2843   42.8399   66.6099 C   0  0  0  0  0  0
   15.8113   43.2998   65.1436 N   0  0  0  0  0  0
   16.4938   42.1912   64.7783 C   0  0  0  0  0  0
   17.9490   42.4499   65.1577 C   0  0  0  0  0  0
   18.0707   43.8840   65.5743 C   0  0  0  0  0  0
   16.6484   44.2831   65.8451 C   0  0  0  0  0  0
   16.0769   41.0988   64.3803 O   0  0  0  0  0  0
    9.9143   34.5235   73.6662 H   0  0  0  0  0  0
    8.5060   34.4121   71.5933 H   0  0  0  0  0  0
   10.8035   36.7253   74.4025 H   0  0  0  0  0  0
    6.9374   42.0018   69.1102 H   0  0  0  0  0  0
    8.0450   43.6108   67.6162 H   0  0  0  0  0  0
   10.5116   40.4347   66.0700 H   0  0  0  0  0  0
    9.3963   38.8424   67.5590 H   0  0  0  0  0  0
   10.0592   44.1371   66.3250 H   0  0  0  0  0  0
    9.4264   43.2904   64.9573 H   0  0  0  0  0  0
   11.8525   44.6450   64.6259 H   0  0  0  0  0  0
   11.3047   43.4278   63.4887 H   0  0  0  0  0  0
   13.7206   44.0627   63.2335 H   0  0  0  0  0  0
   13.5309   42.3546   63.4742 H   0  0  0  0  0  0
   14.1939   44.4167   65.6042 H   0  0  0  0  0  0
   13.7887   41.4486   65.9808 H   0  0  0  0  0  0
   14.3158   42.6240   67.1402 H   0  0  0  0  0  0
   12.2374   43.8165   67.0756 H   0  0  0  0  0  0
   11.9113   42.1471   67.3599 H   0  0  0  0  0  0
   18.2183   41.8149   65.9931 H   0  0  0  0  0  0
   18.6234   42.2150   64.3407 H   0  0  0  0  0  0
   18.7303   44.0425   66.4278 H   0  0  0  0  0  0
   18.4673   44.4631   64.7376 H   0  0  0  0  0  0
   16.5211   45.2916   65.4619 H   0  0  0  0  0  0
   16.4255   44.2867   66.9131 H   0  0  0  0  0  0
  1  2  2  0  0  0
  1  4  1  0  0  0
  1 30  1  0  0  0
  2  6  1  0  0  0
  2 31  1  0  0  0
  3  5  1  0  0  0
  3  4  2  0  0  0
  4 32  1  0  0  0
  5  6  2  0  0  0
  5  9  1  0  0  0
  6  7  1  0  0  0
  7  8  1  0  0  0
  8  9  2  0  0  0
  8 10  1  0  0  0
 10 11  1  0  0  0
 11 12  2  0  0  0
 11 16  1  0  0  0
 12 13  1  0  0  0
 12 33  1  0  0  0
 13 14  2  0  0  0
 13 34  1  0  0  0
 14 15  1  0  0  0
 14 17  1  0  0  0
 15 16  2  0  0  0
 15 35  1  0  0  0
 16 36  1  0  0  0
 17 18  1  0  0  0
 17 37  1  0  0  0
 17 38  1  0  0  0
 18 19  1  0  0  0
 18 23  1  0  0  0
 19 20  1  0  0  0
 19 39  1  0  0  0
 19 40  1  0  0  0
 20 21  1  0  0  0
 20 41  1  0  0  0
 20 42  1  0  0  0
 21 22  1  0  0  0
 21 24  1  0  0  0
 21 43  1  0  0  0
 22 23  1  0  0  0
 22 44  1  0  0  0
 22 45  1  0  0  0
 23 46  1  0  0  0
 23 47  1  0  0  0
 24 25  1  0  0  0
 24 28  1  0  0  0
 25 26  1  0  0  0
 25 29  2  0  0  0
 26 27  1  0  0  0
 26 48  1  0  0  0
 26 49  1  0  0  0
 27 28  1  0  0  0
 27 50  1  0  0  0
 27 51  1  0  0  0
 28 52  1  0  0  0
 28 53  1  0  0  0
M  END
> <s_m_entry_id>
6829

> <s_m_entry_name>
dock_pv.259

> <s_m_Source_Path>
/home/csk/Desktop/cluster/DUD-E-result/lkha4

> <s_m_Source_File>
dock_pv.maegz

> <i_m_Source_File_Index>
259

> <chembl_id>
CHEMBL2207748

> <chembl_pref_name>
None

> <i_lp_mmshare_version>
53161

> <i_f3d_flags>
0

> <r_lp_tautomer_probability>
1

> <s_lp_Force_Field>
OPLS_2005

> <r_lp_Energy>
44.313878

> <b_lp_Chiralities_Consistent>
1

> <s_lp_Variant>
CHEMBL4618_lig398-1

> <s_i_glide_gridfile>
glide-grid_3chp

> <i_i_glide_lignum>
461

> <i_i_glide_rotatable_bonds>
5

> <r_i_docking_score>
-9.09836970851624

> <r_i_glide_ligand_efficiency>
-0.31373688650056

> <r_i_glide_ligand_efficiency_sa>
-0.963899114152051

> <r_i_glide_ligand_efficiency_ln>
-2.08329594850102

> <r_i_glide_gscore>
-9.09836970851624

> <r_i_glide_lipo>
-4.69722618943413

> <r_i_glide_hbond>
0

> <r_i_glide_metal>
0

> <r_i_glide_rewards>
-1.52374390909091

> <r_i_glide_evdw>
-43.8577690124512

> <r_i_glide_ecoul>
-7.161301612854

> <r_i_glide_erotb>
0.589684082559454

> <r_i_glide_esite>
-0.2

> <r_i_glide_emodel>
-74.1092327719431

> <r_i_glide_energy>
-51.0190706253052

> <r_i_glide_einternal>
4.16478729248047

> <i_i_glide_confnum>
6

> <i_i_glide_posenum>
346

> <r_i_glide_eff_state_penalty>
0

> <s_user_duplicate_titles>
CHEMBL4618_lig398

> <s_m_subgroup_title>
dock_pv

> <s_m_subgroupid>
dock_pv

> <b_m_subgroup_collapsed>
1

$$$$
CHEMBL4618_lig193
                    3D
 Schrodinger Suite 2021-1.
 46 47  0  0  1  0            999 V2000
    8.0694   39.4664   68.4650 C   0  0  0  0  0  0
    8.9210   39.1092   67.4252 C   0  0  0  0  0  0
    9.6546   40.0888   66.7625 C   0  0  0  0  0  0
    9.5224   41.4374   67.1243 C   0  0  0  0  0  0
    8.5985   41.8005   68.1033 C   0  0  0  0  0  0
    7.8792   40.8140   68.7691 C   0  0  0  0  0  0
   10.2654   42.4735   66.5323 N   0  0  0  0  0  0
   11.5002   42.3885   65.9932 C   0  0  0  0  0  0
   12.1554   41.3510   65.9400 O   0  0  0  0  0  0
   12.0819   43.7123   65.4767 C   0  0  0  0  0  0
   13.4862   43.7302   64.8055 C   0  0  0  0  0  0
   14.6375   42.9364   65.5132 C   0  0  1  0  0  0
   15.2166   41.7816   64.6486 C   0  0  0  0  0  0
   15.7519   43.8025   65.9400 N   0  0  0  0  0  0
   14.2355   41.1651   63.9400 O   0  0  0  0  0  0
   16.3989   41.4160   64.6567 O   0  0  0  0  0  0
    7.3210   38.5255   69.1334 O   0  0  0  0  0  0
    7.9935   37.4259   69.7552 C   0  0  0  0  0  0
    8.5375   37.7835   71.1548 C   0  0  0  0  0  0
    9.1394   36.6920   71.9878 C   0  0  0  0  0  0
    8.5210   38.9553   71.5242 O   0  0  0  0  0  0
    9.8195   37.0160   73.1696 C   0  0  0  0  0  0
   10.4284   36.0284   73.9400 C   0  0  0  0  0  0
   10.3986   34.7068   73.5078 C   0  0  0  0  0  0
    9.7216   34.3668   72.3400 C   0  0  0  0  0  0
    9.0565   35.3483   71.6098 C   0  0  0  0  0  0
    9.0260   38.0753   67.1338 H   0  0  0  0  0  0
   10.3181   39.7794   65.9687 H   0  0  0  0  0  0
    8.4465   42.8369   68.3716 H   0  0  0  0  0  0
    7.1813   41.0976   69.5400 H   0  0  0  0  0  0
    9.8734   43.3973   66.6383 H   0  0  0  0  0  0
   11.3609   44.1789   64.8063 H   0  0  0  0  0  0
   12.1210   44.3623   66.3400 H   0  0  0  0  0  0
   13.3687   43.4439   63.7584 H   0  0  0  0  0  0
   13.7755   44.7756   64.7106 H   0  0  0  0  0  0
   14.2352   42.4762   66.4120 H   0  0  0  0  0  0
   16.1190   44.2547   65.1086 H   0  0  0  0  0  0
   15.4064   44.5400   66.5359 H   0  0  0  0  0  0
   14.5210   40.8642   63.0564 H   0  0  0  0  0  0
    8.8035   37.0466   69.1330 H   0  0  0  0  0  0
    7.2683   36.6189   69.8533 H   0  0  0  0  0  0
    9.8934   38.0395   73.5038 H   0  0  0  0  0  0
   10.9389   36.2912   74.8550 H   0  0  0  0  0  0
   10.8917   33.9388   74.0871 H   0  0  0  0  0  0
    9.6958   33.3375   72.0130 H   0  0  0  0  0  0
    8.5210   35.0369   70.7282 H   0  0  0  0  0  0
  1  2  2  0  0  0
  1 17  1  0  0  0
  1  6  1  0  0  0
  2  3  1  0  0  0
  2 27  1  0  0  0
  3  4  2  0  0  0
  3 28  1  0  0  0
  4  7  1  0  0  0
  4  5  1  0  0  0
  5  6  2  0  0  0
  5 29  1  0  0  0
  6 30  1  0  0  0
  7  8  1  0  0  0
  7 31  1  0  0  0
  8  9  2  0  0  0
  8 10  1  0  0  0
 10 11  1  0  0  0
 10 32  1  0  0  0
 10 33  1  0  0  0
 11 12  1  0  0  0
 11 34  1  0  0  0
 11 35  1  0  0  0
 12 13  1  0  0  0
 12 14  1  0  0  0
 12 36  1  0  0  0
 13 15  1  0  0  0
 13 16  2  0  0  0
 14 37  1  0  0  0
 14 38  1  0  0  0
 15 39  1  0  0  0
 17 18  1  0  0  0
 18 19  1  0  0  0
 18 40  1  0  0  0
 18 41  1  0  0  0
 19 20  1  0  0  0
 19 21  2  0  0  0
 20 22  2  0  0  0
 20 26  1  0  0  0
 22 23  1  0  0  0
 22 42  1  0  0  0
 23 24  2  0  0  0
 23 43  1  0  0  0
 24 25  1  0  0  0
 24 44  1  0  0  0
 25 26  2  0  0  0
 25 45  1  0  0  0
 26 46  1  0  0  0
M  END
> <s_m_entry_id>
6830

> <s_m_entry_name>
dock_pv.260

> <s_m_Source_Path>
/home/csk/Desktop/cluster/DUD-E-result/lkha4

> <s_m_Source_File>
dock_pv.maegz

> <i_m_Source_File_Index>
260

> <chembl_id>
CHEMBL518118

> <chembl_pref_name>
None

> <i_lp_mmshare_version>
53161

> <i_f3d_flags>
0

> <r_lp_tautomer_probability>
0.99990000499975

> <s_lp_Force_Field>
OPLS_2005

> <r_lp_Energy>
27.442111

> <b_lp_Chiralities_Consistent>
1

> <s_lp_Variant>
CHEMBL4618_lig193-1

> <s_i_glide_gridfile>
glide-grid_3chp

> <i_i_glide_lignum>
221

> <i_i_glide_rotatable_bonds>
11

> <r_i_docking_score>
-9.09615494459501

> <r_i_glide_ligand_efficiency>
-0.349852113253654

> <r_i_glide_ligand_efficiency_sa>
-1.03643550891236

> <r_i_glide_ligand_efficiency_ln>
-2.13620214181934

> <r_i_glide_gscore>
-9.09615494459501

> <r_i_glide_lipo>
-4.74349499221296

> <r_i_glide_hbond>
-0.278764131308333

> <r_i_glide_metal>
0

> <r_i_glide_rewards>
-0.528356021842287

> <r_i_glide_evdw>
-51.7813529968262

> <r_i_glide_ecoul>
-14.7482585906982

> <r_i_glide_erotb>
1.3557666392146

> <r_i_glide_esite>
-0.1

> <r_i_glide_emodel>
-99.7125045370018

> <r_i_glide_energy>
-66.5296115875244

> <r_i_glide_einternal>
11.4123373031616

> <i_i_glide_confnum>
22

> <i_i_glide_posenum>
345

> <r_i_glide_eff_state_penalty>
0

> <s_user_duplicate_titles>
CHEMBL4618_lig193,507016

> <s_m_subgroup_title>
dock_pv

> <s_m_subgroupid>
dock_pv

> <b_m_subgroup_collapsed>
1

$$$$
CHEMBL4618_lig190
                    3D
 Schrodinger Suite 2021-1.
 56 57  0  0  1  0            999 V2000
    7.7572   38.9786   69.5824 C   0  0  0  0  0  0
    7.9620   37.9490   68.6741 C   0  0  0  0  0  0
    8.5210   38.2223   67.4320 C   0  0  0  0  0  0
    8.8867   39.5215   67.0919 C   0  0  0  0  0  0
    8.6780   40.5631   67.9997 C   0  0  0  0  0  0
    8.1209   40.2781   69.2409 C   0  0  0  0  0  0
    9.0418   42.0151   67.7032 C   0  0  0  0  0  0
    9.3203   42.2470   66.3277 O   0  0  0  0  0  0
   10.6405   42.3578   65.9624 C   0  0  0  0  0  0
   10.9901   43.4164   65.1403 C   0  0  0  0  0  0
   12.3014   43.5677   64.7041 C   0  0  0  0  0  0
   13.2679   42.6282   65.0569 C   0  0  0  0  0  0
   12.9210   41.5533   65.8869 C   0  0  0  0  0  0
   11.6116   41.4314   66.3405 C   0  0  0  0  0  0
   14.5442   42.8520   64.5262 N   0  0  0  0  0  0
   15.6530   42.0949   64.5931 C   0  0  0  0  0  0
   15.7823   41.0160   65.1399 O   0  0  0  0  0  0
   16.8896   42.6389   63.9447 C   0  0  0  0  0  0
   17.6281   43.6502   64.8813 C   0  0  0  0  0  0
   18.1943   42.9936   66.1747 C   0  0  1  0  0  0
   19.6086   43.4346   66.5166 C   0  0  0  0  0  0
   17.3210   43.2312   67.3378 N   0  0  0  0  0  0
   20.3223   42.3933   67.0413 O   0  0  0  0  0  0
   20.0193   44.5878   66.3579 O   0  0  0  0  0  0
   21.7085   42.4360   67.4184 C   0  0  0  0  0  0
   22.0126   43.5566   68.4431 C   0  0  0  0  0  0
   22.5936   42.5725   66.1615 C   0  0  0  0  0  0
   21.9656   41.0681   68.0813 C   0  0  0  0  0  0
    7.3170   38.7738   70.5478 H   0  0  0  0  0  0
    7.6990   36.9346   68.9360 H   0  0  0  0  0  0
    8.7163   37.4203   66.7401 H   0  0  0  0  0  0
    9.3308   39.7021   66.1248 H   0  0  0  0  0  0
    7.9470   41.0800   69.9401 H   0  0  0  0  0  0
    9.8594   42.3381   68.3498 H   0  0  0  0  0  0
    8.1862   42.6434   67.9565 H   0  0  0  0  0  0
   10.2331   44.1300   64.8630 H   0  0  0  0  0  0
   12.5575   44.4077   64.0749 H   0  0  0  0  0  0
   13.6362   40.8030   66.1845 H   0  0  0  0  0  0
   11.3452   40.6158   66.9881 H   0  0  0  0  0  0
   14.6478   43.7001   63.9821 H   0  0  0  0  0  0
   16.5212   43.0161   62.9905 H   0  0  0  0  0  0
   17.5529   41.8166   63.6605 H   0  0  0  0  0  0
   16.9638   44.4799   65.1299 H   0  0  0  0  0  0
   18.4293   44.1462   64.3403 H   0  0  0  0  0  0
   18.2488   41.9208   65.9835 H   0  0  0  0  0  0
   17.7018   42.8298   68.1851 H   0  0  0  0  0  0
   17.1886   44.2163   67.5163 H   0  0  0  0  0  0
   23.0174   43.4510   68.8541 H   0  0  0  0  0  0
   21.3109   43.5256   69.2771 H   0  0  0  0  0  0
   21.9534   44.5489   67.9976 H   0  0  0  0  0  0
   22.5180   41.6825   65.5405 H   0  0  0  0  0  0
   22.2966   43.4157   65.5403 H   0  0  0  0  0  0
   23.6470   42.6958   66.4164 H   0  0  0  0  0  0
   21.7228   40.2450   67.4080 H   0  0  0  0  0  0
   23.0125   40.9490   68.3640 H   0  0  0  0  0  0
   21.3602   40.9345   68.9785 H   0  0  0  0  0  0
  1  6  1  0  0  0
  1  2  2  0  0  0
  1 29  1  0  0  0
  2  3  1  0  0  0
  2 30  1  0  0  0
  3  4  2  0  0  0
  3 31  1  0  0  0
  4  5  1  0  0  0
  4 32  1  0  0  0
  5  7  1  0  0  0
  5  6  2  0  0  0
  6 33  1  0  0  0
  7  8  1  0  0  0
  7 34  1  0  0  0
  7 35  1  0  0  0
  8  9  1  0  0  0
  9 14  1  0  0  0
  9 10  2  0  0  0
 10 11  1  0  0  0
 10 36  1  0  0  0
 11 12  2  0  0  0
 11 37  1  0  0  0
 12 15  1  0  0  0
 12 13  1  0  0  0
 13 14  2  0  0  0
 13 38  1  0  0  0
 14 39  1  0  0  0
 15 16  1  0  0  0
 15 40  1  0  0  0
 16 17  2  0  0  0
 16 18  1  0  0  0
 18 19  1  0  0  0
 18 41  1  0  0  0
 18 42  1  0  0  0
 19 20  1  0  0  0
 19 43  1  0  0  0
 19 44  1  0  0  0
 20 21  1  0  0  0
 20 22  1  0  0  0
 20 45  1  0  0  0
 21 23  1  0  0  0
 21 24  2  0  0  0
 22 46  1  0  0  0
 22 47  1  0  0  0
 23 25  1  0  0  0
 25 26  1  0  0  0
 25 27  1  0  0  0
 25 28  1  0  0  0
 26 48  1  0  0  0
 26 49  1  0  0  0
 26 50  1  0  0  0
 27 51  1  0  0  0
 27 52  1  0  0  0
 27 53  1  0  0  0
 28 54  1  0  0  0
 28 55  1  0  0  0
 28 56  1  0  0  0
M  END
> <s_m_entry_id>
6831

> <s_m_entry_name>
dock_pv.261

> <s_m_Source_Path>
/home/csk/Desktop/cluster/DUD-E-result/lkha4

> <s_m_Source_File>
dock_pv.maegz

> <i_m_Source_File_Index>
261

> <chembl_id>
CHEMBL478543

> <chembl_pref_name>
None

> <i_lp_mmshare_version>
53161

> <i_f3d_flags>
0

> <r_lp_tautomer_probability>
1

> <s_lp_Force_Field>
OPLS_2005

> <r_lp_Energy>
20.001183

> <b_lp_Chiralities_Consistent>
1

> <s_lp_Variant>
CHEMBL4618_lig190-1

> <s_i_glide_gridfile>
glide-grid_3chp

> <i_i_glide_lignum>
217

> <i_i_glide_rotatable_bonds>
11

> <r_i_docking_score>
-9.09404974858006

> <r_i_glide_ligand_efficiency>
-0.324787491020716

> <r_i_glide_ligand_efficiency_sa>
-0.986246112341215

> <r_i_glide_ligand_efficiency_ln>
-2.09917369487533

> <r_i_glide_gscore>
-9.09404974858006

> <r_i_glide_lipo>
-3.74183291644231

> <r_i_glide_hbond>
-0.515690364464092

> <r_i_glide_metal>
0

> <r_i_glide_rewards>
-1.44731372231357

> <r_i_glide_evdw>
-48.1434707641602

> <r_i_glide_ecoul>
-14.2363395690918

> <r_i_glide_erotb>
1.31534394748575

> <r_i_glide_esite>
-0.16193221927406

> <r_i_glide_emodel>
-90.6691414153974

> <r_i_glide_energy>
-62.379810333252

> <r_i_glide_einternal>
8.78749084472656

> <i_i_glide_confnum>
53

> <i_i_glide_posenum>
58

> <r_i_glide_eff_state_penalty>
0

> <s_user_duplicate_titles>
CHEMBL4618_lig190,507000

> <s_m_subgroup_title>
dock_pv

> <s_m_subgroupid>
dock_pv

> <b_m_subgroup_collapsed>
1

$$$$
CHEMBL4618_lig350
                    3D
 Schrodinger Suite 2021-1.
 44 46  0  0  1  0            999 V2000
   10.9210   35.2824   74.5842 C   0  0  0  0  0  0
   11.1709   34.0748   73.9400 C   0  0  0  0  0  0
   10.5210   33.7627   72.7464 C   0  0  0  0  0  0
    9.6067   34.6618   72.2015 C   0  0  0  0  0  0
    9.3469   35.8763   72.8387 C   0  0  0  0  0  0
   10.0156   36.1826   74.0288 C   0  0  0  0  0  0
    8.2012   36.7643   72.3580 C   0  0  0  0  0  0
    8.3329   37.5086   71.0225 C   0  0  0  0  0  0
    8.5210   38.8865   71.0361 C   0  0  0  0  0  0
    8.5211   39.6252   69.8585 C   0  0  0  0  0  0
    8.3897   39.0050   68.6182 C   0  0  0  0  0  0
    8.1483   37.6270   68.6045 C   0  0  0  0  0  0
    8.1176   36.8808   69.7918 C   0  0  0  0  0  0
    8.5209   39.6638   67.4016 O   0  0  0  0  0  0
    8.5380   41.1061   67.2958 C   0  0  0  0  0  0
    9.7211   41.5609   66.4136 C   0  0  2  0  0  0
   11.0565   41.3659   67.1304 C   0  0  0  0  0  0
   12.2478   41.6720   66.2163 C   0  0  0  0  0  0
   12.1171   43.1230   65.7365 C   0  0  0  0  0  0
   10.7137   43.4515   65.1812 C   0  0  0  0  0  0
    9.6073   42.9709   66.0153 N   0  0  1  0  0  0
   11.4077   35.5079   75.5226 H   0  0  0  0  0  0
   11.8579   33.3639   74.3773 H   0  0  0  0  0  0
   10.7016   32.8107   72.2680 H   0  0  0  0  0  0
    9.0439   34.3870   71.3217 H   0  0  0  0  0  0
    9.7945   37.0893   74.5635 H   0  0  0  0  0  0
    7.3210   36.1351   72.3400 H   0  0  0  0  0  0
    7.9814   37.4902   73.1400 H   0  0  0  0  0  0
    8.5787   39.4159   71.9700 H   0  0  0  0  0  0
    8.6606   40.6840   69.9400 H   0  0  0  0  0  0
    8.0201   37.1295   67.6572 H   0  0  0  0  0  0
    7.9272   35.8163   69.7505 H   0  0  0  0  0  0
    7.6110   41.4151   66.8132 H   0  0  0  0  0  0
    8.5524   41.6679   68.2243 H   0  0  0  0  0  0
    9.7210   40.9289   65.5400 H   0  0  0  0  0  0
   11.0585   42.0821   67.9401 H   0  0  0  0  0  0
   11.1058   40.3837   67.5943 H   0  0  0  0  0  0
   13.1927   41.5306   66.7400 H   0  0  0  0  0  0
   12.2573   40.9829   65.3711 H   0  0  0  0  0  0
   12.3574   43.8161   66.5425 H   0  0  0  0  0  0
   12.8633   43.3210   64.9661 H   0  0  0  0  0  0
   10.6128   44.5345   65.1400 H   0  0  0  0  0  0
   10.6070   43.0688   64.1688 H   0  0  0  0  0  0
    8.7153   43.1592   65.5722 H   0  0  0  0  0  0
  1  6  1  0  0  0
  1  2  2  0  0  0
  1 22  1  0  0  0
  2  3  1  0  0  0
  2 23  1  0  0  0
  3  4  2  0  0  0
  3 24  1  0  0  0
  4  5  1  0  0  0
  4 25  1  0  0  0
  5  6  2  0  0  0
  5  7  1  0  0  0
  6 26  1  0  0  0
  7  8  1  0  0  0
  7 27  1  0  0  0
  7 28  1  0  0  0
  8 13  1  0  0  0
  8  9  2  0  0  0
  9 10  1  0  0  0
  9 29  1  0  0  0
 10 11  2  0  0  0
 10 30  1  0  0  0
 11 12  1  0  0  0
 11 14  1  0  0  0
 12 13  2  0  0  0
 12 31  1  0  0  0
 13 32  1  0  0  0
 14 15  1  0  0  0
 15 16  1  0  0  0
 15 33  1  0  0  0
 15 34  1  0  0  0
 16 17  1  0  0  0
 16 21  1  0  0  0
 16 35  1  0  0  0
 17 18  1  0  0  0
 17 36  1  0  0  0
 17 37  1  0  0  0
 18 19  1  0  0  0
 18 38  1  0  0  0
 18 39  1  0  0  0
 19 20  1  0  0  0
 19 40  1  0  0  0
 19 41  1  0  0  0
 20 21  1  0  0  0
 20 42  1  0  0  0
 20 43  1  0  0  0
 21 44  1  0  0  0
M  END
> <s_m_entry_id>
6832

> <s_m_entry_name>
dock_pv.262

> <s_m_Source_Path>
/home/csk/Desktop/cluster/DUD-E-result/lkha4

> <s_m_Source_File>
dock_pv.maegz

> <i_m_Source_File_Index>
262

> <chembl_id>
CHEMBL1098351

> <chembl_pref_name>
None

> <i_lp_mmshare_version>
53161

> <i_f3d_flags>
0

> <r_lp_tautomer_probability>
1

> <s_lp_Force_Field>
OPLS_2005

> <r_lp_Energy>
26.261075

> <b_lp_Chiralities_Consistent>
1

> <s_lp_Variant>
CHEMBL4618_lig350-1

> <s_i_glide_gridfile>
glide-grid_3chp

> <i_i_glide_lignum>
394

> <i_i_glide_rotatable_bonds>
5

> <r_i_docking_score>
-9.09119745076928

> <r_i_glide_ligand_efficiency>
-0.432914164322347

> <r_i_glide_ligand_efficiency_sa>
-1.19437735303465

> <r_i_glide_ligand_efficiency_ln>
-2.24778019920852

> <r_i_glide_gscore>
-9.09119745076928

> <r_i_glide_lipo>
-5.3480495389989

> <r_i_glide_hbond>
-0.117365223432449

> <r_i_glide_metal>
0

> <r_i_glide_rewards>
-2.76145273718327

> <r_i_glide_evdw>
-37.6140899658203

> <r_i_glide_ecoul>
-0.833763062953949

> <r_i_glide_erotb>
1.14143900657945

> <r_i_glide_esite>
0

> <r_i_glide_emodel>
-55.1150987212113

> <r_i_glide_energy>
-38.4478530287743

> <r_i_glide_einternal>
3.41273093223572

> <i_i_glide_confnum>
17

> <i_i_glide_posenum>
210

> <r_i_glide_eff_state_penalty>
0

> <s_user_duplicate_titles>
CHEMBL4618_lig350,627351

> <s_m_subgroup_title>
dock_pv

> <s_m_subgroupid>
dock_pv

> <b_m_subgroup_collapsed>
1

$$$$
CHEMBL4618_lig96
                    3D
 Schrodinger Suite 2021-1.
 48 50  0  0  1  0            999 V2000
    8.4820   40.1078   68.9899 C   0  0  0  0  0  0
   11.9013   42.5475   65.5405 N   0  0  0  0  0  0
    8.7191   39.6455   67.7022 C   0  0  0  0  0  0
    8.2372   39.1949   70.0142 C   0  0  0  0  0  0
    8.0920   37.8370   69.7367 C   0  0  0  0  0  0
    8.5207   38.3054   67.4001 C   0  0  0  0  0  0
    7.7193   36.8470   70.8295 C   0  0  0  0  0  0
    8.1629   37.4156   68.4109 C   0  0  0  0  0  0
    8.5268   41.4515   69.2391 O   0  0  0  0  0  0
    9.1006   40.5314   66.7399 O   0  0  0  0  0  0
    8.7894   36.4039   71.8206 C   0  0  0  0  0  0
   10.6069   42.3235   66.1876 C   0  0  0  0  0  0
   10.4777   40.8924   66.7407 C   0  0  0  0  0  0
   13.0495   42.6188   66.4300 C   0  0  0  0  0  0
   11.9651   43.7830   64.7863 C   0  0  0  0  0  0
    7.4810   42.2158   68.6712 C   0  0  0  0  0  0
    9.1112   35.0479   71.9398 C   0  0  0  0  0  0
    9.3654   37.3263   72.6923 C   0  0  0  0  0  0
   14.1677   43.2701   65.6092 C   0  0  0  0  0  0
   13.4422   43.9446   64.4432 C   0  0  0  0  0  0
    9.9927   34.6159   72.9243 C   0  0  0  0  0  0
   10.2401   36.8921   73.6814 C   0  0  0  0  0  0
   10.5216   35.5368   73.8163 C   0  0  0  0  0  0
    8.1216   39.5499   71.0239 H   0  0  0  0  0  0
    8.6636   37.9602   66.3885 H   0  0  0  0  0  0
    6.9010   37.2824   71.4022 H   0  0  0  0  0  0
    7.3210   35.9577   70.3407 H   0  0  0  0  0  0
    8.0120   36.3739   68.1807 H   0  0  0  0  0  0
   10.4450   43.0525   66.9834 H   0  0  0  0  0  0
    9.8139   42.4875   65.4560 H   0  0  0  0  0  0
   11.0123   40.1827   66.1073 H   0  0  0  0  0  0
   10.9215   40.8406   67.7358 H   0  0  0  0  0  0
   13.3139   41.6076   66.7398 H   0  0  0  0  0  0
   12.8311   43.1726   67.3451 H   0  0  0  0  0  0
   11.5527   44.6147   65.3525 H   0  0  0  0  0  0
   11.3351   43.6827   63.9030 H   0  0  0  0  0  0
    7.7210   43.2643   68.8516 H   0  0  0  0  0  0
    7.3764   42.0910   67.5930 H   0  0  0  0  0  0
    6.5270   41.9711   69.1398 H   0  0  0  0  0  0
    8.6538   34.3186   71.2887 H   0  0  0  0  0  0
    9.1080   38.3709   72.6337 H   0  0  0  0  0  0
   14.8774   42.5286   65.2431 H   0  0  0  0  0  0
   14.7172   43.9960   66.2084 H   0  0  0  0  0  0
   13.7201   44.9941   64.3402 H   0  0  0  0  0  0
   13.6719   43.4611   63.4916 H   0  0  0  0  0  0
   10.2293   33.5667   73.0241 H   0  0  0  0  0  0
   10.6834   37.6015   74.3611 H   0  0  0  0  0  0
   11.1839   35.2012   74.6011 H   0  0  0  0  0  0
  1  3  1  0  0  0
  1  4  2  0  0  0
  1  9  1  0  0  0
  2 12  1  0  0  0
  2 14  1  0  0  0
  2 15  1  0  0  0
  3  6  2  0  0  0
  3 10  1  0  0  0
  4  5  1  0  0  0
  4 24  1  0  0  0
  5  7  1  0  0  0
  5  8  2  0  0  0
  6  8  1  0  0  0
  6 25  1  0  0  0
  7 11  1  0  0  0
  7 26  1  0  0  0
  7 27  1  0  0  0
  8 28  1  0  0  0
  9 16  1  0  0  0
 10 13  1  0  0  0
 11 17  2  0  0  0
 11 18  1  0  0  0
 12 13  1  0  0  0
 12 29  1  0  0  0
 12 30  1  0  0  0
 13 31  1  0  0  0
 13 32  1  0  0  0
 14 19  1  0  0  0
 14 33  1  0  0  0
 14 34  1  0  0  0
 15 20  1  0  0  0
 15 35  1  0  0  0
 15 36  1  0  0  0
 16 37  1  0  0  0
 16 38  1  0  0  0
 16 39  1  0  0  0
 17 21  1  0  0  0
 17 40  1  0  0  0
 18 22  2  0  0  0
 18 41  1  0  0  0
 19 20  1  0  0  0
 19 42  1  0  0  0
 19 43  1  0  0  0
 20 44  1  0  0  0
 20 45  1  0  0  0
 21 23  2  0  0  0
 21 46  1  0  0  0
 22 23  1  0  0  0
 22 47  1  0  0  0
 23 48  1  0  0  0
M  END
> <s_m_entry_id>
6833

> <s_m_entry_name>
dock_pv.263

> <s_m_Source_Path>
/home/csk/Desktop/cluster/DUD-E-result/lkha4

> <s_m_Source_File>
dock_pv.maegz

> <i_m_Source_File_Index>
263

> <chembl_id>
CHEMBL164211

> <chembl_pref_name>
None

> <i_lp_mmshare_version>
53161

> <i_f3d_flags>
0

> <r_lp_tautomer_probability>
1

> <s_lp_Force_Field>
OPLS_2005

> <r_lp_Energy>
38.49986

> <b_lp_Chiralities_Consistent>
1

> <s_lp_Variant>
CHEMBL4618_lig96-1

> <s_i_glide_gridfile>
glide-grid_3chp

> <i_i_glide_lignum>
119

> <i_i_glide_rotatable_bonds>
7

> <r_i_docking_score>
-9.08279167312351

> <r_i_glide_ligand_efficiency>
-0.394903985787979

> <r_i_glide_ligand_efficiency_sa>
-1.12305440422043

> <r_i_glide_ligand_efficiency_ln>
-2.19630138476274

> <r_i_glide_gscore>
-9.08279167312351

> <r_i_glide_lipo>
-5.59296569354933

> <r_i_glide_hbond>
0

> <r_i_glide_metal>
0

> <r_i_glide_rewards>
-2.15245303030303

> <r_i_glide_evdw>
-40.8988952636719

> <r_i_glide_ecoul>
-1.65693926811218

> <r_i_glide_erotb>
0.956112704129278

> <r_i_glide_esite>
0

> <r_i_glide_emodel>
-52.4049961502707

> <r_i_glide_energy>
-42.5558345317841

> <r_i_glide_einternal>
15.7617139816284

> <i_i_glide_confnum>
8

> <i_i_glide_posenum>
342

> <r_i_glide_eff_state_penalty>
0

> <s_user_duplicate_titles>
CHEMBL4618_lig96

> <s_m_subgroup_title>
dock_pv

> <s_m_subgroupid>
dock_pv

> <b_m_subgroup_collapsed>
1

$$$$
CHEMBL4618_lig58
                    3D
 Schrodinger Suite 2021-1.
 45 47  0  0  1  0            999 V2000
   12.1210   42.6969   65.1403 S   0  0  1  0  0  0
   16.1851   42.3420   65.5389 N   0  0  0  0  0  0
   13.7067   42.2194   65.9577 C   0  0  0  0  0  0
   10.8787   42.0533   66.3158 C   0  0  0  0  0  0
   12.0035   44.2162   65.1403 O   0  0  0  0  0  0
   14.8467   42.4611   64.9489 C   0  0  0  0  0  0
   10.7472   40.6819   66.4671 C   0  0  0  0  0  0
    9.9540   42.9076   66.9100 C   0  0  0  0  0  0
    8.8751   41.0124   67.9518 C   0  0  0  0  0  0
    7.8317   40.4594   68.9040 C   0  0  0  0  0  0
    9.7367   40.1579   67.2817 C   0  0  0  0  0  0
    8.9565   42.3891   67.7359 C   0  0  0  0  0  0
    8.1130   39.0899   69.5323 C   0  0  0  0  0  0
   17.2118   42.5285   64.5249 C   0  0  0  0  0  0
   16.5030   43.4422   66.4567 C   0  0  0  0  0  0
    7.7465   37.9116   68.8815 C   0  0  0  0  0  0
    8.6771   39.0117   70.8002 C   0  0  0  0  0  0
   18.0274   43.4391   66.5965 C   0  0  0  0  0  0
   18.5049   42.7569   65.3134 C   0  0  0  0  0  0
    7.9673   36.6905   69.5097 C   0  0  0  0  0  0
    8.8757   37.7938   71.4406 C   0  0  0  0  0  0
    8.5237   36.6245   70.7836 C   0  0  0  0  0  0
   13.6718   41.1696   66.2464 H   0  0  0  0  0  0
   13.8104   42.8311   66.8553 H   0  0  0  0  0  0
   14.7296   43.4302   64.4652 H   0  0  0  0  0  0
   14.7542   41.7299   64.1467 H   0  0  0  0  0  0
   11.4082   40.0094   65.9411 H   0  0  0  0  0  0
   10.0045   43.9706   66.7391 H   0  0  0  0  0  0
    7.7136   41.1921   69.7013 H   0  0  0  0  0  0
    6.9037   40.4447   68.3401 H   0  0  0  0  0  0
    9.6833   39.0856   67.4064 H   0  0  0  0  0  0
    8.2642   43.0628   68.2207 H   0  0  0  0  0  0
   16.9539   43.3637   63.8692 H   0  0  0  0  0  0
   17.2585   41.6580   63.8698 H   0  0  0  0  0  0
   16.0271   43.2765   67.4203 H   0  0  0  0  0  0
   16.1270   44.4090   66.1026 H   0  0  0  0  0  0
    7.3021   37.9418   67.8998 H   0  0  0  0  0  0
    8.9154   39.9047   71.3405 H   0  0  0  0  0  0
   18.3449   42.8875   67.4829 H   0  0  0  0  0  0
   18.4215   44.4515   66.6783 H   0  0  0  0  0  0
   19.2012   43.3740   64.7404 H   0  0  0  0  0  0
   19.0082   41.8158   65.5323 H   0  0  0  0  0  0
    7.7158   35.7858   68.9876 H   0  0  0  0  0  0
    9.2911   37.7545   72.4406 H   0  0  0  0  0  0
    8.6752   35.6655   71.2529 H   0  0  0  0  0  0
  1  3  1  0  0  0
  1  4  1  0  0  0
  1  5  2  0  0  0
  2  6  1  0  0  0
  2 14  1  0  0  0
  2 15  1  0  0  0
  3  6  1  0  0  0
  3 23  1  0  0  0
  3 24  1  0  0  0
  4  7  2  0  0  0
  4  8  1  0  0  0
  6 25  1  0  0  0
  6 26  1  0  0  0
  7 11  1  0  0  0
  7 27  1  0  0  0
  8 12  2  0  0  0
  8 28  1  0  0  0
  9 12  1  0  0  0
  9 10  1  0  0  0
  9 11  2  0  0  0
 10 13  1  0  0  0
 10 29  1  0  0  0
 10 30  1  0  0  0
 11 31  1  0  0  0
 12 32  1  0  0  0
 13 16  2  0  0  0
 13 17  1  0  0  0
 14 19  1  0  0  0
 14 33  1  0  0  0
 14 34  1  0  0  0
 15 18  1  0  0  0
 15 35  1  0  0  0
 15 36  1  0  0  0
 16 20  1  0  0  0
 16 37  1  0  0  0
 17 21  2  0  0  0
 17 38  1  0  0  0
 18 19  1  0  0  0
 18 39  1  0  0  0
 18 40  1  0  0  0
 19 41  1  0  0  0
 19 42  1  0  0  0
 20 22  2  0  0  0
 20 43  1  0  0  0
 21 22  1  0  0  0
 21 44  1  0  0  0
 22 45  1  0  0  0
M  END
> <s_m_entry_id>
6834

> <s_m_entry_name>
dock_pv.264

> <s_m_Source_Path>
/home/csk/Desktop/cluster/DUD-E-result/lkha4

> <s_m_Source_File>
dock_pv.maegz

> <i_m_Source_File_Index>
264

> <chembl_id>
CHEMBL354015

> <chembl_pref_name>
None

> <i_lp_mmshare_version>
53161

> <i_f3d_flags>
0

> <r_lp_tautomer_probability>
1

> <s_lp_Force_Field>
OPLS_2005

> <r_lp_Energy>
29.378299

> <b_lp_Chiralities_Consistent>
1

> <s_lp_Variant>
CHEMBL4618_lig58-2

> <s_i_glide_gridfile>
glide-grid_3chp

> <i_i_glide_lignum>
76

> <i_i_glide_rotatable_bonds>
6

> <r_i_docking_score>
-9.0715110205194

> <r_i_glide_ligand_efficiency>
-0.412341410023609

> <r_i_glide_ligand_efficiency_sa>
-1.15539684735359

> <r_i_glide_ligand_efficiency_ln>
-2.21740818481916

> <r_i_glide_gscore>
-9.0715110205194

> <r_i_glide_lipo>
-4.36888212786335

> <r_i_glide_hbond>
-0.32

> <r_i_glide_metal>
0

> <r_i_glide_rewards>
-2.17187713636364

> <r_i_glide_evdw>
-32.8406257629395

> <r_i_glide_ecoul>
-10.0928258895874

> <r_i_glide_erotb>
0.945203415292672

> <r_i_glide_esite>
0

> <r_i_glide_emodel>
-63.1786501078759

> <r_i_glide_energy>
-42.9334516525269

> <r_i_glide_einternal>
4.49544715881348

> <i_i_glide_confnum>
49

> <i_i_glide_posenum>
390

> <r_i_glide_eff_state_penalty>
0

> <s_user_duplicate_titles>
CHEMBL4618_lig58

> <s_m_subgroup_title>
dock_pv

> <s_m_subgroupid>
dock_pv

> <b_m_subgroup_collapsed>
1

$$$$
CHEMBL4618_lig165
                    3D
 Schrodinger Suite 2021-1.
 55 56  0  0  1  0            999 V2000
   17.6848   44.2455   66.9033 C   0  0  0  0  0  0
   17.4635   44.0913   65.3911 C   0  0  0  0  0  0
   17.8495   45.3673   67.3921 O   0  0  0  0  0  0
    8.1029   39.3667   68.8610 C   0  0  0  0  0  0
    7.3458   38.4496   69.8120 C   0  0  0  0  0  0
    9.4742   41.0132   67.0637 C   0  0  0  0  0  0
   15.2904   42.9045   65.5396 N   0  0  2  0  0  0
   17.6795   43.0808   67.5888 O   0  0  0  0  0  0
    8.1793   40.7464   69.0806 C   0  0  0  0  0  0
    8.6489   38.8274   67.7018 C   0  0  0  0  0  0
    9.3208   39.6514   66.8106 C   0  0  0  0  0  0
    8.8695   41.5701   68.1947 C   0  0  0  0  0  0
    8.1825   37.6058   70.7587 C   0  0  0  0  0  0
   10.2105   41.7327   66.1482 O   0  0  0  0  0  0
   16.5932   42.9216   64.8849 C   0  0  0  0  0  0
   14.3989   41.9330   64.9149 C   0  0  0  0  0  0
   17.8727   43.0615   69.0005 C   0  0  0  0  0  0
   10.9081   42.9016   66.5682 C   0  0  0  0  0  0
    8.9124   38.1984   71.7834 C   0  0  0  0  0  0
    8.1224   36.2211   70.6660 C   0  0  0  0  0  0
   13.0863   41.8091   65.7126 C   0  0  0  0  0  0
   12.1683   43.0561   65.6903 C   0  0  0  0  0  0
   19.3617   42.9201   69.3426 C   0  0  0  0  0  0
    8.7765   35.4174   71.5971 C   0  0  0  0  0  0
    9.5820   37.4054   72.7152 C   0  0  0  0  0  0
    9.5064   36.0168   72.6202 C   0  0  0  0  0  0
   17.0167   45.0158   65.0398 H   0  0  0  0  0  0
   18.4415   44.0355   64.9115 H   0  0  0  0  0  0
    6.6687   39.0157   70.4381 H   0  0  0  0  0  0
    6.7083   37.8010   69.2072 H   0  0  0  0  0  0
   14.8732   43.8188   65.4187 H   0  0  0  0  0  0
    7.7210   41.1969   69.9397 H   0  0  0  0  0  0
    8.5730   37.7693   67.4964 H   0  0  0  0  0  0
    9.7754   39.2102   65.9403 H   0  0  0  0  0  0
    8.9276   42.6314   68.3880 H   0  0  0  0  0  0
   16.4735   43.0136   63.8016 H   0  0  0  0  0  0
   17.1021   41.9818   65.0959 H   0  0  0  0  0  0
   14.1788   42.2400   63.8890 H   0  0  0  0  0  0
   14.8766   40.9546   64.8654 H   0  0  0  0  0  0
   17.3227   42.2160   69.4095 H   0  0  0  0  0  0
   17.4477   43.9482   69.4735 H   0  0  0  0  0  0
   11.2089   42.8467   67.6164 H   0  0  0  0  0  0
   10.2548   43.7696   66.4611 H   0  0  0  0  0  0
    8.9208   39.2716   71.8611 H   0  0  0  0  0  0
    7.5318   35.8148   69.8660 H   0  0  0  0  0  0
   12.5275   40.9614   65.3106 H   0  0  0  0  0  0
   13.3208   41.5369   66.7400 H   0  0  0  0  0  0
   12.7198   43.9320   66.0281 H   0  0  0  0  0  0
   11.8657   43.2660   64.6653 H   0  0  0  0  0  0
   19.5089   42.8627   70.4203 H   0  0  0  0  0  0
   19.9359   43.7688   68.9718 H   0  0  0  0  0  0
   19.7801   42.0140   68.9030 H   0  0  0  0  0  0
    8.7032   34.3404   71.5403 H   0  0  0  0  0  0
   10.1368   37.8517   73.5249 H   0  0  0  0  0  0
   10.0092   35.4008   73.3515 H   0  0  0  0  0  0
  1  2  1  0  0  0
  1  3  2  0  0  0
  1  8  1  0  0  0
  2 15  1  0  0  0
  2 27  1  0  0  0
  2 28  1  0  0  0
  4  9  1  0  0  0
  4  5  1  0  0  0
  4 10  2  0  0  0
  5 13  1  0  0  0
  5 29  1  0  0  0
  5 30  1  0  0  0
  6 14  1  0  0  0
  6 11  2  0  0  0
  6 12  1  0  0  0
  7 15  1  0  0  0
  7 16  1  0  0  0
  7 31  1  0  0  0
  8 17  1  0  0  0
  9 12  2  0  0  0
  9 32  1  0  0  0
 10 11  1  0  0  0
 10 33  1  0  0  0
 11 34  1  0  0  0
 12 35  1  0  0  0
 13 19  2  0  0  0
 13 20  1  0  0  0
 14 18  1  0  0  0
 15 36  1  0  0  0
 15 37  1  0  0  0
 16 21  1  0  0  0
 16 38  1  0  0  0
 16 39  1  0  0  0
 17 23  1  0  0  0
 17 40  1  0  0  0
 17 41  1  0  0  0
 18 22  1  0  0  0
 18 42  1  0  0  0
 18 43  1  0  0  0
 19 25  1  0  0  0
 19 44  1  0  0  0
 20 24  2  0  0  0
 20 45  1  0  0  0
 21 22  1  0  0  0
 21 46  1  0  0  0
 21 47  1  0  0  0
 22 48  1  0  0  0
 22 49  1  0  0  0
 23 50  1  0  0  0
 23 51  1  0  0  0
 23 52  1  0  0  0
 24 26  1  0  0  0
 24 53  1  0  0  0
 25 26  2  0  0  0
 25 54  1  0  0  0
 26 55  1  0  0  0
M  END
> <s_m_entry_id>
6835

> <s_m_entry_name>
dock_pv.265

> <s_m_Source_Path>
/home/csk/Desktop/cluster/DUD-E-result/lkha4

> <s_m_Source_File>
dock_pv.maegz

> <i_m_Source_File_Index>
265

> <chembl_id>
CHEMBL119814

> <chembl_pref_name>
None

> <i_lp_mmshare_version>
53161

> <i_f3d_flags>
0

> <r_lp_tautomer_probability>
1

> <s_lp_Force_Field>
OPLS_2005

> <r_lp_Energy>
10.48997

> <b_lp_Chiralities_Consistent>
1

> <s_lp_Variant>
CHEMBL4618_lig165-1

> <s_i_glide_gridfile>
glide-grid_3chp

> <i_i_glide_lignum>
191

> <i_i_glide_rotatable_bonds>
13

> <r_i_docking_score>
-9.06176515877637

> <r_i_glide_ligand_efficiency>
-0.348529429183706

> <r_i_glide_ligand_efficiency_sa>
-1.03251706255965

> <r_i_glide_ligand_efficiency_ln>
-2.12812581346192

> <r_i_glide_gscore>
-9.06176515877637

> <r_i_glide_lipo>
-5.06730816859785

> <r_i_glide_hbond>
-0.294255331608453

> <r_i_glide_metal>
0

> <r_i_glide_rewards>
-1.77940038435559

> <r_i_glide_evdw>
-46.8617286682129

> <r_i_glide_ecoul>
-9.29052734375

> <r_i_glide_erotb>
1.81586426075867

> <r_i_glide_esite>
0

> <r_i_glide_emodel>
-89.935710764156

> <r_i_glide_energy>
-56.1522560119629

> <r_i_glide_einternal>
5.08308601379395

> <i_i_glide_confnum>
5

> <i_i_glide_posenum>
195

> <r_i_glide_eff_state_penalty>
0

> <s_user_duplicate_titles>
CHEMBL4618_lig165,192641

> <s_m_subgroup_title>
dock_pv

> <s_m_subgroupid>
dock_pv

> <b_m_subgroup_collapsed>
1

$$$$
CHEMBL4618_lig495
                    3D
 Schrodinger Suite 2021-1.
 43 44  0  0  1  0            999 V2000
    7.6115   41.3507   67.9389 O   0  0  0  0  0  0
    8.5211   40.2771   67.5010 S   0  0  0  0  0  0
    8.2705   39.4160   66.3401 O   0  0  0  0  0  0
   11.9424   41.7043   66.1819 C   0  0  0  0  0  0
   13.2501   41.6173   65.5752 C   0  0  0  0  0  0
   14.1843   42.5943   65.6035 C   0  0  0  0  0  0
   15.5241   42.4129   65.1190 C   0  0  0  0  0  0
   15.6384   41.7533   63.9558 N   0  0  0  0  0  0
   16.4879   42.7558   65.8075 O   0  0  0  0  0  0
   16.9202   41.4157   63.5396 O   0  0  0  0  0  0
   10.9985   40.6937   66.3404 C   0  0  0  0  0  0
    9.9583   41.1280   67.1169 N   0  0  0  0  0  0
   10.1531   42.4680   67.3347 C   0  0  0  0  0  0
   11.3443   42.8342   66.7414 C   0  0  0  0  0  0
    8.6050   39.1119   68.8577 C   0  0  0  0  0  0
    8.5260   39.5649   70.1582 C   0  0  0  0  0  0
    8.4832   38.6786   71.2253 C   0  0  0  0  0  0
    8.3913   37.3149   71.0017 C   0  0  0  0  0  0
    8.2965   36.8580   69.6918 C   0  0  0  0  0  0
    8.4642   37.7433   68.6232 C   0  0  0  0  0  0
    8.4235   36.3558   72.1852 C   0  0  0  0  0  0
    9.7869   36.0973   72.6791 N   0  0  0  0  0  0
    9.7487   35.1689   73.8022 C   0  0  0  0  0  0
   10.5155   37.3134   73.0600 C   0  0  0  0  0  0
   13.4571   40.6574   65.1203 H   0  0  0  0  0  0
   13.9884   43.5569   66.0528 H   0  0  0  0  0  0
   14.9234   41.5346   63.2640 H   0  0  0  0  0  0
   17.1338   42.0755   62.8565 H   0  0  0  0  0  0
   10.9867   39.6883   65.9443 H   0  0  0  0  0  0
    9.4162   43.0570   67.8656 H   0  0  0  0  0  0
   11.7702   43.8229   66.7409 H   0  0  0  0  0  0
    8.5144   40.6167   70.3392 H   0  0  0  0  0  0
    8.5210   39.0680   72.2292 H   0  0  0  0  0  0
    8.1579   35.8070   69.5056 H   0  0  0  0  0  0
    8.4329   37.3587   67.6144 H   0  0  0  0  0  0
    7.7988   36.7664   72.9818 H   0  0  0  0  0  0
    7.9592   35.4120   71.8924 H   0  0  0  0  0  0
    9.3235   34.2151   73.4933 H   0  0  0  0  0  0
   10.7548   34.9584   74.1700 H   0  0  0  0  0  0
    9.1619   35.5646   74.6333 H   0  0  0  0  0  0
   10.9206   37.8116   72.1775 H   0  0  0  0  0  0
    9.8575   38.0296   73.5384 H   0  0  0  0  0  0
   11.3482   37.1123   73.7302 H   0  0  0  0  0  0
  1  2  2  0  0  0
  2  3  2  0  0  0
  2 12  1  0  0  0
  2 15  1  0  0  0
  4  5  1  0  0  0
  4 11  2  0  0  0
  4 14  1  0  0  0
  5  6  2  0  0  0
  5 25  1  0  0  0
  6  7  1  0  0  0
  6 26  1  0  0  0
  7  8  1  0  0  0
  7  9  2  0  0  0
  8 10  1  0  0  0
  8 27  1  0  0  0
 10 28  1  0  0  0
 11 12  1  0  0  0
 11 29  1  0  0  0
 12 13  1  0  0  0
 13 14  2  0  0  0
 13 30  1  0  0  0
 14 31  1  0  0  0
 15 16  2  0  0  0
 15 20  1  0  0  0
 16 17  1  0  0  0
 16 32  1  0  0  0
 17 18  2  0  0  0
 17 33  1  0  0  0
 18 19  1  0  0  0
 18 21  1  0  0  0
 19 20  2  0  0  0
 19 34  1  0  0  0
 20 35  1  0  0  0
 21 22  1  0  0  0
 21 36  1  0  0  0
 21 37  1  0  0  0
 22 23  1  0  0  0
 22 24  1  0  0  0
 23 38  1  0  0  0
 23 39  1  0  0  0
 23 40  1  0  0  0
 24 41  1  0  0  0
 24 42  1  0  0  0
 24 43  1  0  0  0
M  END
> <s_m_entry_id>
6836

> <s_m_entry_name>
dock_pv.266

> <s_m_Source_Path>
/home/csk/Desktop/cluster/DUD-E-result/lkha4

> <s_m_Source_File>
dock_pv.maegz

> <i_m_Source_File_Index>
266

> <chembl_id>
CHEMBL4296717

> <chembl_pref_name>
RESMINOSTAT

> <i_lp_mmshare_version>
53161

> <i_f3d_flags>
0

> <r_lp_tautomer_probability>
1

> <s_lp_Force_Field>
OPLS_2005

> <r_lp_Energy>
15.226438

> <b_lp_Chiralities_Consistent>
1

> <s_lp_Variant>
CHEMBL4618_lig495-1

> <s_i_glide_gridfile>
glide-grid_3chp

> <i_i_glide_lignum>
595

> <i_i_glide_rotatable_bonds>
8

> <r_i_docking_score>
-9.06111786060006

> <r_i_glide_ligand_efficiency>
-0.377546577525003

> <r_i_glide_ligand_efficiency_sa>
-1.08903277725927

> <r_i_glide_ligand_efficiency_ln>
-2.16874129164714

> <r_i_glide_gscore>
-9.06111786060006

> <r_i_glide_lipo>
-3.7570723643612

> <r_i_glide_hbond>
-0.410322007503275

> <r_i_glide_metal>
0

> <r_i_glide_rewards>
-1.92677426622787

> <r_i_glide_evdw>
-31.8145408630371

> <r_i_glide_ecoul>
-14.0825271606445

> <r_i_glide_erotb>
0.936156894740822

> <r_i_glide_esite>
-0.2

> <r_i_glide_emodel>
-65.3550751096195

> <r_i_glide_energy>
-45.8970680236816

> <r_i_glide_einternal>
3.65431213378906

> <i_i_glide_confnum>
79

> <i_i_glide_posenum>
169

> <r_i_glide_eff_state_penalty>
0

> <s_user_duplicate_titles>
CHEMBL4618_lig495

> <s_m_subgroup_title>
dock_pv

> <s_m_subgroupid>
dock_pv

> <b_m_subgroup_collapsed>
1

$$$$
CHEMBL4618_lig62
                    3D
 Schrodinger Suite 2021-1.
 41 43  0  0  1  0            999 V2000
   11.5280   43.0141   65.5918 C   0  0  0  0  0  0
    8.7625   36.6263   71.1035 N   0  0  0  0  0  0
   11.9343   43.8159   64.5762 O   0  0  0  0  0  0
   12.6017   42.2178   65.9770 C   0  0  0  0  0  0
   13.2453   43.5590   64.3384 C   0  0  0  0  0  0
   13.6922   42.5629   65.1804 C   0  0  0  0  0  0
   10.0694   43.1522   66.0142 C   0  0  0  0  0  0
    9.5297   42.0722   66.9482 C   0  0  0  0  0  0
    8.4328   40.0472   68.5514 C   0  0  0  0  0  0
    9.8731   40.7389   66.7400 C   0  0  0  0  0  0
    8.6176   42.3930   67.9572 C   0  0  0  0  0  0
    8.0860   41.3837   68.7602 C   0  0  0  0  0  0
    9.3197   39.7370   67.5163 C   0  0  0  0  0  0
    7.8716   39.1018   69.3901 O   0  0  0  0  0  0
    7.6146   36.8121   70.2135 C   0  0  0  0  0  0
    7.9420   37.7217   69.0256 C   0  0  0  0  0  0
    8.9930   37.7125   72.0446 C   0  0  0  0  0  0
    8.6351   35.4459   71.9339 C   0  0  0  0  0  0
    9.7299   35.5942   72.9832 C   0  0  0  0  0  0
    9.8815   37.1091   73.1397 C   0  0  0  0  0  0
   12.5918   41.4556   66.7395 H   0  0  0  0  0  0
   13.7153   44.1269   63.5476 H   0  0  0  0  0  0
   14.6833   42.1390   65.2045 H   0  0  0  0  0  0
    9.4272   43.1242   65.1399 H   0  0  0  0  0  0
    9.8909   44.1354   66.4422 H   0  0  0  0  0  0
   10.5419   40.4566   65.9400 H   0  0  0  0  0  0
    8.3062   43.4165   68.1155 H   0  0  0  0  0  0
    7.3815   41.6356   69.5391 H   0  0  0  0  0  0
    9.6146   38.7285   67.2807 H   0  0  0  0  0  0
    7.3213   35.8406   69.8175 H   0  0  0  0  0  0
    6.7562   37.2044   70.7612 H   0  0  0  0  0  0
    8.9209   37.4168   68.6635 H   0  0  0  0  0  0
    7.2332   37.5457   68.2148 H   0  0  0  0  0  0
    8.0629   38.1171   72.4486 H   0  0  0  0  0  0
    9.4730   38.5464   71.5283 H   0  0  0  0  0  0
    8.7626   34.5577   71.3147 H   0  0  0  0  0  0
    7.6307   35.3727   72.3402 H   0  0  0  0  0  0
   10.6529   35.1211   72.6465 H   0  0  0  0  0  0
    9.4480   35.1125   73.9200 H   0  0  0  0  0  0
    9.5279   37.4152   74.1204 H   0  0  0  0  0  0
   10.9200   37.4255   73.0465 H   0  0  0  0  0  0
  1  3  1  0  0  0
  1  4  2  0  0  0
  1  7  1  0  0  0
  2 15  1  0  0  0
  2 17  1  0  0  0
  2 18  1  0  0  0
  3  5  1  0  0  0
  4  6  1  0  0  0
  4 21  1  0  0  0
  5  6  2  0  0  0
  5 22  1  0  0  0
  6 23  1  0  0  0
  7  8  1  0  0  0
  7 24  1  0  0  0
  7 25  1  0  0  0
  8 10  1  0  0  0
  8 11  2  0  0  0
  9 12  2  0  0  0
  9 14  1  0  0  0
  9 13  1  0  0  0
 10 13  2  0  0  0
 10 26  1  0  0  0
 11 12  1  0  0  0
 11 27  1  0  0  0
 12 28  1  0  0  0
 13 29  1  0  0  0
 14 16  1  0  0  0
 15 16  1  0  0  0
 15 30  1  0  0  0
 15 31  1  0  0  0
 16 32  1  0  0  0
 16 33  1  0  0  0
 17 20  1  0  0  0
 17 34  1  0  0  0
 17 35  1  0  0  0
 18 19  1  0  0  0
 18 36  1  0  0  0
 18 37  1  0  0  0
 19 20  1  0  0  0
 19 38  1  0  0  0
 19 39  1  0  0  0
 20 40  1  0  0  0
 20 41  1  0  0  0
M  END
> <s_m_entry_id>
6837

> <s_m_entry_name>
dock_pv.267

> <s_m_Source_Path>
/home/csk/Desktop/cluster/DUD-E-result/lkha4

> <s_m_Source_File>
dock_pv.maegz

> <i_m_Source_File_Index>
267

> <chembl_id>
CHEMBL162156

> <chembl_pref_name>
None

> <i_lp_mmshare_version>
53161

> <i_f3d_flags>
0

> <r_lp_tautomer_probability>
1

> <s_lp_Force_Field>
OPLS_2005

> <r_lp_Energy>
31.823243

> <b_lp_Chiralities_Consistent>
1

> <s_lp_Variant>
CHEMBL4618_lig62-1

> <s_i_glide_gridfile>
glide-grid_3chp

> <i_i_glide_lignum>
80

> <i_i_glide_rotatable_bonds>
6

> <r_i_docking_score>
-9.05742228168221

> <r_i_glide_ligand_efficiency>
-0.452871114084111

> <r_i_glide_ligand_efficiency_sa>
-1.22928132888934

> <r_i_glide_ligand_efficiency_ln>
-2.26677406332485

> <r_i_glide_gscore>
-9.05742228168221

> <r_i_glide_lipo>
-5.2590035520138

> <r_i_glide_hbond>
-0.0253930250911822

> <r_i_glide_metal>
0

> <r_i_glide_rewards>
-2.48227004559895

> <r_i_glide_evdw>
-42.2168769836426

> <r_i_glide_ecoul>
-2.63713121414185

> <r_i_glide_erotb>
1.21565787232513

> <r_i_glide_esite>
0

> <r_i_glide_emodel>
-67.1224675356139

> <r_i_glide_energy>
-44.8540081977844

> <r_i_glide_einternal>
4.3854808807373

> <i_i_glide_confnum>
154

> <i_i_glide_posenum>
145

> <r_i_glide_eff_state_penalty>
0

> <s_user_duplicate_titles>
CHEMBL4618_lig62,270694

> <s_m_subgroup_title>
dock_pv

> <s_m_subgroupid>
dock_pv

> <b_m_subgroup_collapsed>
1

$$$$
CHEMBL4618_lig426
                    3D
 Schrodinger Suite 2021-1.
 53 56  0  0  1  0            999 V2000
   14.0634   42.6066   65.1901 C   0  0  0  0  0  0
   14.7489   41.8573   64.2420 C   0  0  0  0  0  0
   16.1339   41.8949   64.0934 C   0  0  0  0  0  0
   14.7811   43.4160   66.0803 C   0  0  0  0  0  0
   16.1807   43.4596   66.0017 C   0  0  0  0  0  0
   16.8363   42.6840   65.0043 C   0  0  0  0  0  0
   18.1809   42.9311   65.1400 N   0  0  0  0  0  0
   18.3965   43.7991   66.1754 C   0  0  0  0  0  0
   17.1877   44.1720   66.7386 C   0  0  0  0  0  0
   16.9111   45.1389   67.8670 C   0  0  0  0  0  0
   18.1568   45.8713   68.3717 C   0  0  0  0  0  0
   17.7220   47.0160   69.1400 N   0  0  0  0  0  0
   12.6888   42.5006   65.1559 O   0  0  0  0  0  0
    9.5106   43.1491   66.6810 O   0  0  0  0  0  0
    9.2311   41.9186   67.2373 C   0  0  0  0  0  0
    9.7384   40.7003   66.7641 C   0  0  0  0  0  0
    9.3209   39.5032   67.3349 C   0  0  0  0  0  0
    8.4614   39.5027   68.4251 C   0  0  0  0  0  0
    7.9962   40.7153   68.9217 C   0  0  0  0  0  0
    8.3631   41.9164   68.3257 C   0  0  0  0  0  0
    8.0048   38.3055   68.9256 O   0  0  0  0  0  0
    8.4849   37.7480   70.0958 C   0  0  0  0  0  0
    8.1156   36.4296   70.3432 C   0  0  0  0  0  0
    8.5210   35.7702   71.4995 C   0  0  0  0  0  0
    9.3202   36.4302   72.4213 C   0  0  0  0  0  0
    9.7203   37.7385   72.1826 C   0  0  0  0  0  0
    9.3005   38.4024   71.0268 C   0  0  0  0  0  0
   10.4428   43.2519   65.6110 C   0  0  0  0  0  0
   11.8956   43.1919   66.1129 C   0  0  0  0  0  0
   14.1688   41.2744   63.5401 H   0  0  0  0  0  0
   16.6173   41.4161   63.2513 H   0  0  0  0  0  0
   14.2821   44.0007   66.8333 H   0  0  0  0  0  0
   18.9195   42.6168   64.5208 H   0  0  0  0  0  0
   19.4066   44.1116   66.3992 H   0  0  0  0  0  0
   16.4531   44.6159   68.7060 H   0  0  0  0  0  0
   16.1642   45.8584   67.5297 H   0  0  0  0  0  0
   18.7808   46.2156   67.5482 H   0  0  0  0  0  0
   18.7642   45.2055   68.9874 H   0  0  0  0  0  0
   16.8193   46.7905   69.5409 H   0  0  0  0  0  0
   18.3311   47.1267   69.9391 H   0  0  0  0  0  0
   10.4311   40.6535   65.9399 H   0  0  0  0  0  0
    9.6691   38.5707   66.9280 H   0  0  0  0  0  0
    7.3229   40.7209   69.7510 H   0  0  0  0  0  0
    7.9570   42.8477   68.6958 H   0  0  0  0  0  0
    7.4975   35.9083   69.6300 H   0  0  0  0  0  0
    8.2132   34.7486   71.6698 H   0  0  0  0  0  0
    9.6387   35.9218   73.3204 H   0  0  0  0  0  0
   10.3573   38.2160   72.9095 H   0  0  0  0  0  0
    9.6139   39.4153   70.8509 H   0  0  0  0  0  0
   10.2735   44.2175   65.1402 H   0  0  0  0  0  0
   10.2382   42.5270   64.8253 H   0  0  0  0  0  0
   11.9710   42.6952   67.0808 H   0  0  0  0  0  0
   12.2353   44.2160   66.2431 H   0  0  0  0  0  0
  1  2  2  0  0  0
  1  4  1  0  0  0
  1 13  1  0  0  0
  2  3  1  0  0  0
  2 30  1  0  0  0
  3  6  2  0  0  0
  3 31  1  0  0  0
  4  5  2  0  0  0
  4 32  1  0  0  0
  5  6  1  0  0  0
  5  9  1  0  0  0
  6  7  1  0  0  0
  7  8  1  0  0  0
  7 33  1  0  0  0
  8  9  2  0  0  0
  8 34  1  0  0  0
  9 10  1  0  0  0
 10 11  1  0  0  0
 10 35  1  0  0  0
 10 36  1  0  0  0
 11 12  1  0  0  0
 11 37  1  0  0  0
 11 38  1  0  0  0
 12 39  1  0  0  0
 12 40  1  0  0  0
 13 29  1  0  0  0
 14 15  1  0  0  0
 14 28  1  0  0  0
 15 16  2  0  0  0
 15 20  1  0  0  0
 16 17  1  0  0  0
 16 41  1  0  0  0
 17 18  2  0  0  0
 17 42  1  0  0  0
 18 19  1  0  0  0
 18 21  1  0  0  0
 19 20  2  0  0  0
 19 43  1  0  0  0
 20 44  1  0  0  0
 21 22  1  0  0  0
 22 23  2  0  0  0
 22 27  1  0  0  0
 23 24  1  0  0  0
 23 45  1  0  0  0
 24 25  2  0  0  0
 24 46  1  0  0  0
 25 26  1  0  0  0
 25 47  1  0  0  0
 26 27  2  0  0  0
 26 48  1  0  0  0
 27 49  1  0  0  0
 28 29  1  0  0  0
 28 50  1  0  0  0
 28 51  1  0  0  0
 29 52  1  0  0  0
 29 53  1  0  0  0
M  END
> <s_m_entry_id>
6838

> <s_m_entry_name>
dock_pv.268

> <s_m_Source_Path>
/home/csk/Desktop/cluster/DUD-E-result/lkha4

> <s_m_Source_File>
dock_pv.maegz

> <i_m_Source_File_Index>
268

> <chembl_id>
CHEMBL2316059

> <chembl_pref_name>
None

> <i_lp_mmshare_version>
53161

> <i_f3d_flags>
0

> <r_lp_tautomer_probability>
1

> <s_lp_Force_Field>
OPLS_2005

> <r_lp_Energy>
24.03239

> <b_lp_Chiralities_Consistent>
1

> <s_lp_Variant>
CHEMBL4618_lig426-1

> <s_i_glide_gridfile>
glide-grid_3chp

> <i_i_glide_lignum>
493

> <i_i_glide_rotatable_bonds>
9

> <r_i_docking_score>
-9.04744059232486

> <r_i_glide_ligand_efficiency>
-0.311980710080168

> <r_i_glide_ligand_efficiency_sa>
-0.958503583792862

> <r_i_glide_ligand_efficiency_ln>
-2.07163447234416

> <r_i_glide_gscore>
-9.04744059232486

> <r_i_glide_lipo>
-4.60784949220129

> <r_i_glide_hbond>
-0.15178674900338

> <r_i_glide_metal>
0

> <r_i_glide_rewards>
-1.34625571986355

> <r_i_glide_evdw>
-54.7951927185059

> <r_i_glide_ecoul>
-7.56498289108276

> <r_i_glide_erotb>
1.03295843833107

> <r_i_glide_esite>
-0.1

> <r_i_glide_emodel>
-88.3212424401303

> <r_i_glide_energy>
-62.3601756095886

> <r_i_glide_einternal>
11.0002889633179

> <i_i_glide_confnum>
7

> <i_i_glide_posenum>
363

> <r_i_glide_eff_state_penalty>
0

> <s_user_duplicate_titles>
CHEMBL4618_lig426

> <s_m_subgroup_title>
dock_pv

> <s_m_subgroupid>
dock_pv

> <b_m_subgroup_collapsed>
1

$$$$
CHEMBL4618_lig167
                    3D
 Schrodinger Suite 2021-1.
 55 56  0  0  1  0            999 V2000
   15.4270   43.0156   65.2910 C   0  0  0  0  0  0
   15.4431   43.6578   66.3411 O   0  0  0  0  0  0
   14.1285   42.8376   64.4704 C   0  0  0  0  0  0
   12.9450   42.3025   65.1782 N   0  0  2  0  0  0
    8.1137   37.8468   69.7755 C   0  0  0  0  0  0
    7.7291   36.8269   70.8450 C   0  0  0  0  0  0
    8.6134   39.7792   67.7932 C   0  0  0  0  0  0
   16.5197   42.4341   64.7382 O   0  0  0  0  0  0
    8.3015   39.1803   70.1173 C   0  0  0  0  0  0
    8.1500   37.4858   68.4310 C   0  0  0  0  0  0
    8.4383   38.4405   67.4561 C   0  0  0  0  0  0
    8.5210   40.1490   69.1398 C   0  0  0  0  0  0
    8.7942   36.3657   71.8439 C   0  0  0  0  0  0
    8.8913   40.6328   66.7429 O   0  0  0  0  0  0
   12.4962   43.0880   66.3410 C   0  0  0  0  0  0
   13.0403   40.8605   65.4055 C   0  0  0  0  0  0
   17.8165   42.5935   65.3261 C   0  0  0  0  0  0
    8.7201   42.0473   66.8534 C   0  0  0  0  0  0
    9.3486   37.2574   72.7599 C   0  0  0  0  0  0
    9.1352   35.0135   71.9300 C   0  0  0  0  0  0
   11.1936   42.6034   67.0115 C   0  0  0  0  0  0
    9.9162   42.7223   66.1633 C   0  0  0  0  0  0
   18.3565   44.0364   65.3315 C   0  0  0  0  0  0
   10.2064   36.7932   73.7565 C   0  0  0  0  0  0
   10.0245   34.5535   72.8954 C   0  0  0  0  0  0
   10.5259   35.4435   73.8327 C   0  0  0  0  0  0
   13.8738   43.8152   64.0609 H   0  0  0  0  0  0
   14.3408   42.2174   63.5969 H   0  0  0  0  0  0
    6.9121   37.2566   71.4239 H   0  0  0  0  0  0
    7.3214   35.9513   70.3406 H   0  0  0  0  0  0
    8.2231   39.4744   71.1504 H   0  0  0  0  0  0
    7.9859   36.4595   68.1487 H   0  0  0  0  0  0
    8.5098   38.1530   66.4178 H   0  0  0  0  0  0
    8.6453   41.1675   69.4666 H   0  0  0  0  0  0
   13.2623   43.1174   67.1142 H   0  0  0  0  0  0
   12.3468   44.1138   66.0006 H   0  0  0  0  0  0
   12.0633   40.4360   65.6378 H   0  0  0  0  0  0
   13.3874   40.3460   64.5082 H   0  0  0  0  0  0
   13.7207   40.6229   66.2220 H   0  0  0  0  0  0
   18.5069   41.9723   64.7592 H   0  0  0  0  0  0
   17.8120   42.2086   66.3457 H   0  0  0  0  0  0
    8.6122   42.4415   67.8612 H   0  0  0  0  0  0
    7.7972   42.3092   66.3405 H   0  0  0  0  0  0
    9.0786   38.2992   72.7410 H   0  0  0  0  0  0
    8.6988   34.3019   71.2460 H   0  0  0  0  0  0
   11.3182   41.5809   67.3686 H   0  0  0  0  0  0
   11.0472   43.1894   67.9197 H   0  0  0  0  0  0
    9.6914   43.7758   65.9892 H   0  0  0  0  0  0
   10.0719   42.2746   65.1810 H   0  0  0  0  0  0
   19.4006   44.0516   65.6441 H   0  0  0  0  0  0
   17.8004   44.6794   66.0122 H   0  0  0  0  0  0
   18.3058   44.4795   64.3403 H   0  0  0  0  0  0
   10.6169   37.4711   74.4866 H   0  0  0  0  0  0
   10.2785   33.5044   72.9499 H   0  0  0  0  0  0
   11.1848   35.0875   74.6115 H   0  0  0  0  0  0
  1  2  2  0  0  0
  1  3  1  0  0  0
  1  8  1  0  0  0
  3  4  1  0  0  0
  3 27  1  0  0  0
  3 28  1  0  0  0
  4 15  1  0  0  0
  4 16  1  0  0  0
  5  9  2  0  0  0
  5  6  1  0  0  0
  5 10  1  0  0  0
  6 13  1  0  0  0
  6 29  1  0  0  0
  6 30  1  0  0  0
  7 14  1  0  0  0
  7 11  1  0  0  0
  7 12  2  0  0  0
  8 17  1  0  0  0
  9 12  1  0  0  0
  9 31  1  0  0  0
 10 11  2  0  0  0
 10 32  1  0  0  0
 11 33  1  0  0  0
 12 34  1  0  0  0
 13 19  2  0  0  0
 13 20  1  0  0  0
 14 18  1  0  0  0
 15 21  1  0  0  0
 15 35  1  0  0  0
 15 36  1  0  0  0
 16 37  1  0  0  0
 16 38  1  0  0  0
 16 39  1  0  0  0
 17 23  1  0  0  0
 17 40  1  0  0  0
 17 41  1  0  0  0
 18 22  1  0  0  0
 18 42  1  0  0  0
 18 43  1  0  0  0
 19 24  1  0  0  0
 19 44  1  0  0  0
 20 25  2  0  0  0
 20 45  1  0  0  0
 21 22  1  0  0  0
 21 46  1  0  0  0
 21 47  1  0  0  0
 22 48  1  0  0  0
 22 49  1  0  0  0
 23 50  1  0  0  0
 23 51  1  0  0  0
 23 52  1  0  0  0
 24 26  2  0  0  0
 24 53  1  0  0  0
 25 26  1  0  0  0
 25 54  1  0  0  0
 26 55  1  0  0  0
M  END
> <s_m_entry_id>
6839

> <s_m_entry_name>
dock_pv.269

> <s_m_Source_Path>
/home/csk/Desktop/cluster/DUD-E-result/lkha4

> <s_m_Source_File>
dock_pv.maegz

> <i_m_Source_File_Index>
269

> <chembl_id>
CHEMBL119422

> <chembl_pref_name>
None

> <i_lp_mmshare_version>
53161

> <i_f3d_flags>
0

> <r_lp_tautomer_probability>
1

> <s_lp_Force_Field>
OPLS_2005

> <r_lp_Energy>
24.249372

> <b_lp_Chiralities_Consistent>
1

> <s_lp_Variant>
CHEMBL4618_lig167-1

> <s_i_glide_gridfile>
glide-grid_3chp

> <i_i_glide_lignum>
193

> <i_i_glide_rotatable_bonds>
12

> <r_i_docking_score>
-9.04609532057659

> <r_i_glide_ligand_efficiency>
-0.347926743099099

> <r_i_glide_ligand_efficiency_sa>
-1.03073160740546

> <r_i_glide_ligand_efficiency_ln>
-2.12444580337764

> <r_i_glide_gscore>
-9.04609532057659

> <r_i_glide_lipo>
-5.56236237662351

> <r_i_glide_hbond>
0

> <r_i_glide_metal>
0

> <r_i_glide_rewards>
-1.86233687235869

> <r_i_glide_evdw>
-50.4710426330566

> <r_i_glide_ecoul>
-4.41590785980225

> <r_i_glide_erotb>
1.66454223902878

> <r_i_glide_esite>
-0.1

> <r_i_glide_emodel>
-79.5467500009519

> <r_i_glide_energy>
-54.8869504928589

> <r_i_glide_einternal>
10.0622415542603

> <i_i_glide_confnum>
117

> <i_i_glide_posenum>
12

> <r_i_glide_eff_state_penalty>
0

> <s_user_duplicate_titles>
CHEMBL4618_lig167

> <s_m_subgroup_title>
dock_pv

> <s_m_subgroupid>
dock_pv

> <b_m_subgroup_collapsed>
1

$$$$
CHEMBL4618_lig33
                    3D
 Schrodinger Suite 2021-1.
 50 52  0  0  1  0            999 V2000
   15.2519   42.7499   64.5504 C   0  0  2  0  0  0
   16.6365   42.8348   65.2271 C   0  0  0  0  0  0
   12.9499   42.9427   65.0982 N   0  0  1  0  0  0
   14.2079   43.6628   65.2149 C   0  0  0  0  0  0
   14.6051   41.3539   64.6179 C   0  0  0  0  0  0
   17.2852   41.8155   65.4813 O   0  0  0  0  0  0
   13.3085   41.5634   65.3859 C   0  0  0  0  0  0
   17.0165   44.0952   65.5394 O   0  0  0  0  0  0
    8.1496   39.7328   68.7423 C   0  0  0  0  0  0
    7.5089   38.5797   69.5165 C   0  0  0  0  0  0
    9.2032   41.8809   67.2857 C   0  0  0  0  0  0
    7.6375   41.0219   68.8826 C   0  0  0  0  0  0
    9.2021   39.5182   67.8573 C   0  0  0  0  0  0
    9.7366   40.5880   67.1398 C   0  0  0  0  0  0
    8.1570   42.0853   68.1703 C   0  0  0  0  0  0
    8.3707   37.7286   70.4341 C   0  0  0  0  0  0
   11.8979   43.4666   65.9618 C   0  0  0  0  0  0
    9.6227   43.0155   66.6278 O   0  0  0  0  0  0
   10.5252   42.9238   65.5427 C   0  0  0  0  0  0
   18.3046   44.3382   66.0839 C   0  0  0  0  0  0
    8.1211   36.3631   70.5652 C   0  0  0  0  0  0
    9.3211   38.3312   71.2473 C   0  0  0  0  0  0
    8.7830   35.6169   71.5402 C   0  0  0  0  0  0
    9.9837   37.5934   72.2273 C   0  0  0  0  0  0
    9.7115   36.2362   72.3719 C   0  0  0  0  0  0
   15.3848   43.0159   63.5014 H   0  0  0  0  0  0
   14.4207   43.8756   66.2656 H   0  0  0  0  0  0
   14.1206   44.6335   64.7288 H   0  0  0  0  0  0
   14.3959   40.9564   63.6227 H   0  0  0  0  0  0
   15.1989   40.6160   65.1390 H   0  0  0  0  0  0
   12.5212   40.8866   65.0567 H   0  0  0  0  0  0
   13.4027   41.3731   66.4569 H   0  0  0  0  0  0
    6.8240   39.0145   70.2401 H   0  0  0  0  0  0
    6.9268   37.9618   68.8301 H   0  0  0  0  0  0
    6.8144   41.2212   69.5400 H   0  0  0  0  0  0
    9.6081   38.5261   67.7300 H   0  0  0  0  0  0
   10.5668   40.3771   66.4863 H   0  0  0  0  0  0
    7.7336   43.0732   68.2914 H   0  0  0  0  0  0
   12.1089   43.2520   67.0110 H   0  0  0  0  0  0
   11.8764   44.5505   65.8632 H   0  0  0  0  0  0
   10.1287   43.5451   64.7399 H   0  0  0  0  0  0
   10.5728   41.9225   65.1400 H   0  0  0  0  0  0
   18.4291   45.4021   66.2812 H   0  0  0  0  0  0
   19.0860   44.0334   65.3845 H   0  0  0  0  0  0
   18.4467   43.7981   67.0216 H   0  0  0  0  0  0
    7.3810   35.8832   69.9412 H   0  0  0  0  0  0
    9.5050   39.3900   71.1401 H   0  0  0  0  0  0
    8.5656   34.5647   71.6499 H   0  0  0  0  0  0
   10.7001   38.0739   72.8777 H   0  0  0  0  0  0
   10.2212   35.6630   73.1326 H   0  0  0  0  0  0
  1  2  1  0  0  0
  1  4  1  0  0  0
  1  5  1  0  0  0
  1 26  1  0  0  0
  2  6  2  0  0  0
  2  8  1  0  0  0
  3  4  1  0  0  0
  3 17  1  0  0  0
  3  7  1  0  0  0
  4 27  1  0  0  0
  4 28  1  0  0  0
  5  7  1  0  0  0
  5 29  1  0  0  0
  5 30  1  0  0  0
  7 31  1  0  0  0
  7 32  1  0  0  0
  8 20  1  0  0  0
  9 12  2  0  0  0
  9 10  1  0  0  0
  9 13  1  0  0  0
 10 16  1  0  0  0
 10 33  1  0  0  0
 10 34  1  0  0  0
 11 18  1  0  0  0
 11 14  1  0  0  0
 11 15  2  0  0  0
 12 15  1  0  0  0
 12 35  1  0  0  0
 13 14  2  0  0  0
 13 36  1  0  0  0
 14 37  1  0  0  0
 15 38  1  0  0  0
 16 21  2  0  0  0
 16 22  1  0  0  0
 17 19  1  0  0  0
 17 39  1  0  0  0
 17 40  1  0  0  0
 18 19  1  0  0  0
 19 41  1  0  0  0
 19 42  1  0  0  0
 20 43  1  0  0  0
 20 44  1  0  0  0
 20 45  1  0  0  0
 21 23  1  0  0  0
 21 46  1  0  0  0
 22 24  2  0  0  0
 22 47  1  0  0  0
 23 25  2  0  0  0
 23 48  1  0  0  0
 24 25  1  0  0  0
 24 49  1  0  0  0
 25 50  1  0  0  0
M  END
> <s_m_entry_id>
6840

> <s_m_entry_name>
dock_pv.270

> <s_m_Source_Path>
/home/csk/Desktop/cluster/DUD-E-result/lkha4

> <s_m_Source_File>
dock_pv.maegz

> <i_m_Source_File_Index>
270

> <chembl_id>
CHEMBL112323

> <chembl_pref_name>
None

> <i_lp_mmshare_version>
53161

> <i_f3d_flags>
0

> <r_lp_tautomer_probability>
1

> <s_lp_Force_Field>
OPLS_2005

> <r_lp_Energy>
36.990609

> <b_lp_Chiralities_Consistent>
1

> <s_lp_Variant>
CHEMBL4618_lig33-1

> <s_i_glide_gridfile>
glide-grid_3chp

> <i_i_glide_lignum>
45

> <i_i_glide_rotatable_bonds>
8

> <r_i_docking_score>
-9.04497445421609

> <r_i_glide_ligand_efficiency>
-0.361798978168643

> <r_i_glide_ligand_efficiency_sa>
-1.05790662869731

> <r_i_glide_ligand_efficiency_ln>
-2.14393000166073

> <r_i_glide_gscore>
-9.04497445421609

> <r_i_glide_lipo>
-4.7707639838284

> <r_i_glide_hbond>
-0.32

> <r_i_glide_metal>
0

> <r_i_glide_rewards>
-1.9916504859506

> <r_i_glide_evdw>
-45.466121673584

> <r_i_glide_ecoul>
-4.9271354675293

> <r_i_glide_erotb>
1.14981641937151

> <r_i_glide_esite>
-0.1

> <r_i_glide_emodel>
-70.7671101332362

> <r_i_glide_energy>
-50.3932571411133

> <r_i_glide_einternal>
9.35677814483643

> <i_i_glide_confnum>
29

> <i_i_glide_posenum>
384

> <r_i_glide_eff_state_penalty>
0

> <s_user_duplicate_titles>
CHEMBL4618_lig33

> <s_m_subgroup_title>
dock_pv

> <s_m_subgroupid>
dock_pv

> <b_m_subgroup_collapsed>
1

$$$$
CHEMBL4618_lig110
                    3D
 Schrodinger Suite 2021-1.
 49 51  0  0  1  0            999 V2000
   10.3568   42.5929   66.1454 O   0  0  0  0  0  0
   13.8185   43.3470   64.9049 N   0  0  0  0  0  0
   16.5199   42.2524   65.2772 N   0  0  0  0  0  0
    8.2981   39.8742   68.5457 C   0  0  0  0  0  0
    9.6809   41.6706   66.9159 C   0  0  0  0  0  0
    8.1195   41.2520   68.7123 C   0  0  0  0  0  0
    9.1396   39.3985   67.5495 C   0  0  0  0  0  0
    8.8015   42.1464   67.8881 C   0  0  0  0  0  0
    9.8341   40.2890   66.7461 C   0  0  0  0  0  0
    7.4755   38.8805   69.3423 C   0  0  0  0  0  0
    8.1892   37.9992   70.3465 C   0  0  0  0  0  0
   12.3582   43.4311   65.0411 C   0  0  0  0  0  0
   14.4907   43.3595   66.2055 C   0  0  0  0  0  0
   14.2849   42.1864   64.1288 C   0  0  0  0  0  0
   11.6929   42.2540   65.7842 C   0  0  0  0  0  0
   16.0181   43.4227   66.0180 C   0  0  0  0  0  0
   15.8335   42.2031   63.9699 C   0  0  0  0  0  0
    8.8803   38.5791   71.4023 C   0  0  0  0  0  0
    8.0492   36.6151   70.2883 C   0  0  0  0  0  0
    9.4540   37.7764   72.3853 C   0  0  0  0  0  0
    8.5815   35.8157   71.2958 C   0  0  0  0  0  0
   17.9503   42.4814   65.0897 C   0  0  0  0  0  0
    9.2927   36.3977   72.3385 C   0  0  0  0  0  0
    7.4353   41.6361   69.4557 H   0  0  0  0  0  0
    9.2607   38.3351   67.3949 H   0  0  0  0  0  0
    8.6526   43.2105   68.0039 H   0  0  0  0  0  0
   10.4793   39.8787   65.9857 H   0  0  0  0  0  0
    6.7700   39.4341   69.9397 H   0  0  0  0  0  0
    6.9200   38.2674   68.6339 H   0  0  0  0  0  0
   12.1103   44.3646   65.5465 H   0  0  0  0  0  0
   11.9213   43.5229   64.0456 H   0  0  0  0  0  0
   14.2169   42.4803   66.7775 H   0  0  0  0  0  0
   14.1611   44.2156   66.7846 H   0  0  0  0  0  0
   13.8205   42.2163   63.1422 H   0  0  0  0  0  0
   13.9752   41.2499   64.5956 H   0  0  0  0  0  0
   11.7256   41.3800   65.1410 H   0  0  0  0  0  0
   12.2242   41.9943   66.6992 H   0  0  0  0  0  0
   16.2723   44.3525   65.5042 H   0  0  0  0  0  0
   16.4943   43.4679   66.9989 H   0  0  0  0  0  0
   16.1452   43.0160   63.3197 H   0  0  0  0  0  0
   16.1348   41.3010   63.4383 H   0  0  0  0  0  0
    8.9211   39.6544   71.4722 H   0  0  0  0  0  0
    7.4933   36.1509   69.4901 H   0  0  0  0  0  0
    9.9938   38.2158   73.2092 H   0  0  0  0  0  0
    8.4656   34.7418   71.2588 H   0  0  0  0  0  0
   18.3558   41.8160   64.3410 H   0  0  0  0  0  0
   18.1692   43.4929   64.7401 H   0  0  0  0  0  0
   18.4983   42.3233   66.0190 H   0  0  0  0  0  0
    9.7182   35.7801   73.1162 H   0  0  0  0  0  0
  1  5  1  0  0  0
  1 15  1  0  0  0
  2 12  1  0  0  0
  2 13  1  0  0  0
  2 14  1  0  0  0
  3 16  1  0  0  0
  3 17  1  0  0  0
  3 22  1  0  0  0
  4  6  2  0  0  0
  4  7  1  0  0  0
  4 10  1  0  0  0
  5  8  2  0  0  0
  5  9  1  0  0  0
  6  8  1  0  0  0
  6 24  1  0  0  0
  7  9  2  0  0  0
  7 25  1  0  0  0
  8 26  1  0  0  0
  9 27  1  0  0  0
 10 11  1  0  0  0
 10 28  1  0  0  0
 10 29  1  0  0  0
 11 18  2  0  0  0
 11 19  1  0  0  0
 12 15  1  0  0  0
 12 30  1  0  0  0
 12 31  1  0  0  0
 13 16  1  0  0  0
 13 32  1  0  0  0
 13 33  1  0  0  0
 14 17  1  0  0  0
 14 34  1  0  0  0
 14 35  1  0  0  0
 15 36  1  0  0  0
 15 37  1  0  0  0
 16 38  1  0  0  0
 16 39  1  0  0  0
 17 40  1  0  0  0
 17 41  1  0  0  0
 18 20  1  0  0  0
 18 42  1  0  0  0
 19 21  2  0  0  0
 19 43  1  0  0  0
 20 23  2  0  0  0
 20 44  1  0  0  0
 21 23  1  0  0  0
 21 45  1  0  0  0
 22 46  1  0  0  0
 22 47  1  0  0  0
 22 48  1  0  0  0
 23 49  1  0  0  0
M  END
> <s_m_entry_id>
6841

> <s_m_entry_name>
dock_pv.271

> <s_m_Source_Path>
/home/csk/Desktop/cluster/DUD-E-result/lkha4

> <s_m_Source_File>
dock_pv.maegz

> <i_m_Source_File_Index>
271

> <chembl_id>
CHEMBL163428

> <chembl_pref_name>
None

> <i_lp_mmshare_version>
53161

> <i_f3d_flags>
0

> <r_lp_tautomer_probability>
1

> <s_lp_Force_Field>
OPLS_2005

> <r_lp_Energy>
41.756102

> <b_lp_Chiralities_Consistent>
1

> <s_lp_Variant>
CHEMBL4618_lig110-1

> <s_i_glide_gridfile>
glide-grid_3chp

> <i_i_glide_lignum>
136

> <i_i_glide_rotatable_bonds>
6

> <r_i_docking_score>
-9.04142958383443

> <r_i_glide_ligand_efficiency>
-0.393105634079758

> <r_i_glide_ligand_efficiency_sa>
-1.1179401311846

> <r_i_glide_ligand_efficiency_ln>
-2.18629965652195

> <r_i_glide_gscore>
-9.04142958383443

> <r_i_glide_lipo>
-4.76400571422138

> <r_i_glide_hbond>
-0.32

> <r_i_glide_metal>
0

> <r_i_glide_rewards>
-1.93456709942066

> <r_i_glide_evdw>
-41.0548629760742

> <r_i_glide_ecoul>
-7.49233341217041

> <r_i_glide_erotb>
1.15373639043688

> <r_i_glide_esite>
0

> <r_i_glide_emodel>
-66.9632923603827

> <r_i_glide_energy>
-48.5471963882446

> <r_i_glide_einternal>
9.3517484664917

> <i_i_glide_confnum>
65

> <i_i_glide_posenum>
399

> <r_i_glide_eff_state_penalty>
0

> <s_user_duplicate_titles>
CHEMBL4618_lig110,270985

> <s_m_subgroup_title>
dock_pv

> <s_m_subgroupid>
dock_pv

> <b_m_subgroup_collapsed>
1

$$$$
CHEMBL4618_lig170
                    3D
 Schrodinger Suite 2021-1.
 52 53  0  0  1  0            999 V2000
   15.1656   42.0376   64.7507 C   0  0  0  0  0  0
   13.6465   42.0774   64.9564 C   0  0  0  0  0  0
   15.7211   41.0161   64.3397 O   0  0  0  0  0  0
    8.1209   37.8723   69.7089 C   0  0  0  0  0  0
    7.7212   36.8126   70.7379 C   0  0  0  0  0  0
    8.6798   39.9174   67.8560 C   0  0  0  0  0  0
   11.8369   43.1172   66.3400 N   0  0  2  0  0  0
   15.8032   43.1420   65.1916 O   0  0  0  0  0  0
    8.2747   39.1854   70.1269 C   0  0  0  0  0  0
    8.2037   37.5913   68.3414 C   0  0  0  0  0  0
    8.5194   38.6026   67.4290 C   0  0  0  0  0  0
    8.5210   40.2034   69.2128 C   0  0  0  0  0  0
    8.7597   36.3556   71.7726 C   0  0  0  0  0  0
    9.3944   43.1123   66.0800 C   0  0  0  0  0  0
    8.9721   40.8733   66.9022 O   0  0  0  0  0  0
   13.1234   43.3282   65.6984 C   0  0  0  0  0  0
   10.7526   42.8432   65.4143 C   0  0  0  0  0  0
    9.0776   42.2404   67.3023 C   0  0  0  0  0  0
   17.1892   43.3379   64.9800 C   0  0  0  0  0  0
    9.1306   35.0118   71.8314 C   0  0  0  0  0  0
    9.2668   37.2261   72.7403 C   0  0  0  0  0  0
   17.6887   44.4445   65.9165 C   0  0  0  0  0  0
   10.0329   34.5450   72.7819 C   0  0  0  0  0  0
   10.1389   36.7550   73.7226 C   0  0  0  0  0  0
   10.5209   35.4184   73.7421 C   0  0  0  0  0  0
   13.1788   42.0083   63.9761 H   0  0  0  0  0  0
   13.3700   41.1792   65.5094 H   0  0  0  0  0  0
    6.8854   37.2245   71.3024 H   0  0  0  0  0  0
    7.3222   35.9476   70.2065 H   0  0  0  0  0  0
   11.6001   43.9119   66.9213 H   0  0  0  0  0  0
    8.1321   39.4226   71.1694 H   0  0  0  0  0  0
    8.0492   36.5888   67.9797 H   0  0  0  0  0  0
    8.6199   38.3645   66.3798 H   0  0  0  0  0  0
    8.5839   41.2186   69.5633 H   0  0  0  0  0  0
    9.3091   44.1681   66.3396 H   0  0  0  0  0  0
    8.6142   42.9350   65.3498 H   0  0  0  0  0  0
   13.7916   43.5701   66.5272 H   0  0  0  0  0  0
   13.1235   44.2097   65.0545 H   0  0  0  0  0  0
   10.8457   43.4430   64.5074 H   0  0  0  0  0  0
   10.8115   41.7944   65.1402 H   0  0  0  0  0  0
    9.8496   42.3697   68.0628 H   0  0  0  0  0  0
    8.1308   42.5719   67.7334 H   0  0  0  0  0  0
   17.3213   43.6374   63.9433 H   0  0  0  0  0  0
   17.7605   42.4215   65.1422 H   0  0  0  0  0  0
    8.7109   34.3002   71.1397 H   0  0  0  0  0  0
    8.9669   38.2611   72.7587 H   0  0  0  0  0  0
   18.7432   44.6525   65.7334 H   0  0  0  0  0  0
   17.5815   44.1521   66.9616 H   0  0  0  0  0  0
   17.1309   45.3703   65.7702 H   0  0  0  0  0  0
   10.3123   33.5019   72.8062 H   0  0  0  0  0  0
   10.5215   37.4160   74.4826 H   0  0  0  0  0  0
   11.1936   35.0561   74.5061 H   0  0  0  0  0  0
  1  2  1  0  0  0
  1  3  2  0  0  0
  1  8  1  0  0  0
  2 16  1  0  0  0
  2 26  1  0  0  0
  2 27  1  0  0  0
  4  9  1  0  0  0
  4  5  1  0  0  0
  4 10  2  0  0  0
  5 13  1  0  0  0
  5 28  1  0  0  0
  5 29  1  0  0  0
  6 15  1  0  0  0
  6 11  2  0  0  0
  6 12  1  0  0  0
  7 16  1  0  0  0
  7 17  1  0  0  0
  7 30  1  0  0  0
  8 19  1  0  0  0
  9 12  2  0  0  0
  9 31  1  0  0  0
 10 11  1  0  0  0
 10 32  1  0  0  0
 11 33  1  0  0  0
 12 34  1  0  0  0
 13 20  1  0  0  0
 13 21  2  0  0  0
 14 17  1  0  0  0
 14 18  1  0  0  0
 14 35  1  0  0  0
 14 36  1  0  0  0
 15 18  1  0  0  0
 16 37  1  0  0  0
 16 38  1  0  0  0
 17 39  1  0  0  0
 17 40  1  0  0  0
 18 41  1  0  0  0
 18 42  1  0  0  0
 19 22  1  0  0  0
 19 43  1  0  0  0
 19 44  1  0  0  0
 20 23  2  0  0  0
 20 45  1  0  0  0
 21 24  1  0  0  0
 21 46  1  0  0  0
 22 47  1  0  0  0
 22 48  1  0  0  0
 22 49  1  0  0  0
 23 25  1  0  0  0
 23 50  1  0  0  0
 24 25  2  0  0  0
 24 51  1  0  0  0
 25 52  1  0  0  0
M  END
> <s_m_entry_id>
6842

> <s_m_entry_name>
dock_pv.272

> <s_m_Source_Path>
/home/csk/Desktop/cluster/DUD-E-result/lkha4

> <s_m_Source_File>
dock_pv.maegz

> <i_m_Source_File_Index>
272

> <chembl_id>
CHEMBL117256

> <chembl_pref_name>
None

> <i_lp_mmshare_version>
53161

> <i_f3d_flags>
0

> <r_lp_tautomer_probability>
1

> <s_lp_Force_Field>
OPLS_2005

> <r_lp_Energy>
11.736589

> <b_lp_Chiralities_Consistent>
1

> <s_lp_Variant>
CHEMBL4618_lig170-1

> <s_i_glide_gridfile>
glide-grid_3chp

> <i_i_glide_lignum>
196

> <i_i_glide_rotatable_bonds>
12

> <r_i_docking_score>
-9.03932242684823

> <r_i_glide_ligand_efficiency>
-0.361572897073929

> <r_i_glide_ligand_efficiency_sa>
-1.0572455635668

> <r_i_glide_ligand_efficiency_ln>
-2.14259030179695

> <r_i_glide_gscore>
-9.03932242684823

> <r_i_glide_lipo>
-5.43652074139184

> <r_i_glide_hbond>
0

> <r_i_glide_metal>
0

> <r_i_glide_rewards>
-1.97061393028689

> <r_i_glide_evdw>
-46.0020294189453

> <r_i_glide_ecoul>
-6.80047082901001

> <r_i_glide_erotb>
1.78798434012927

> <r_i_glide_esite>
-0.1

> <r_i_glide_emodel>
-82.1209910321887

> <r_i_glide_energy>
-52.8025002479553

> <r_i_glide_einternal>
7.32934856414795

> <i_i_glide_confnum>
1

> <i_i_glide_posenum>
282

> <r_i_glide_eff_state_penalty>
0

> <s_user_duplicate_titles>
CHEMBL4618_lig170,193164

> <s_m_subgroup_title>
dock_pv

> <s_m_subgroupid>
dock_pv

> <b_m_subgroup_collapsed>
1

$$$$
CHEMBL4618_lig372
                    3D
 Schrodinger Suite 2021-1.
 43 45  0  0  1  0            999 V2000
    9.5998   37.4157   72.6678 C   0  0  0  0  0  0
    9.5219   36.0291   72.5804 C   0  0  0  0  0  0
    8.7837   35.4272   71.5650 C   0  0  0  0  0  0
    8.1214   36.2273   70.6355 C   0  0  0  0  0  0
    8.1790   37.6119   70.7253 C   0  0  0  0  0  0
    8.9156   38.2074   71.7443 C   0  0  0  0  0  0
    7.3413   38.4496   69.7771 C   0  0  0  0  0  0
    8.0952   39.3724   68.8341 C   0  0  0  0  0  0
    8.6563   38.8569   67.6712 C   0  0  0  0  0  0
    9.3211   39.7061   66.7983 C   0  0  0  0  0  0
    9.4302   41.0682   67.0655 C   0  0  0  0  0  0
    8.8038   41.5966   68.1928 C   0  0  0  0  0  0
    8.1493   40.7486   69.0717 C   0  0  0  0  0  0
   10.1677   41.8398   66.1967 O   0  0  0  0  0  0
   10.9398   42.9022   66.7593 C   0  0  0  0  0  0
   12.2652   43.0696   65.9950 C   0  0  1  0  0  0
   12.9564   41.6911   65.7595 C   0  0  0  0  0  0
   14.2291   41.8023   65.0433 N   0  0  2  0  0  0
   14.0172   42.5383   63.7987 C   0  0  0  0  0  0
   13.4189   43.9321   64.0837 C   0  0  0  0  0  0
   12.1207   43.8146   64.7403 N   0  0  2  0  0  0
   10.1600   37.8725   73.4722 H   0  0  0  0  0  0
   10.0281   35.4136   73.3087 H   0  0  0  0  0  0
    8.7102   34.3503   71.5126 H   0  0  0  0  0  0
    7.5272   35.8146   69.8424 H   0  0  0  0  0  0
    8.9174   39.2803   71.8219 H   0  0  0  0  0  0
    6.7066   37.8016   69.1700 H   0  0  0  0  0  0
    6.6606   39.0158   70.3998 H   0  0  0  0  0  0
    8.6076   37.7996   67.4547 H   0  0  0  0  0  0
    9.8093   39.2866   65.9390 H   0  0  0  0  0  0
    8.8374   42.6563   68.4026 H   0  0  0  0  0  0
    7.7178   41.1943   69.9401 H   0  0  0  0  0  0
   10.3474   43.8157   66.7331 H   0  0  0  0  0  0
   11.1827   42.7145   67.8059 H   0  0  0  0  0  0
   12.9122   43.6702   66.6369 H   0  0  0  0  0  0
   13.1726   41.2053   66.7103 H   0  0  0  0  0  0
   12.3057   41.0150   65.2020 H   0  0  0  0  0  0
   14.5208   40.8627   64.8139 H   0  0  0  0  0  0
   14.9635   42.6186   63.2632 H   0  0  0  0  0  0
   13.3562   41.9705   63.1403 H   0  0  0  0  0  0
   14.0929   44.5168   64.7130 H   0  0  0  0  0  0
   13.3167   44.4997   63.1594 H   0  0  0  0  0  0
   11.7796   44.7400   64.9643 H   0  0  0  0  0  0
  1  6  1  0  0  0
  1  2  2  0  0  0
  1 22  1  0  0  0
  2  3  1  0  0  0
  2 23  1  0  0  0
  3  4  2  0  0  0
  3 24  1  0  0  0
  4  5  1  0  0  0
  4 25  1  0  0  0
  5  6  2  0  0  0
  5  7  1  0  0  0
  6 26  1  0  0  0
  7  8  1  0  0  0
  7 27  1  0  0  0
  7 28  1  0  0  0
  8 13  1  0  0  0
  8  9  2  0  0  0
  9 10  1  0  0  0
  9 29  1  0  0  0
 10 11  2  0  0  0
 10 30  1  0  0  0
 11 12  1  0  0  0
 11 14  1  0  0  0
 12 13  2  0  0  0
 12 31  1  0  0  0
 13 32  1  0  0  0
 14 15  1  0  0  0
 15 16  1  0  0  0
 15 33  1  0  0  0
 15 34  1  0  0  0
 16 17  1  0  0  0
 16 21  1  0  0  0
 16 35  1  0  0  0
 17 18  1  0  0  0
 17 36  1  0  0  0
 17 37  1  0  0  0
 18 19  1  0  0  0
 18 38  1  0  0  0
 19 20  1  0  0  0
 19 39  1  0  0  0
 19 40  1  0  0  0
 20 21  1  0  0  0
 20 41  1  0  0  0
 20 42  1  0  0  0
 21 43  1  0  0  0
M  END
> <s_m_entry_id>
6843

> <s_m_entry_name>
dock_pv.273

> <s_m_Source_Path>
/home/csk/Desktop/cluster/DUD-E-result/lkha4

> <s_m_Source_File>
dock_pv.maegz

> <i_m_Source_File_Index>
273

> <chembl_id>
CHEMBL1098820

> <chembl_pref_name>
None

> <i_lp_mmshare_version>
53161

> <i_f3d_flags>
0

> <r_lp_tautomer_probability>
1

> <s_lp_Force_Field>
OPLS_2005

> <r_lp_Energy>
36.329429

> <b_lp_Chiralities_Consistent>
1

> <s_lp_Variant>
CHEMBL4618_lig372-2

> <s_i_glide_gridfile>
glide-grid_3chp

> <i_i_glide_lignum>
420

> <i_i_glide_rotatable_bonds>
5

> <r_i_docking_score>
-9.03443952066314

> <r_i_glide_ligand_efficiency>
-0.430211405745864

> <r_i_glide_ligand_efficiency_sa>
-1.18692064706264

> <r_i_glide_ligand_efficiency_ln>
-2.23374691567997

> <r_i_glide_gscore>
-9.03443952066314

> <r_i_glide_lipo>
-4.88490785076379

> <r_i_glide_hbond>
0

> <r_i_glide_metal>
0

> <r_i_glide_rewards>
-2.49874674343566

> <r_i_glide_evdw>
-39.1612167358398

> <r_i_glide_ecoul>
-5.51486682891846

> <r_i_glide_erotb>
1.13450593466607

> <r_i_glide_esite>
0

> <r_i_glide_emodel>
-62.1796472435895

> <r_i_glide_energy>
-44.6760835647583

> <r_i_glide_einternal>
4.93298959732056

> <i_i_glide_confnum>
101

> <i_i_glide_posenum>
305

> <r_i_glide_eff_state_penalty>
0

> <s_user_duplicate_titles>
CHEMBL4618_lig372,627631

> <s_m_subgroup_title>
dock_pv

> <s_m_subgroupid>
dock_pv

> <b_m_subgroup_collapsed>
1

$$$$
CHEMBL4618_lig26
                    3D
 Schrodinger Suite 2021-1.
 56 58  0  0  1  0            999 V2000
   14.1251   42.8052   65.0415 C   0  0  0  0  0  0
   10.1796   42.2162   66.8481 N   0  0  1  0  0  0
   12.6121   42.5225   65.1609 C   0  0  0  0  0  0
   14.6403   43.8098   65.5400 O   0  0  0  0  0  0
   12.3087   41.1810   65.8810 C   0  0  0  0  0  0
   11.8530   43.6694   65.8422 C   0  0  0  0  0  0
   10.8293   40.9966   66.3428 C   0  0  0  0  0  0
   10.3591   43.3488   65.9450 C   0  0  0  0  0  0
    8.4647   36.8587   71.0866 C   0  0  0  0  0  0
    8.3476   35.7285   72.1156 C   0  0  0  0  0  0
   14.7876   41.8529   64.3398 O   0  0  0  0  0  0
    8.5045   38.9059   69.1548 C   0  0  0  0  0  0
    8.8306   38.1521   71.4509 C   0  0  0  0  0  0
    8.1078   36.6156   69.7597 C   0  0  0  0  0  0
    8.1209   37.6219   68.8012 C   0  0  0  0  0  0
    8.8517   39.1600   70.4876 C   0  0  0  0  0  0
    9.5067   35.4630   73.0776 C   0  0  0  0  0  0
    8.5142   39.8376   68.1361 O   0  0  0  0  0  0
    8.7537   42.0595   67.1787 C   0  0  0  0  0  0
    8.5313   41.2274   68.4524 C   0  0  0  0  0  0
   16.1267   42.0653   63.8929 C   0  0  0  0  0  0
   10.3350   34.3449   72.9199 C   0  0  0  0  0  0
    9.5991   36.2189   74.2470 C   0  0  0  0  0  0
   17.1625   41.9790   65.0267 C   0  0  0  0  0  0
   11.2322   33.9904   73.9311 C   0  0  0  0  0  0
   10.5209   35.8940   75.2325 C   0  0  0  0  0  0
   11.3208   34.7663   75.0820 C   0  0  0  0  0  0
   12.2466   42.4932   64.1387 H   0  0  0  0  0  0
   12.5690   40.3438   65.2296 H   0  0  0  0  0  0
   12.9579   41.0638   66.7402 H   0  0  0  0  0  0
   12.2537   43.8161   66.8445 H   0  0  0  0  0  0
   11.9803   44.5905   65.2730 H   0  0  0  0  0  0
   10.2261   40.5887   65.5400 H   0  0  0  0  0  0
   10.7930   40.2471   67.1331 H   0  0  0  0  0  0
    9.9105   43.1302   64.9771 H   0  0  0  0  0  0
    9.8358   44.2162   66.3378 H   0  0  0  0  0  0
    7.4702   35.9447   72.7324 H   0  0  0  0  0  0
    8.1153   34.7952   71.6012 H   0  0  0  0  0  0
    9.0702   38.3843   72.4776 H   0  0  0  0  0  0
    7.7897   35.6371   69.4534 H   0  0  0  0  0  0
    7.8468   37.4071   67.7794 H   0  0  0  0  0  0
    9.1213   40.1510   70.7910 H   0  0  0  0  0  0
    8.3016   43.0385   67.3565 H   0  0  0  0  0  0
    8.2116   41.6224   66.3404 H   0  0  0  0  0  0
    9.3196   41.4912   69.1513 H   0  0  0  0  0  0
    7.5775   41.4952   68.9130 H   0  0  0  0  0  0
   16.2079   43.0159   63.3703 H   0  0  0  0  0  0
   16.3522   41.3107   63.1399 H   0  0  0  0  0  0
   10.2370   33.7139   72.0474 H   0  0  0  0  0  0
    8.9236   37.0411   74.4111 H   0  0  0  0  0  0
   18.1671   42.1216   64.6303 H   0  0  0  0  0  0
   17.1278   41.0265   65.5404 H   0  0  0  0  0  0
   17.0112   42.7656   65.7655 H   0  0  0  0  0  0
   11.8430   33.1037   73.8264 H   0  0  0  0  0  0
   10.5790   36.4860   76.1333 H   0  0  0  0  0  0
   12.0041   34.4845   75.8704 H   0  0  0  0  0  0
  1  3  1  0  0  0
  1  4  2  0  0  0
  1 11  1  0  0  0
  2  8  1  0  0  0
  2 19  1  0  0  0
  2  7  1  0  0  0
  3  5  1  0  0  0
  3  6  1  0  0  0
  3 28  1  0  0  0
  5  7  1  0  0  0
  5 29  1  0  0  0
  5 30  1  0  0  0
  6  8  1  0  0  0
  6 31  1  0  0  0
  6 32  1  0  0  0
  7 33  1  0  0  0
  7 34  1  0  0  0
  8 35  1  0  0  0
  8 36  1  0  0  0
  9 13  2  0  0  0
  9 10  1  0  0  0
  9 14  1  0  0  0
 10 17  1  0  0  0
 10 37  1  0  0  0
 10 38  1  0  0  0
 11 21  1  0  0  0
 12 18  1  0  0  0
 12 15  1  0  0  0
 12 16  2  0  0  0
 13 16  1  0  0  0
 13 39  1  0  0  0
 14 15  2  0  0  0
 14 40  1  0  0  0
 15 41  1  0  0  0
 16 42  1  0  0  0
 17 22  2  0  0  0
 17 23  1  0  0  0
 18 20  1  0  0  0
 19 20  1  0  0  0
 19 43  1  0  0  0
 19 44  1  0  0  0
 20 45  1  0  0  0
 20 46  1  0  0  0
 21 24  1  0  0  0
 21 47  1  0  0  0
 21 48  1  0  0  0
 22 25  1  0  0  0
 22 49  1  0  0  0
 23 26  2  0  0  0
 23 50  1  0  0  0
 24 51  1  0  0  0
 24 52  1  0  0  0
 24 53  1  0  0  0
 25 27  2  0  0  0
 25 54  1  0  0  0
 26 27  1  0  0  0
 26 55  1  0  0  0
 27 56  1  0  0  0
M  END
> <s_m_entry_id>
6844

> <s_m_entry_name>
dock_pv.274

> <s_m_Source_Path>
/home/csk/Desktop/cluster/DUD-E-result/lkha4

> <s_m_Source_File>
dock_pv.maegz

> <i_m_Source_File_Index>
274

> <chembl_id>
CHEMBL325057

> <chembl_pref_name>
None

> <i_lp_mmshare_version>
53161

> <i_f3d_flags>
0

> <r_lp_tautomer_probability>
1

> <s_lp_Force_Field>
OPLS_2005

> <r_lp_Energy>
27.556082

> <b_lp_Chiralities_Consistent>
1

> <s_lp_Variant>
CHEMBL4618_lig26-1

> <s_i_glide_gridfile>
glide-grid_3chp

> <i_i_glide_lignum>
36

> <i_i_glide_rotatable_bonds>
9

> <r_i_docking_score>
-9.03353726616918

> <r_i_glide_ligand_efficiency>
-0.334575454302562

> <r_i_glide_ligand_efficiency_sa>
-1.00372636180498

> <r_i_glide_ligand_efficiency_ln>
-2.10285854606288

> <r_i_glide_gscore>
-9.03353726616918

> <r_i_glide_lipo>
-5.43942256583487

> <r_i_glide_hbond>
0

> <r_i_glide_metal>
0

> <r_i_glide_rewards>
-1.77815168873165

> <r_i_glide_evdw>
-52.4576110839844

> <r_i_glide_ecoul>
-2.22670888900757

> <r_i_glide_erotb>
1.1409238759477

> <r_i_glide_esite>
0

> <r_i_glide_emodel>
-80.8599909866321

> <r_i_glide_energy>
-54.6843199729919

> <r_i_glide_einternal>
10.4209642410278

> <i_i_glide_confnum>
40

> <i_i_glide_posenum>
38

> <r_i_glide_eff_state_penalty>
0

> <s_user_duplicate_titles>
CHEMBL4618_lig26

> <s_m_subgroup_title>
dock_pv

> <s_m_subgroupid>
dock_pv

> <b_m_subgroup_collapsed>
1

$$$$
CHEMBL4618_lig421
                    3D
 Schrodinger Suite 2021-1.
 54 57  0  0  1  0            999 V2000
   13.7269   43.0695   64.7946 C   0  0  0  0  0  0
   14.3507   42.1770   63.9400 C   0  0  0  0  0  0
   15.7265   41.9385   63.9400 C   0  0  0  0  0  0
   14.5044   43.7384   65.7453 C   0  0  0  0  0  0
   15.8900   43.5221   65.8233 C   0  0  0  0  0  0
   16.4816   42.6160   64.8979 C   0  0  0  0  0  0
   17.8347   42.6384   65.1400 N   0  0  0  0  0  0
   18.1098   43.4892   66.1751 C   0  0  0  0  0  0
   16.9429   44.0628   66.6513 C   0  0  0  0  0  0
   16.7707   45.0771   67.7730 C   0  0  0  0  0  0
   18.0349   45.3792   68.5970 C   0  0  0  0  0  0
   18.5746   44.1856   69.2453 N   0  0  0  0  0  0
   12.3750   43.2734   64.5675 O   0  0  0  0  0  0
   11.5140   43.8044   65.5801 C   0  0  0  0  0  0
   10.6081   42.7315   66.1674 C   0  0  0  0  0  0
    9.3839   43.0527   66.7680 C   0  0  0  0  0  0
    8.6623   42.0854   67.4755 C   0  0  0  0  0  0
    9.1147   40.7641   67.4779 C   0  0  0  0  0  0
   10.2405   40.4442   66.7407 C   0  0  0  0  0  0
   11.0335   41.4134   66.1628 C   0  0  0  0  0  0
    8.5209   39.6686   68.2749 C   0  0  0  0  0  0
    8.1210   38.4909   67.6506 C   0  0  0  0  0  0
    7.6987   37.4159   68.4171 C   0  0  0  0  0  0
    7.7082   37.4749   69.8036 C   0  0  0  0  0  0
    8.1225   38.6347   70.4374 C   0  0  0  0  0  0
    8.5130   39.7274   69.6673 C   0  0  0  0  0  0
   19.8923   44.0855   69.6459 C   0  0  0  0  0  0
   20.7501   44.9674   69.5381 O   0  0  0  0  0  0
   20.0908   42.8684   70.1789 O   0  0  0  0  0  0
   21.3803   42.4675   70.6218 C   0  0  0  0  0  0
   13.7396   41.7097   63.1800 H   0  0  0  0  0  0
   16.1695   41.3393   63.1564 H   0  0  0  0  0  0
   14.0758   44.5027   66.3490 H   0  0  0  0  0  0
   18.5635   42.2094   64.5827 H   0  0  0  0  0  0
   19.1384   43.6415   66.4719 H   0  0  0  0  0  0
   16.0052   44.7319   68.4602 H   0  0  0  0  0  0
   16.3817   46.0104   67.3745 H   0  0  0  0  0  0
   17.8136   46.1269   69.3605 H   0  0  0  0  0  0
   18.7847   45.8143   67.9325 H   0  0  0  0  0  0
   17.9539   43.4144   69.4454 H   0  0  0  0  0  0
   12.0486   44.2160   66.4222 H   0  0  0  0  0  0
   10.9116   44.5966   65.1400 H   0  0  0  0  0  0
    9.0218   44.0706   66.7404 H   0  0  0  0  0  0
    7.7653   42.3636   68.0118 H   0  0  0  0  0  0
   10.5213   39.4158   66.6624 H   0  0  0  0  0  0
   11.9506   41.1174   65.6753 H   0  0  0  0  0  0
    8.1365   38.4074   66.5729 H   0  0  0  0  0  0
    7.3431   36.5255   67.9399 H   0  0  0  0  0  0
    7.3821   36.6237   70.3829 H   0  0  0  0  0  0
    8.1260   38.7000   71.5159 H   0  0  0  0  0  0
    8.8437   40.6159   70.1577 H   0  0  0  0  0  0
   21.3399   41.4463   71.0020 H   0  0  0  0  0  0
   21.7392   43.1134   71.4242 H   0  0  0  0  0  0
   22.1031   42.4949   69.8046 H   0  0  0  0  0  0
  1  2  2  0  0  0
  1  4  1  0  0  0
  1 13  1  0  0  0
  2  3  1  0  0  0
  2 31  1  0  0  0
  3  6  2  0  0  0
  3 32  1  0  0  0
  4  5  2  0  0  0
  4 33  1  0  0  0
  5  6  1  0  0  0
  5  9  1  0  0  0
  6  7  1  0  0  0
  7  8  1  0  0  0
  7 34  1  0  0  0
  8  9  2  0  0  0
  8 35  1  0  0  0
  9 10  1  0  0  0
 10 11  1  0  0  0
 10 36  1  0  0  0
 10 37  1  0  0  0
 11 12  1  0  0  0
 11 38  1  0  0  0
 11 39  1  0  0  0
 12 27  1  0  0  0
 12 40  1  0  0  0
 13 14  1  0  0  0
 14 15  1  0  0  0
 14 41  1  0  0  0
 14 42  1  0  0  0
 15 16  2  0  0  0
 15 20  1  0  0  0
 16 17  1  0  0  0
 16 43  1  0  0  0
 17 18  2  0  0  0
 17 44  1  0  0  0
 18 19  1  0  0  0
 18 21  1  0  0  0
 19 20  2  0  0  0
 19 45  1  0  0  0
 20 46  1  0  0  0
 21 22  2  0  0  0
 21 26  1  0  0  0
 22 23  1  0  0  0
 22 47  1  0  0  0
 23 24  2  0  0  0
 23 48  1  0  0  0
 24 25  1  0  0  0
 24 49  1  0  0  0
 25 26  2  0  0  0
 25 50  1  0  0  0
 26 51  1  0  0  0
 27 28  2  0  0  0
 27 29  1  0  0  0
 29 30  1  0  0  0
 30 52  1  0  0  0
 30 53  1  0  0  0
 30 54  1  0  0  0
M  END
> <s_m_entry_id>
6845

> <s_m_entry_name>
dock_pv.275

> <s_m_Source_Path>
/home/csk/Desktop/cluster/DUD-E-result/lkha4

> <s_m_Source_File>
dock_pv.maegz

> <i_m_Source_File_Index>
275

> <chembl_id>
CHEMBL2316062

> <chembl_pref_name>
None

> <i_lp_mmshare_version>
53161

> <i_f3d_flags>
0

> <r_lp_tautomer_probability>
1

> <s_lp_Force_Field>
OPLS_2005

> <r_lp_Energy>
22.321589

> <b_lp_Chiralities_Consistent>
1

> <s_lp_Variant>
CHEMBL4618_lig421-1

> <s_i_glide_gridfile>
glide-grid_3chp

> <i_i_glide_lignum>
488

> <i_i_glide_rotatable_bonds>
9

> <r_i_docking_score>
-9.02371085139545

> <r_i_glide_ligand_efficiency>
-0.300790361713182

> <r_i_glide_ligand_efficiency_sa>
-0.934625588333201

> <r_i_glide_ligand_efficiency_ln>
-2.05028542664168

> <r_i_glide_gscore>
-9.02371085139545

> <r_i_glide_lipo>
-4.63071055398165

> <r_i_glide_hbond>
-0.16

> <r_i_glide_metal>
0

> <r_i_glide_rewards>
-1.53397099935039

> <r_i_glide_evdw>
-47.2466430664062

> <r_i_glide_ecoul>
-7.65330982208252

> <r_i_glide_erotb>
0.977932091299176

> <r_i_glide_esite>
-0.166632762729893

> <r_i_glide_emodel>
-71.5621681005558

> <r_i_glide_energy>
-54.8999528884888

> <r_i_glide_einternal>
7.15572738647461

> <i_i_glide_confnum>
62

> <i_i_glide_posenum>
288

> <r_i_glide_eff_state_penalty>
0

> <s_user_duplicate_titles>
CHEMBL4618_lig421

> <s_m_subgroup_title>
dock_pv

> <s_m_subgroupid>
dock_pv

> <b_m_subgroup_collapsed>
1

$$$$
CHEMBL4618_lig159
                    3D
 Schrodinger Suite 2021-1.
 51 52  0  0  1  0            999 V2000
   16.1615   42.3662   64.9523 C   0  0  0  0  0  0
   14.9607   42.1703   64.0444 C   0  0  0  0  0  0
    9.8452   34.6822   72.6874 N   0  0  0  0  0  0
   16.9210   41.4160   65.1400 O   0  0  0  0  0  0
   13.6359   42.0028   64.7985 C   0  0  0  0  0  0
   13.0903   43.2634   65.3036 N   0  0  2  0  0  0
    8.0214   38.0209   69.6313 C   0  0  0  0  0  0
    7.5768   37.0040   70.6737 C   0  0  0  0  0  0
    8.7037   39.9387   67.7163 C   0  0  0  0  0  0
   16.2354   43.5770   65.5400 O   0  0  0  0  0  0
    8.6180   36.5293   71.6868 C   0  0  0  0  0  0
    8.1210   37.6643   68.2883 C   0  0  0  0  0  0
    8.2237   39.3458   69.9951 C   0  0  0  0  0  0
    8.4858   38.6160   67.3375 C   0  0  0  0  0  0
    8.5210   40.3115   69.0472 C   0  0  0  0  0  0
   10.8566   42.1965   65.9269 C   0  0  0  0  0  0
    9.0835   40.8273   66.7400 O   0  0  0  0  0  0
    8.9567   35.1750   71.7885 C   0  0  0  0  0  0
   12.0726   43.0552   66.3356 C   0  0  0  0  0  0
   10.4040   35.5538   73.5587 C   0  0  0  0  0  0
    9.9111   41.9279   67.0994 C   0  0  0  0  0  0
   12.5901   44.1054   64.2204 C   0  0  0  0  0  0
   17.3128   43.8864   66.4093 C   0  0  0  0  0  0
    9.2114   37.4066   72.5994 C   0  0  0  0  0  0
   10.1210   36.9188   73.5400 C   0  0  0  0  0  0
   14.9219   42.9315   63.2663 H   0  0  0  0  0  0
   15.1365   41.2256   63.5400 H   0  0  0  0  0  0
   12.9210   41.5648   64.1085 H   0  0  0  0  0  0
   13.7527   41.2720   65.6024 H   0  0  0  0  0  0
    6.7277   37.4161   71.2214 H   0  0  0  0  0  0
    7.1958   36.1382   70.1344 H   0  0  0  0  0  0
    7.9471   36.6449   67.9801 H   0  0  0  0  0  0
    8.1210   39.6412   71.0240 H   0  0  0  0  0  0
    8.6065   38.3273   66.3039 H   0  0  0  0  0  0
    8.6374   41.3385   69.3578 H   0  0  0  0  0  0
   10.2848   42.6862   65.1400 H   0  0  0  0  0  0
   11.1957   41.2360   65.5400 H   0  0  0  0  0  0
    8.5210   34.4361   71.1400 H   0  0  0  0  0  0
   12.5623   42.6160   67.2021 H   0  0  0  0  0  0
   11.7213   44.0189   66.6961 H   0  0  0  0  0  0
   11.0925   35.1376   74.2800 H   0  0  0  0  0  0
   10.5210   41.6870   67.9659 H   0  0  0  0  0  0
    9.3076   42.8042   67.3419 H   0  0  0  0  0  0
   12.1584   45.0160   64.6259 H   0  0  0  0  0  0
   13.3866   44.4030   63.5400 H   0  0  0  0  0  0
   11.8222   43.5975   63.6369 H   0  0  0  0  0  0
   17.2037   44.9044   66.7828 H   0  0  0  0  0  0
   18.2681   43.8162   65.8860 H   0  0  0  0  0  0
   17.3346   43.2109   67.2660 H   0  0  0  0  0  0
    8.9534   38.4528   72.6064 H   0  0  0  0  0  0
   10.5823   37.5804   74.2568 H   0  0  0  0  0  0
  1  2  1  0  0  0
  1  4  2  0  0  0
  1 10  1  0  0  0
  2  5  1  0  0  0
  2 26  1  0  0  0
  2 27  1  0  0  0
  3 18  2  0  0  0
  3 20  1  0  0  0
  5  6  1  0  0  0
  5 28  1  0  0  0
  5 29  1  0  0  0
  6 19  1  0  0  0
  6 22  1  0  0  0
  7 13  2  0  0  0
  7  8  1  0  0  0
  7 12  1  0  0  0
  8 11  1  0  0  0
  8 30  1  0  0  0
  8 31  1  0  0  0
  9 17  1  0  0  0
  9 14  1  0  0  0
  9 15  2  0  0  0
 10 23  1  0  0  0
 11 18  1  0  0  0
 11 24  2  0  0  0
 12 14  2  0  0  0
 12 32  1  0  0  0
 13 15  1  0  0  0
 13 33  1  0  0  0
 14 34  1  0  0  0
 15 35  1  0  0  0
 16 19  1  0  0  0
 16 21  1  0  0  0
 16 36  1  0  0  0
 16 37  1  0  0  0
 17 21  1  0  0  0
 18 38  1  0  0  0
 19 39  1  0  0  0
 19 40  1  0  0  0
 20 25  2  0  0  0
 20 41  1  0  0  0
 21 42  1  0  0  0
 21 43  1  0  0  0
 22 44  1  0  0  0
 22 45  1  0  0  0
 22 46  1  0  0  0
 23 47  1  0  0  0
 23 48  1  0  0  0
 23 49  1  0  0  0
 24 25  1  0  0  0
 24 50  1  0  0  0
 25 51  1  0  0  0
M  END
> <s_m_entry_id>
6846

> <s_m_entry_name>
dock_pv.276

> <s_m_Source_Path>
/home/csk/Desktop/cluster/DUD-E-result/lkha4

> <s_m_Source_File>
dock_pv.maegz

> <i_m_Source_File_Index>
276

> <chembl_id>
CHEMBL119124

> <chembl_pref_name>
None

> <i_lp_mmshare_version>
53161

> <i_f3d_flags>
0

> <r_lp_tautomer_probability>
1

> <s_lp_Force_Field>
OPLS_2005

> <r_lp_Energy>
18.771653

> <b_lp_Chiralities_Consistent>
1

> <s_lp_Variant>
CHEMBL4618_lig159-1

> <s_i_glide_gridfile>
glide-grid_3chp

> <i_i_glide_lignum>
185

> <i_i_glide_rotatable_bonds>
11

> <r_i_docking_score>
-9.02160575212636

> <r_i_glide_ligand_efficiency>
-0.360864230085054

> <r_i_glide_ligand_efficiency_sa>
-1.05517340872307

> <r_i_glide_ligand_efficiency_ln>
-2.13839091896197

> <r_i_glide_gscore>
-9.02160575212636

> <r_i_glide_lipo>
-5.03902250211358

> <r_i_glide_hbond>
-0.32

> <r_i_glide_metal>
0

> <r_i_glide_rewards>
-1.83386104741306

> <r_i_glide_evdw>
-46.4625205993652

> <r_i_glide_ecoul>
-6.8181791305542

> <r_i_glide_erotb>
1.61713069695167

> <r_i_glide_esite>
-0.1

> <r_i_glide_emodel>
-75.6412403934812

> <r_i_glide_energy>
-53.2806997299194

> <r_i_glide_einternal>
12.2660255432129

> <i_i_glide_confnum>
8

> <i_i_glide_posenum>
79

> <r_i_glide_eff_state_penalty>
0

> <s_user_duplicate_titles>
CHEMBL4618_lig159,193155

> <s_m_subgroup_title>
dock_pv

> <s_m_subgroupid>
dock_pv

> <b_m_subgroup_collapsed>
1

$$$$
CHEMBL4618_lig515 
                    3D
 Schrodinger Suite 2021-1.
 37 39  0  0  1  0            999 V2000
    8.0857   37.7672   68.7664 C   0  0  0  0  0  0
    8.5213   38.9926   69.2569 C   0  0  0  0  0  0
    8.9210   39.0985   70.5838 C   0  0  0  0  0  0
    8.9139   38.0030   71.4272 C   0  0  0  0  0  0
    8.4867   36.7669   70.9490 C   0  0  0  0  0  0
    8.0607   36.6648   69.6189 C   0  0  0  0  0  0
    8.4804   35.5291   71.8447 C   0  0  0  0  0  0
    9.5310   35.4030   72.9516 C   0  0  0  0  0  0
    9.4360   36.2154   74.0892 C   0  0  0  0  0  0
   10.3110   36.0509   75.1593 C   0  0  0  0  0  0
   11.2420   35.0160   75.1398 C   0  0  0  0  0  0
   11.3213   34.1759   74.0326 C   0  0  0  0  0  0
   10.4853   34.3700   72.9311 C   0  0  0  0  0  0
    8.6369   40.2080   68.4191 C   0  0  0  0  0  0
    9.6103   40.2905   67.5271 N   0  0  0  0  0  0
    9.7172   41.4927   67.0265 C   0  0  0  0  0  0
    8.5206   42.6160   67.5547 S   0  0  0  0  0  0
    7.8789   41.3690   68.5706 C   0  0  0  0  0  0
   10.7048   41.9026   66.1836 N   0  0  0  0  0  0
   10.6354   33.5609   71.8312 O   0  0  0  0  0  0
   10.1217   32.2422   71.9368 C   0  0  0  0  0  0
    7.7787   37.6685   67.7352 H   0  0  0  0  0  0
    9.2591   40.0416   70.9617 H   0  0  0  0  0  0
    9.2512   38.1468   72.4390 H   0  0  0  0  0  0
    7.7211   35.7252   69.2233 H   0  0  0  0  0  0
    8.5118   34.6382   71.2177 H   0  0  0  0  0  0
    7.5138   35.5049   72.3401 H   0  0  0  0  0  0
    8.6717   36.9747   74.1592 H   0  0  0  0  0  0
   10.2324   36.6924   76.0254 H   0  0  0  0  0  0
   11.8970   34.8586   75.9825 H   0  0  0  0  0  0
   12.0452   33.3739   74.0229 H   0  0  0  0  0  0
    7.0464   41.5638   69.2314 H   0  0  0  0  0  0
   11.3924   41.2535   65.8293 H   0  0  0  0  0  0
   10.8186   42.8750   65.9394 H   0  0  0  0  0  0
   10.7234   31.5662   71.3301 H   0  0  0  0  0  0
   10.1194   31.8552   72.9561 H   0  0  0  0  0  0
    9.1075   32.2170   71.5394 H   0  0  0  0  0  0
  1  2  2  0  0  0
  1  6  1  0  0  0
  1 22  1  0  0  0
  2  3  1  0  0  0
  2 14  1  0  0  0
  3  4  2  0  0  0
  3 23  1  0  0  0
  4  5  1  0  0  0
  4 24  1  0  0  0
  5  6  2  0  0  0
  5  7  1  0  0  0
  6 25  1  0  0  0
  7  8  1  0  0  0
  7 26  1  0  0  0
  7 27  1  0  0  0
  8  9  2  0  0  0
  8 13  1  0  0  0
  9 10  1  0  0  0
  9 28  1  0  0  0
 10 11  2  0  0  0
 10 29  1  0  0  0
 11 12  1  0  0  0
 11 30  1  0  0  0
 12 13  2  0  0  0
 12 31  1  0  0  0
 13 20  1  0  0  0
 14 15  1  0  0  0
 14 18  2  0  0  0
 15 16  2  0  0  0
 16 17  1  0  0  0
 16 19  1  0  0  0
 17 18  1  0  0  0
 18 32  1  0  0  0
 19 33  1  0  0  0
 19 34  1  0  0  0
 20 21  1  0  0  0
 21 35  1  0  0  0
 21 36  1  0  0  0
 21 37  1  0  0  0
M  END
> <s_m_entry_id>
6847

> <s_m_entry_name>
dock_pv.277

> <s_m_Source_Path>
/home/csk/Desktop/cluster/DUD-E-result/lkha4

> <s_m_Source_File>
dock_pv.maegz

> <i_m_Source_File_Index>
277

> <chembl_id>
CHEMBL4534106

> <chembl_pref_name>
None

> <i_lp_mmshare_version>
53161

> <i_f3d_flags>
0

> <r_lp_tautomer_probability>
1

> <s_lp_Force_Field>
OPLS_2005

> <r_lp_Energy>
15.457433

> <b_lp_Chiralities_Consistent>
1

> <s_lp_Variant>
CHEMBL4618_lig515 -1

> <s_i_glide_gridfile>
glide-grid_3chp

> <i_i_glide_lignum>
615

> <i_i_glide_rotatable_bonds>
4

> <r_i_docking_score>
-9.01605783064204

> <r_i_glide_ligand_efficiency>
-0.429336087173431

> <r_i_glide_ligand_efficiency_sa>
-1.18450570949357

> <r_i_glide_ligand_efficiency_ln>
-2.22920207996596

> <r_i_glide_gscore>
-9.01605783064204

> <r_i_glide_lipo>
-4.63429512370831

> <r_i_glide_hbond>
0

> <r_i_glide_metal>
0

> <r_i_glide_rewards>
-2.28826540909091

> <r_i_glide_evdw>
-45.0399627685547

> <r_i_glide_ecoul>
-3.11409187316895

> <r_i_glide_erotb>
0.625614621560251

> <r_i_glide_esite>
0

> <r_i_glide_emodel>
-60.6266179348692

> <r_i_glide_energy>
-48.1540546417236

> <r_i_glide_einternal>
15.2008533477783

> <i_i_glide_confnum>
2

> <i_i_glide_posenum>
277

> <r_i_glide_eff_state_penalty>
0

> <s_user_duplicate_titles>
CHEMBL4618_lig515 

> <s_m_subgroup_title>
dock_pv

> <s_m_subgroupid>
dock_pv

> <b_m_subgroup_collapsed>
1

$$$$
CHEMBL4618_lig95
                    3D
 Schrodinger Suite 2021-1.
 43 45  0  0  1  0            999 V2000
   11.0247   42.7035   65.5883 N   0  0  0  0  0  0
    9.8411   34.6181   72.6950 N   0  0  0  0  0  0
    8.0984   38.0277   69.6275 C   0  0  0  0  0  0
    7.6477   36.9815   70.6420 C   0  0  0  0  0  0
    8.6768   40.0398   67.7537 C   0  0  0  0  0  0
    8.6613   36.4885   71.6770 C   0  0  0  0  0  0
    8.2619   39.3445   70.0287 C   0  0  0  0  0  0
    8.2086   37.7195   68.2735 C   0  0  0  0  0  0
    8.5210   38.7145   67.3459 C   0  0  0  0  0  0
    8.5209   40.3495   69.1091 C   0  0  0  0  0  0
    8.9632   40.9743   66.7778 O   0  0  0  0  0  0
    9.6990   43.1802   65.9984 C   0  0  0  0  0  0
    9.0629   42.3552   67.1338 C   0  0  0  0  0  0
    8.9721   35.1279   71.7859 C   0  0  0  0  0  0
   12.0006   42.5690   66.6555 C   0  0  0  0  0  0
   11.7004   43.5532   64.6218 C   0  0  0  0  0  0
   10.3922   35.4765   73.5836 C   0  0  0  0  0  0
    9.2474   37.3512   72.6080 C   0  0  0  0  0  0
   13.3480   42.3994   65.9531 C   0  0  0  0  0  0
   13.1485   43.0619   64.5872 C   0  0  0  0  0  0
   10.1217   36.8436   73.5716 C   0  0  0  0  0  0
    6.7946   37.4011   71.1795 H   0  0  0  0  0  0
    7.2699   36.1236   70.0874 H   0  0  0  0  0  0
    8.1245   39.5993   71.0650 H   0  0  0  0  0  0
    8.0651   36.7036   67.9405 H   0  0  0  0  0  0
    8.6300   38.4617   66.3010 H   0  0  0  0  0  0
    8.5856   41.3606   69.4762 H   0  0  0  0  0  0
    9.7603   44.2160   66.3231 H   0  0  0  0  0  0
    9.0308   43.1640   65.1401 H   0  0  0  0  0  0
    9.6645   42.5038   68.0307 H   0  0  0  0  0  0
    8.0661   42.7428   67.3516 H   0  0  0  0  0  0
    8.5212   34.3958   71.1401 H   0  0  0  0  0  0
   11.7219   41.6899   67.2355 H   0  0  0  0  0  0
   11.9818   43.4123   67.3491 H   0  0  0  0  0  0
   11.6284   44.6119   64.8772 H   0  0  0  0  0  0
   11.2026   43.4413   63.6588 H   0  0  0  0  0  0
   11.0597   35.0472   74.3169 H   0  0  0  0  0  0
    9.0069   38.4011   72.6154 H   0  0  0  0  0  0
   13.6000   41.3426   65.8501 H   0  0  0  0  0  0
   14.1433   42.8790   66.5236 H   0  0  0  0  0  0
   13.8385   43.8922   64.4316 H   0  0  0  0  0  0
   13.3065   42.3544   63.7711 H   0  0  0  0  0  0
   10.5687   37.4928   74.3083 H   0  0  0  0  0  0
  1 12  1  0  0  0
  1 15  1  0  0  0
  1 16  1  0  0  0
  2 14  2  0  0  0
  2 17  1  0  0  0
  3  7  1  0  0  0
  3  4  1  0  0  0
  3  8  2  0  0  0
  4  6  1  0  0  0
  4 22  1  0  0  0
  4 23  1  0  0  0
  5 11  1  0  0  0
  5  9  2  0  0  0
  5 10  1  0  0  0
  6 14  1  0  0  0
  6 18  2  0  0  0
  7 10  2  0  0  0
  7 24  1  0  0  0
  8  9  1  0  0  0
  8 25  1  0  0  0
  9 26  1  0  0  0
 10 27  1  0  0  0
 11 13  1  0  0  0
 12 13  1  0  0  0
 12 28  1  0  0  0
 12 29  1  0  0  0
 13 30  1  0  0  0
 13 31  1  0  0  0
 14 32  1  0  0  0
 15 19  1  0  0  0
 15 33  1  0  0  0
 15 34  1  0  0  0
 16 20  1  0  0  0
 16 35  1  0  0  0
 16 36  1  0  0  0
 17 21  2  0  0  0
 17 37  1  0  0  0
 18 21  1  0  0  0
 18 38  1  0  0  0
 19 20  1  0  0  0
 19 39  1  0  0  0
 19 40  1  0  0  0
 20 41  1  0  0  0
 20 42  1  0  0  0
 21 43  1  0  0  0
M  END
> <s_m_entry_id>
6848

> <s_m_entry_name>
dock_pv.278

> <s_m_Source_Path>
/home/csk/Desktop/cluster/DUD-E-result/lkha4

> <s_m_Source_File>
dock_pv.maegz

> <i_m_Source_File_Index>
278

> <chembl_id>
CHEMBL163265

> <chembl_pref_name>
None

> <i_lp_mmshare_version>
53161

> <i_f3d_flags>
0

> <r_lp_tautomer_probability>
1

> <s_lp_Force_Field>
OPLS_2005

> <r_lp_Energy>
33.08119

> <b_lp_Chiralities_Consistent>
1

> <s_lp_Variant>
CHEMBL4618_lig95-1

> <s_i_glide_gridfile>
glide-grid_3chp

> <i_i_glide_lignum>
118

> <i_i_glide_rotatable_bonds>
6

> <r_i_docking_score>
-9.01275267677099

> <r_i_glide_ligand_efficiency>
-0.429178698893857

> <r_i_glide_ligand_efficiency_sa>
-1.18407148716441

> <r_i_glide_ligand_efficiency_ln>
-2.22838488735003

> <r_i_glide_gscore>
-9.01275267677099

> <r_i_glide_lipo>
-5.43008070716948

> <r_i_glide_hbond>
0

> <r_i_glide_metal>
0

> <r_i_glide_rewards>
-2.38375752033737

> <r_i_glide_evdw>
-39.6429405212402

> <r_i_glide_ecoul>
-2.34182238578796

> <r_i_glide_erotb>
1.13450593466607

> <r_i_glide_esite>
0

> <r_i_glide_emodel>
-61.9247308764898

> <r_i_glide_energy>
-41.9847629070282

> <r_i_glide_einternal>
2.70714688301086

> <i_i_glide_confnum>
86

> <i_i_glide_posenum>
74

> <r_i_glide_eff_state_penalty>
0

> <s_user_duplicate_titles>
CHEMBL4618_lig95,271027

> <s_m_subgroup_title>
dock_pv

> <s_m_subgroupid>
dock_pv

> <b_m_subgroup_collapsed>
1

$$$$
CHEMBL4618_lig452
                    3D
 Schrodinger Suite 2021-1.
 45 49  0  0  1  0            999 V2000
    7.7568   38.1093   68.7355 O   0  0  0  0  0  0
    8.9211   38.6160   71.1400 S   0  0  0  0  0  0
    8.1807   37.5826   69.9428 C   0  0  0  0  0  0
    8.1209   36.3187   70.2636 N   0  0  0  0  0  0
    8.7782   36.0638   71.4338 C   0  0  0  0  0  0
    9.3242   37.2003   72.0796 C   0  0  0  0  0  0
    8.9591   34.8252   71.9020 N   0  0  0  0  0  0
    9.7274   34.6914   73.0166 C   0  0  0  0  0  0
   10.2740   35.7570   73.7257 C   0  0  0  0  0  0
   10.0766   37.0518   73.2537 C   0  0  0  0  0  0
    7.8746   41.8011   68.3173 C   0  0  0  0  0  0
    7.4954   40.5235   68.7401 C   0  0  0  0  0  0
    8.1601   39.3677   68.3241 C   0  0  0  0  0  0
    9.2520   39.4756   67.4661 C   0  0  0  0  0  0
    9.6502   42.9806   66.7899 C   0  0  0  0  0  0
    8.9869   41.9222   67.4734 C   0  0  0  0  0  0
    9.6862   40.7582   67.0994 C   0  0  0  0  0  0
   10.7832   41.0768   66.3396 O   0  0  0  0  0  0
   10.7731   42.4401   66.1830 C   0  0  0  0  0  0
   11.8148   43.1027   65.2840 C   0  0  0  0  0  0
   13.2132   42.6644   65.4568 N   0  0  0  0  0  0
   14.1257   43.8009   65.2342 C   0  0  0  0  0  0
   15.6144   43.4071   65.3569 C   0  0  0  0  0  0
   15.9843   42.2726   64.3929 C   0  0  0  0  0  0
   15.0004   41.1158   64.5808 C   0  0  0  0  0  0
   13.5282   41.5635   64.5280 C   0  0  0  0  0  0
    9.8801   33.6815   73.3657 H   0  0  0  0  0  0
   10.8553   35.5797   74.6185 H   0  0  0  0  0  0
   10.5196   37.8979   73.7588 H   0  0  0  0  0  0
    7.3210   42.6740   68.6288 H   0  0  0  0  0  0
    6.6487   40.4167   69.3945 H   0  0  0  0  0  0
    9.7211   38.5801   67.1091 H   0  0  0  0  0  0
    9.3625   44.0204   66.7457 H   0  0  0  0  0  0
   11.7520   44.1721   65.4964 H   0  0  0  0  0  0
   11.5150   43.0189   64.2395 H   0  0  0  0  0  0
   13.9058   44.6005   65.9401 H   0  0  0  0  0  0
   13.9285   44.2157   64.2455 H   0  0  0  0  0  0
   15.8403   43.1459   66.3911 H   0  0  0  0  0  0
   16.2397   44.2728   65.1404 H   0  0  0  0  0  0
   15.9309   42.6208   63.3591 H   0  0  0  0  0  0
   17.0150   41.9559   64.5523 H   0  0  0  0  0  0
   15.1501   40.3779   63.7920 H   0  0  0  0  0  0
   15.1665   40.6161   65.5277 H   0  0  0  0  0  0
   12.8817   40.7114   64.7422 H   0  0  0  0  0  0
   13.3126   41.8755   63.5037 H   0  0  0  0  0  0
  1  3  1  0  0  0
  1 13  1  0  0  0
  2  3  1  0  0  0
  2  6  1  0  0  0
  3  4  2  0  0  0
  4  5  1  0  0  0
  5  6  1  0  0  0
  5  7  2  0  0  0
  6 10  2  0  0  0
  7  8  1  0  0  0
  8  9  2  0  0  0
  8 27  1  0  0  0
  9 10  1  0  0  0
  9 28  1  0  0  0
 10 29  1  0  0  0
 11 16  2  0  0  0
 11 12  1  0  0  0
 11 30  1  0  0  0
 12 13  2  0  0  0
 12 31  1  0  0  0
 13 14  1  0  0  0
 14 17  2  0  0  0
 14 32  1  0  0  0
 15 16  1  0  0  0
 15 19  2  0  0  0
 15 33  1  0  0  0
 16 17  1  0  0  0
 17 18  1  0  0  0
 18 19  1  0  0  0
 19 20  1  0  0  0
 20 21  1  0  0  0
 20 34  1  0  0  0
 20 35  1  0  0  0
 21 22  1  0  0  0
 21 26  1  0  0  0
 22 23  1  0  0  0
 22 36  1  0  0  0
 22 37  1  0  0  0
 23 24  1  0  0  0
 23 38  1  0  0  0
 23 39  1  0  0  0
 24 25  1  0  0  0
 24 40  1  0  0  0
 24 41  1  0  0  0
 25 26  1  0  0  0
 25 42  1  0  0  0
 25 43  1  0  0  0
 26 44  1  0  0  0
 26 45  1  0  0  0
M  END
> <s_m_entry_id>
6849

> <s_m_entry_name>
dock_pv.279

> <s_m_Source_Path>
/home/csk/Desktop/cluster/DUD-E-result/lkha4

> <s_m_Source_File>
dock_pv.maegz

> <i_m_Source_File_Index>
279

> <chembl_id>
CHEMBL2313562

> <chembl_pref_name>
None

> <i_lp_mmshare_version>
53161

> <i_f3d_flags>
0

> <r_lp_tautomer_probability>
1

> <s_lp_Force_Field>
OPLS_2005

> <r_lp_Energy>
23.856427

> <b_lp_Chiralities_Consistent>
1

> <s_lp_Variant>
CHEMBL4618_lig452-1

> <s_i_glide_gridfile>
glide-grid_3chp

> <i_i_glide_lignum>
528

> <i_i_glide_rotatable_bonds>
4

> <r_i_docking_score>
-9.00187600476356

> <r_i_glide_ligand_efficiency>
-0.346226000183214

> <r_i_glide_ligand_efficiency_sa>
-1.02569316320924

> <r_i_glide_ligand_efficiency_ln>
-2.11406104215436

> <r_i_glide_gscore>
-9.00187600476356

> <r_i_glide_lipo>
-4.98556625421225

> <r_i_glide_hbond>
0

> <r_i_glide_metal>
0

> <r_i_glide_rewards>
-1.817388

> <r_i_glide_evdw>
-47.9843788146973

> <r_i_glide_ecoul>
-2.50559711456299

> <r_i_glide_erotb>
0.576136757368001

> <r_i_glide_esite>
0

> <r_i_glide_emodel>
-71.8309598696933

> <r_i_glide_energy>
-50.4899759292603

> <r_i_glide_einternal>
3.46799087524414

> <i_i_glide_confnum>
1

> <i_i_glide_posenum>
234

> <r_i_glide_eff_state_penalty>
0

> <s_user_duplicate_titles>
CHEMBL4618_lig452

> <s_m_subgroup_title>
dock_pv

> <s_m_subgroupid>
dock_pv

> <b_m_subgroup_collapsed>
1

$$$$
CHEMBL4618_lig371
                    3D
 Schrodinger Suite 2021-1.
 56 59  0  0  1  0            999 V2000
    8.5170   36.0940   70.7407 C   0  0  0  0  0  0
    8.8886   36.7485   71.9027 C   0  0  0  0  0  0
    8.8858   38.1320   71.9406 C   0  0  0  0  0  0
    8.5212   38.8677   70.8181 C   0  0  0  0  0  0
    8.1318   38.2158   69.6492 C   0  0  0  0  0  0
    8.1209   36.8205   69.6177 C   0  0  0  0  0  0
    7.6672   39.0236   68.4441 C   0  0  0  0  0  0
    8.6157   40.1136   67.9633 C   0  0  0  0  0  0
    9.6147   39.8180   67.0401 C   0  0  0  0  0  0
   10.4995   40.8099   66.6196 C   0  0  0  0  0  0
   10.3602   42.1222   67.0791 C   0  0  0  0  0  0
    9.3211   42.4164   67.9608 C   0  0  0  0  0  0
    8.4489   41.4272   68.4007 C   0  0  0  0  0  0
   11.2183   43.1525   66.7398 O   0  0  0  0  0  0
   11.8950   43.1357   65.4810 C   0  0  0  0  0  0
   13.3422   42.5831   65.5657 C   0  0  2  0  0  0
   14.3895   43.7071   65.8171 C   0  0  0  0  0  0
   15.7596   43.1702   65.9400 N   0  0  1  0  0  0
   16.1014   42.4392   64.7096 C   0  0  0  0  0  0
   15.0744   41.3226   64.4565 C   0  0  0  0  0  0
   13.7211   41.8493   64.3562 N   0  0  1  0  0  0
   16.7039   44.2632   66.1937 C   0  0  0  0  0  0
   18.0564   43.7656   66.6882 C   0  0  0  0  0  0
   18.2175   43.4145   68.0313 C   0  0  0  0  0  0
   19.4335   42.8973   68.4731 C   0  0  0  0  0  0
   20.4774   42.7144   67.5677 C   0  0  0  0  0  0
   20.3183   43.0481   66.2245 C   0  0  0  0  0  0
   19.1051   43.5709   65.7848 C   0  0  0  0  0  0
    8.5209   35.0163   70.7313 H   0  0  0  0  0  0
    9.1736   36.1813   72.7771 H   0  0  0  0  0  0
    9.1622   38.6160   72.8599 H   0  0  0  0  0  0
    8.5209   39.9445   70.8654 H   0  0  0  0  0  0
    7.8160   36.2947   68.7251 H   0  0  0  0  0  0
    7.4155   38.3626   67.6123 H   0  0  0  0  0  0
    6.7425   39.5125   68.7397 H   0  0  0  0  0  0
    9.7203   38.8108   66.6656 H   0  0  0  0  0  0
   11.2938   40.5429   65.9390 H   0  0  0  0  0  0
    9.1888   43.4159   68.3249 H   0  0  0  0  0  0
    7.6561   41.6847   69.0899 H   0  0  0  0  0  0
   11.2895   42.6157   64.7413 H   0  0  0  0  0  0
   11.9195   44.1639   65.1163 H   0  0  0  0  0  0
   13.3607   41.8792   66.4004 H   0  0  0  0  0  0
   14.3447   44.4435   65.0120 H   0  0  0  0  0  0
   14.1365   44.2134   66.7467 H   0  0  0  0  0  0
   16.1565   43.0731   63.8322 H   0  0  0  0  0  0
   17.0913   41.9961   64.8130 H   0  0  0  0  0  0
   15.3026   40.7714   63.5402 H   0  0  0  0  0  0
   15.0958   40.6161   65.2793 H   0  0  0  0  0  0
   13.0887   41.0728   64.2411 H   0  0  0  0  0  0
   16.8332   44.8594   65.2883 H   0  0  0  0  0  0
   16.2971   44.9213   66.9638 H   0  0  0  0  0  0
   17.3973   43.5286   68.7268 H   0  0  0  0  0  0
   19.5586   42.6187   69.5090 H   0  0  0  0  0  0
   21.4153   42.2979   67.9056 H   0  0  0  0  0  0
   21.1253   42.8876   65.5237 H   0  0  0  0  0  0
   18.9771   43.8140   64.7402 H   0  0  0  0  0  0
  1  2  2  0  0  0
  1  6  1  0  0  0
  1 29  1  0  0  0
  2  3  1  0  0  0
  2 30  1  0  0  0
  3  4  2  0  0  0
  3 31  1  0  0  0
  4  5  1  0  0  0
  4 32  1  0  0  0
  5  7  1  0  0  0
  5  6  2  0  0  0
  6 33  1  0  0  0
  7  8  1  0  0  0
  7 34  1  0  0  0
  7 35  1  0  0  0
  8  9  2  0  0  0
  8 13  1  0  0  0
  9 10  1  0  0  0
  9 36  1  0  0  0
 10 11  2  0  0  0
 10 37  1  0  0  0
 11 14  1  0  0  0
 11 12  1  0  0  0
 12 13  2  0  0  0
 12 38  1  0  0  0
 13 39  1  0  0  0
 14 15  1  0  0  0
 15 16  1  0  0  0
 15 40  1  0  0  0
 15 41  1  0  0  0
 16 17  1  0  0  0
 16 21  1  0  0  0
 16 42  1  0  0  0
 17 18  1  0  0  0
 17 43  1  0  0  0
 17 44  1  0  0  0
 18 19  1  0  0  0
 18 22  1  0  0  0
 19 20  1  0  0  0
 19 45  1  0  0  0
 19 46  1  0  0  0
 20 21  1  0  0  0
 20 47  1  0  0  0
 20 48  1  0  0  0
 21 49  1  0  0  0
 22 23  1  0  0  0
 22 50  1  0  0  0
 22 51  1  0  0  0
 23 24  2  0  0  0
 23 28  1  0  0  0
 24 25  1  0  0  0
 24 52  1  0  0  0
 25 26  2  0  0  0
 25 53  1  0  0  0
 26 27  1  0  0  0
 26 54  1  0  0  0
 27 28  2  0  0  0
 27 55  1  0  0  0
 28 56  1  0  0  0
M  END
> <s_m_entry_id>
6850

> <s_m_entry_name>
dock_pv.280

> <s_m_Source_Path>
/home/csk/Desktop/cluster/DUD-E-result/lkha4

> <s_m_Source_File>
dock_pv.maegz

> <i_m_Source_File_Index>
280

> <chembl_id>
CHEMBL1098819

> <chembl_pref_name>
None

> <i_lp_mmshare_version>
53161

> <i_f3d_flags>
0

> <r_lp_tautomer_probability>
1

> <s_lp_Force_Field>
OPLS_2005

> <r_lp_Energy>
41.203808

> <b_lp_Chiralities_Consistent>
1

> <s_lp_Variant>
CHEMBL4618_lig371-1

> <s_i_glide_gridfile>
glide-grid_3chp

> <i_i_glide_lignum>
417

> <i_i_glide_rotatable_bonds>
7

> <r_i_docking_score>
-8.99287944575107

> <r_i_glide_ligand_efficiency>
-0.321174265919681

> <r_i_glide_ligand_efficiency_sa>
-0.975274232858694

> <r_i_glide_ligand_efficiency_ln>
-2.07582061849323

> <r_i_glide_gscore>
-8.99287944575107

> <r_i_glide_lipo>
-5.37641160289435

> <r_i_glide_hbond>
-0.144428982978583

> <r_i_glide_metal>
0

> <r_i_glide_rewards>
-1.6618435172786

> <r_i_glide_evdw>
-47.7161254882812

> <r_i_glide_ecoul>
-2.65849351882935

> <r_i_glide_erotb>
0.974384959638929

> <r_i_glide_esite>
0

> <r_i_glide_emodel>
-71.1322237648698

> <r_i_glide_energy>
-50.3746190071106

> <r_i_glide_einternal>
10.8540210723877

> <i_i_glide_confnum>
32

> <i_i_glide_posenum>
382

> <r_i_glide_eff_state_penalty>
0

> <s_user_duplicate_titles>
CHEMBL4618_lig371

> <s_m_subgroup_title>
dock_pv

> <s_m_subgroupid>
dock_pv

> <b_m_subgroup_collapsed>
1

$$$$
CHEMBL4618_lig240
                    3D
 Schrodinger Suite 2021-1.
 59 61  0  0  1  0            999 V2000
    8.1476   39.8720   68.5905 C   0  0  0  0  0  0
    7.9942   41.2508   68.7523 C   0  0  0  0  0  0
    8.7301   42.1372   67.9653 C   0  0  0  0  0  0
    9.6345   41.6402   67.0243 C   0  0  0  0  0  0
    9.7210   40.2572   66.8106 C   0  0  0  0  0  0
    8.9726   39.3792   67.5853 C   0  0  0  0  0  0
   10.4106   42.5545   66.2860 N   0  0  0  0  0  0
   11.7097   42.3913   65.9400 C   0  0  0  0  0  0
   12.2822   43.4159   64.9231 C   0  0  0  0  0  0
   12.3917   41.4456   66.3400 O   0  0  0  0  0  0
   13.7423   43.4312   64.8337 N   0  0  1  0  0  0
    7.4739   38.9918   69.4048 O   0  0  0  0  0  0
    8.1086   38.3474   70.4534 C   0  0  0  0  0  0
    9.4716   38.4665   70.7400 C   0  0  0  0  0  0
   10.0365   37.8160   71.8352 C   0  0  0  0  0  0
    9.2498   37.0101   72.6395 C   0  0  0  0  0  0
    7.9034   36.8574   72.3487 C   0  0  0  0  0  0
    7.3305   37.5328   71.2708 C   0  0  0  0  0  0
   14.3581   42.2838   64.1679 C   0  0  0  0  0  0
   15.8949   42.4172   64.0753 C   0  0  0  0  0  0
   16.6093   43.0512   65.2914 C   0  0  0  0  0  0
   18.0463   42.8688   65.1400 N   0  0  2  0  0  0
   18.8492   43.7428   65.9913 C   0  0  0  0  0  0
   19.4076   43.0146   67.2047 C   0  0  0  0  0  0
   18.8632   43.2297   68.4715 C   0  0  0  0  0  0
   19.3842   42.5585   69.5759 C   0  0  0  0  0  0
   20.4464   41.6536   69.4261 C   0  0  0  0  0  0
   21.0013   41.4607   68.1515 C   0  0  0  0  0  0
   20.4860   42.1406   67.0510 C   0  0  0  0  0  0
   20.9514   40.8805   70.6240 C   0  0  0  0  0  0
   21.8344   39.8804   70.3400 O   0  0  0  0  0  0
   20.5721   41.1209   71.7690 O   0  0  0  0  0  0
    7.3210   41.6316   69.5070 H   0  0  0  0  0  0
    8.6149   43.2016   68.1153 H   0  0  0  0  0  0
   10.3833   39.8515   66.0587 H   0  0  0  0  0  0
    9.0684   38.3131   67.4369 H   0  0  0  0  0  0
    9.9498   43.4113   66.0209 H   0  0  0  0  0  0
   11.8452   43.2292   63.9415 H   0  0  0  0  0  0
   11.9473   44.4140   65.2041 H   0  0  0  0  0  0
   14.0539   44.2454   64.3149 H   0  0  0  0  0  0
   10.1210   39.0160   70.0872 H   0  0  0  0  0  0
   11.0852   37.9388   72.0486 H   0  0  0  0  0  0
    9.6834   36.4980   73.4864 H   0  0  0  0  0  0
    7.3210   36.2134   72.9805 H   0  0  0  0  0  0
    6.2790   37.4228   71.0586 H   0  0  0  0  0  0
   14.1205   41.3586   64.6909 H   0  0  0  0  0  0
   13.9485   42.2064   63.1587 H   0  0  0  0  0  0
   16.2994   41.4316   63.8514 H   0  0  0  0  0  0
   16.1366   43.0100   63.1922 H   0  0  0  0  0  0
   16.3532   44.1118   65.3264 H   0  0  0  0  0  0
   16.2699   42.6159   66.2291 H   0  0  0  0  0  0
   18.3103   43.0159   64.1562 H   0  0  0  0  0  0
   19.6962   44.0970   65.4010 H   0  0  0  0  0  0
   18.2986   44.6332   66.2997 H   0  0  0  0  0  0
   18.0264   43.9006   68.6012 H   0  0  0  0  0  0
   18.9310   42.7224   70.5441 H   0  0  0  0  0  0
   21.8239   40.7751   67.9926 H   0  0  0  0  0  0
   20.9130   41.9683   66.0726 H   0  0  0  0  0  0
   22.1212   39.4484   71.1629 H   0  0  0  0  0  0
  1 12  1  0  0  0
  1  6  1  0  0  0
  1  2  2  0  0  0
  2  3  1  0  0  0
  2 33  1  0  0  0
  3  4  2  0  0  0
  3 34  1  0  0  0
  4  5  1  0  0  0
  4  7  1  0  0  0
  5  6  2  0  0  0
  5 35  1  0  0  0
  6 36  1  0  0  0
  7  8  1  0  0  0
  7 37  1  0  0  0
  8  9  1  0  0  0
  8 10  2  0  0  0
  9 11  1  0  0  0
  9 38  1  0  0  0
  9 39  1  0  0  0
 11 19  1  0  0  0
 11 40  1  0  0  0
 12 13  1  0  0  0
 13 18  1  0  0  0
 13 14  2  0  0  0
 14 15  1  0  0  0
 14 41  1  0  0  0
 15 16  2  0  0  0
 15 42  1  0  0  0
 16 17  1  0  0  0
 16 43  1  0  0  0
 17 18  2  0  0  0
 17 44  1  0  0  0
 18 45  1  0  0  0
 19 20  1  0  0  0
 19 46  1  0  0  0
 19 47  1  0  0  0
 20 21  1  0  0  0
 20 48  1  0  0  0
 20 49  1  0  0  0
 21 22  1  0  0  0
 21 50  1  0  0  0
 21 51  1  0  0  0
 22 23  1  0  0  0
 22 52  1  0  0  0
 23 24  1  0  0  0
 23 53  1  0  0  0
 23 54  1  0  0  0
 24 25  2  0  0  0
 24 29  1  0  0  0
 25 26  1  0  0  0
 25 55  1  0  0  0
 26 27  2  0  0  0
 26 56  1  0  0  0
 27 28  1  0  0  0
 27 30  1  0  0  0
 28 29  2  0  0  0
 28 57  1  0  0  0
 29 58  1  0  0  0
 30 31  1  0  0  0
 30 32  2  0  0  0
 31 59  1  0  0  0
M  END
> <s_m_entry_id>
6851

> <s_m_entry_name>
dock_pv.281

> <s_m_Source_Path>
/home/csk/Desktop/cluster/DUD-E-result/lkha4

> <s_m_Source_File>
dock_pv.maegz

> <i_m_Source_File_Index>
281

> <chembl_id>
CHEMBL470934

> <chembl_pref_name>
None

> <i_lp_mmshare_version>
53161

> <i_f3d_flags>
0

> <r_lp_tautomer_probability>
1

> <s_lp_Force_Field>
OPLS_2005

> <r_lp_Energy>
32.114586

> <b_lp_Chiralities_Consistent>
1

> <s_lp_Variant>
CHEMBL4618_lig240-1

> <s_i_glide_gridfile>
glide-grid_3chp

> <i_i_glide_lignum>
275

> <i_i_glide_rotatable_bonds>
14

> <r_i_docking_score>
-8.99244418402964

> <r_i_glide_ligand_efficiency>
-0.281013880750926

> <r_i_glide_ligand_efficiency_sa>
-0.892163458812705

> <r_i_glide_ligand_efficiency_ln>
-2.01365337757478

> <r_i_glide_gscore>
-8.99244418402964

> <r_i_glide_lipo>
-4.67430416232395

> <r_i_glide_hbond>
-0.312057820092117

> <r_i_glide_metal>
0

> <r_i_glide_rewards>
-0.764202151500052

> <r_i_glide_evdw>
-59.8491630554199

> <r_i_glide_ecoul>
-10.8439273834229

> <r_i_glide_erotb>
1.3771672101709

> <r_i_glide_esite>
0

> <r_i_glide_emodel>
-103.733810713119

> <r_i_glide_energy>
-70.6930904388428

> <r_i_glide_einternal>
13.0625524520874

> <i_i_glide_confnum>
19

> <i_i_glide_posenum>
320

> <r_i_glide_eff_state_penalty>
0

> <s_user_duplicate_titles>
CHEMBL4618_lig240,466918

> <s_m_subgroup_title>
dock_pv

> <s_m_subgroupid>
dock_pv

> <b_m_subgroup_collapsed>
1

$$$$
CHEMBL4618_lig109
                    3D
 Schrodinger Suite 2021-1.
 43 45  0  0  1  0            999 V2000
    8.5207   40.1743   69.2517 N   0  0  0  0  0  0
   11.0904   42.9193   66.1918 N   0  0  0  0  0  0
    8.6083   39.8839   67.9283 C   0  0  0  0  0  0
    8.2634   39.1560   70.1078 C   0  0  0  0  0  0
    8.0831   37.8334   69.7143 C   0  0  0  0  0  0
    7.7209   36.7675   70.7473 C   0  0  0  0  0  0
    8.4127   38.5953   67.4413 C   0  0  0  0  0  0
    8.8723   40.8912   67.0261 O   0  0  0  0  0  0
    8.1217   37.5672   68.3400 C   0  0  0  0  0  0
    8.7699   36.3572   71.7892 C   0  0  0  0  0  0
    9.6305   43.0525   66.2968 C   0  0  0  0  0  0
    9.0126   42.2476   67.4585 C   0  0  0  0  0  0
   11.5982   41.5542   66.1375 C   0  0  0  0  0  0
   11.6216   43.5381   64.9861 C   0  0  0  0  0  0
    9.1209   35.0118   71.9309 C   0  0  0  0  0  0
    9.3133   37.2877   72.6773 C   0  0  0  0  0  0
   13.0301   42.9740   64.7987 C   0  0  0  0  0  0
   13.0273   41.6797   65.6131 C   0  0  0  0  0  0
   10.0136   34.5999   72.9147 C   0  0  0  0  0  0
   10.1930   36.8766   73.6732 C   0  0  0  0  0  0
   10.5210   35.5325   73.8061 C   0  0  0  0  0  0
    8.1228   39.4372   71.1376 H   0  0  0  0  0  0
    6.8761   37.1599   71.3098 H   0  0  0  0  0  0
    7.3521   35.8841   70.2228 H   0  0  0  0  0  0
    8.4791   38.3974   66.3817 H   0  0  0  0  0  0
    7.9533   36.5786   67.9427 H   0  0  0  0  0  0
    9.3737   44.1071   66.4111 H   0  0  0  0  0  0
    9.1653   42.7274   65.3659 H   0  0  0  0  0  0
    9.6398   42.3407   68.3463 H   0  0  0  0  0  0
    8.0271   42.6437   67.7079 H   0  0  0  0  0  0
   10.9772   40.8908   65.5400 H   0  0  0  0  0  0
   11.5704   41.1304   67.1406 H   0  0  0  0  0  0
   11.6394   44.6155   65.1357 H   0  0  0  0  0  0
   10.9908   43.3740   64.1110 H   0  0  0  0  0  0
    8.6913   34.2673   71.2772 H   0  0  0  0  0  0
    9.0414   38.3255   72.6388 H   0  0  0  0  0  0
   13.7811   43.6721   65.1709 H   0  0  0  0  0  0
   13.2431   42.7894   63.7434 H   0  0  0  0  0  0
   13.3101   40.8115   65.0159 H   0  0  0  0  0  0
   13.7197   41.7479   66.4487 H   0  0  0  0  0  0
   10.2734   33.5557   73.0127 H   0  0  0  0  0  0
   10.6096   37.6019   74.3516 H   0  0  0  0  0  0
   11.1939   35.2144   74.5897 H   0  0  0  0  0  0
  1  3  1  0  0  0
  1  4  2  0  0  0
  2 11  1  0  0  0
  2 13  1  0  0  0
  2 14  1  0  0  0
  3  7  2  0  0  0
  3  8  1  0  0  0
  4  5  1  0  0  0
  4 22  1  0  0  0
  5  6  1  0  0  0
  5  9  2  0  0  0
  6 10  1  0  0  0
  6 23  1  0  0  0
  6 24  1  0  0  0
  7  9  1  0  0  0
  7 25  1  0  0  0
  8 12  1  0  0  0
  9 26  1  0  0  0
 10 15  2  0  0  0
 10 16  1  0  0  0
 11 12  1  0  0  0
 11 27  1  0  0  0
 11 28  1  0  0  0
 12 29  1  0  0  0
 12 30  1  0  0  0
 13 18  1  0  0  0
 13 31  1  0  0  0
 13 32  1  0  0  0
 14 17  1  0  0  0
 14 33  1  0  0  0
 14 34  1  0  0  0
 15 19  1  0  0  0
 15 35  1  0  0  0
 16 20  2  0  0  0
 16 36  1  0  0  0
 17 18  1  0  0  0
 17 37  1  0  0  0
 17 38  1  0  0  0
 18 39  1  0  0  0
 18 40  1  0  0  0
 19 21  2  0  0  0
 19 41  1  0  0  0
 20 21  1  0  0  0
 20 42  1  0  0  0
 21 43  1  0  0  0
M  END
> <s_m_entry_id>
6852

> <s_m_entry_name>
dock_pv.282

> <s_m_Source_Path>
/home/csk/Desktop/cluster/DUD-E-result/lkha4

> <s_m_Source_File>
dock_pv.maegz

> <i_m_Source_File_Index>
282

> <chembl_id>
CHEMBL163178

> <chembl_pref_name>
None

> <i_lp_mmshare_version>
53161

> <i_f3d_flags>
0

> <r_lp_tautomer_probability>
1

> <s_lp_Force_Field>
OPLS_2005

> <r_lp_Energy>
30.303913

> <b_lp_Chiralities_Consistent>
1

> <s_lp_Variant>
CHEMBL4618_lig109-1

> <s_i_glide_gridfile>
glide-grid_3chp

> <i_i_glide_lignum>
135

> <i_i_glide_rotatable_bonds>
6

> <r_i_docking_score>
-8.99084022855813

> <r_i_glide_ligand_efficiency>
-0.428135248978958

> <r_i_glide_ligand_efficiency_sa>
-1.18119268797028

> <r_i_glide_ligand_efficiency_ln>
-2.22296707880767

> <r_i_glide_gscore>
-8.99084022855813

> <r_i_glide_lipo>
-5.45179070064488

> <r_i_glide_hbond>
0

> <r_i_glide_metal>
0

> <r_i_glide_rewards>
-2.3587585975929

> <r_i_glide_evdw>
-41.2016220092773

> <r_i_glide_ecoul>
-1.69810509681702

> <r_i_glide_erotb>
1.13450593466607

> <r_i_glide_esite>
0

> <r_i_glide_emodel>
-68.7500778470768

> <r_i_glide_energy>
-42.8997271060944

> <r_i_glide_einternal>
2.66626763343811

> <i_i_glide_confnum>
16

> <i_i_glide_posenum>
324

> <r_i_glide_eff_state_penalty>
0

> <s_user_duplicate_titles>
CHEMBL4618_lig109,272032

> <s_m_subgroup_title>
dock_pv

> <s_m_subgroupid>
dock_pv

> <b_m_subgroup_collapsed>
1

$$$$
CHEMBL4618_lig36
                    3D
 Schrodinger Suite 2021-1.
 49 50  0  0  1  0            999 V2000
   15.7141   41.7960   64.4325 C   0  0  0  0  0  0
   14.2818   41.3464   64.1248 C   0  0  0  0  0  0
   16.1142   42.2157   65.5157 O   0  0  0  0  0  0
   13.1950   41.7804   65.1227 C   0  0  0  0  0  0
   13.0577   43.2221   65.3192 N   0  0  2  0  0  0
    8.3199   38.5104   69.1075 C   0  0  0  0  0  0
    8.0023   37.2277   69.8898 C   0  0  0  0  0  0
   16.5213   41.4159   63.4143 O   0  0  0  0  0  0
    8.9164   40.8794   67.7059 C   0  0  0  0  0  0
    8.5927   38.4684   67.7392 C   0  0  0  0  0  0
    8.2848   39.7502   69.7333 C   0  0  0  0  0  0
    8.9211   39.6362   67.0482 C   0  0  0  0  0  0
    8.5212   40.9238   69.0325 C   0  0  0  0  0  0
    8.7899   36.8739   71.1666 C   0  0  0  0  0  0
   10.4921   43.4340   65.4889 C   0  0  0  0  0  0
    9.3172   42.0938   67.1777 O   0  0  0  0  0  0
   11.8928   43.5718   66.1293 C   0  0  0  0  0  0
    9.7208   42.1642   65.8229 C   0  0  0  0  0  0
   13.1623   44.0467   64.1134 C   0  0  0  0  0  0
    9.5895   37.7833   71.8674 C   0  0  0  0  0  0
    8.7111   35.5656   71.6480 C   0  0  0  0  0  0
    9.3951   35.1822   72.7946 C   0  0  0  0  0  0
   10.2227   37.4157   73.0519 C   0  0  0  0  0  0
   10.1208   36.1145   73.5189 C   0  0  0  0  0  0
   14.0334   41.8157   63.1738 H   0  0  0  0  0  0
   14.2280   40.2738   63.9392 H   0  0  0  0  0  0
   12.2605   41.3990   64.7409 H   0  0  0  0  0  0
   13.3287   41.2623   66.0745 H   0  0  0  0  0  0
    6.9483   37.2777   70.1677 H   0  0  0  0  0  0
    8.0805   36.3788   69.2074 H   0  0  0  0  0  0
   16.0253   41.3655   62.5744 H   0  0  0  0  0  0
    8.6141   37.5244   67.2164 H   0  0  0  0  0  0
    8.1209   39.8160   70.7927 H   0  0  0  0  0  0
    9.2072   39.5332   66.0145 H   0  0  0  0  0  0
    8.4916   41.8763   69.5390 H   0  0  0  0  0  0
    9.8709   44.2911   65.7373 H   0  0  0  0  0  0
   10.5790   43.4173   64.4048 H   0  0  0  0  0  0
   11.9422   43.0440   67.0838 H   0  0  0  0  0  0
   12.0388   44.6157   66.3400 H   0  0  0  0  0  0
    8.8191   42.2161   65.2198 H   0  0  0  0  0  0
   10.3116   41.2986   65.5397 H   0  0  0  0  0  0
   13.1138   45.1101   64.3422 H   0  0  0  0  0  0
   14.1180   43.8677   63.6284 H   0  0  0  0  0  0
   12.3865   43.8203   63.3874 H   0  0  0  0  0  0
    9.7494   38.7803   71.5104 H   0  0  0  0  0  0
    8.1212   34.8265   71.1401 H   0  0  0  0  0  0
    9.3254   34.1683   73.1502 H   0  0  0  0  0  0
   10.8163   38.1371   73.5938 H   0  0  0  0  0  0
   10.6243   35.8229   74.4298 H   0  0  0  0  0  0
  1  2  1  0  0  0
  1  3  2  0  0  0
  1  8  1  0  0  0
  2  4  1  0  0  0
  2 25  1  0  0  0
  2 26  1  0  0  0
  4  5  1  0  0  0
  4 27  1  0  0  0
  4 28  1  0  0  0
  5 17  1  0  0  0
  5 19  1  0  0  0
  6  7  1  0  0  0
  6 10  2  0  0  0
  6 11  1  0  0  0
  7 14  1  0  0  0
  7 29  1  0  0  0
  7 30  1  0  0  0
  8 31  1  0  0  0
  9 12  2  0  0  0
  9 13  1  0  0  0
  9 16  1  0  0  0
 10 12  1  0  0  0
 10 32  1  0  0  0
 11 13  2  0  0  0
 11 33  1  0  0  0
 12 34  1  0  0  0
 13 35  1  0  0  0
 14 20  1  0  0  0
 14 21  2  0  0  0
 15 17  1  0  0  0
 15 18  1  0  0  0
 15 36  1  0  0  0
 15 37  1  0  0  0
 16 18  1  0  0  0
 17 38  1  0  0  0
 17 39  1  0  0  0
 18 40  1  0  0  0
 18 41  1  0  0  0
 19 42  1  0  0  0
 19 43  1  0  0  0
 19 44  1  0  0  0
 20 23  2  0  0  0
 20 45  1  0  0  0
 21 22  1  0  0  0
 21 46  1  0  0  0
 22 24  2  0  0  0
 22 47  1  0  0  0
 23 24  1  0  0  0
 23 48  1  0  0  0
 24 49  1  0  0  0
M  END
> <s_m_entry_id>
6853

> <s_m_entry_name>
dock_pv.283

> <s_m_Source_Path>
/home/csk/Desktop/cluster/DUD-E-result/lkha4

> <s_m_Source_File>
dock_pv.maegz

> <i_m_Source_File_Index>
283

> <chembl_id>
CHEMBL112671

> <chembl_pref_name>
None

> <i_lp_mmshare_version>
53161

> <i_f3d_flags>
0

> <r_lp_tautomer_probability>
1

> <s_lp_Force_Field>
OPLS_2005

> <r_lp_Energy>
21.890783

> <b_lp_Chiralities_Consistent>
1

> <s_lp_Variant>
CHEMBL4618_lig36-1

> <s_i_glide_gridfile>
glide-grid_3chp

> <i_i_glide_lignum>
49

> <i_i_glide_rotatable_bonds>
11

> <r_i_docking_score>
-8.98825977220116

> <r_i_glide_ligand_efficiency>
-0.374510823841715

> <r_i_glide_ligand_efficiency_sa>
-1.08027614837798

> <r_i_glide_ligand_efficiency_ln>
-2.15130300785345

> <r_i_glide_gscore>
-8.98825977220116

> <r_i_glide_lipo>
-4.68389754662909

> <r_i_glide_hbond>
-0.304

> <r_i_glide_metal>
0

> <r_i_glide_rewards>
-2.07668663097536

> <r_i_glide_evdw>
-34.3347549438477

> <r_i_glide_ecoul>
-12.3842630386353

> <r_i_glide_erotb>
1.75070160839096

> <r_i_glide_esite>
-0.1

> <r_i_glide_emodel>
-61.0980637807806

> <r_i_glide_energy>
-46.7190179824829

> <r_i_glide_einternal>
7.0832953453064

> <i_i_glide_confnum>
151

> <i_i_glide_posenum>
112

> <r_i_glide_eff_state_penalty>
0

> <s_user_duplicate_titles>
CHEMBL4618_lig36,CHEMBL4618_lig137,546803

> <s_m_subgroup_title>
dock_pv

> <s_m_subgroupid>
dock_pv

> <b_m_subgroup_collapsed>
1

$$$$
CHEMBL4618_lig129
                    3D
 Schrodinger Suite 2021-1.
 39 41  0  0  1  0            999 V2000
    9.1090   40.8541   66.8342 O   0  0  0  0  0  0
   11.3068   42.7670   65.7594 N   0  0  0  0  0  0
   13.2891   41.7118   65.5387 N   0  0  0  0  0  0
    8.0943   37.9253   69.6529 C   0  0  0  0  0  0
    8.7197   39.9340   67.7904 C   0  0  0  0  0  0
    8.2496   39.2436   70.0574 C   0  0  0  0  0  0
    8.1834   37.6243   68.2945 C   0  0  0  0  0  0
    8.5211   40.2480   69.1395 C   0  0  0  0  0  0
    8.5213   38.6171   67.3742 C   0  0  0  0  0  0
    7.6917   36.8645   70.6730 C   0  0  0  0  0  0
    8.7266   36.3908   71.6958 C   0  0  0  0  0  0
    9.8953   43.0275   66.0458 C   0  0  0  0  0  0
    9.3335   42.2107   67.2227 C   0  0  0  0  0  0
   12.0465   41.6223   65.9519 C   0  0  0  0  0  0
   12.1856   43.6184   65.1408 C   0  0  0  0  0  0
   13.3825   42.9284   65.0345 C   0  0  0  0  0  0
    9.3162   37.2834   72.5929 C   0  0  0  0  0  0
    9.0215   35.0279   71.7988 C   0  0  0  0  0  0
   10.2079   36.8203   73.5552 C   0  0  0  0  0  0
    9.9392   34.5685   72.7403 C   0  0  0  0  0  0
   10.5200   35.4660   73.6272 C   0  0  0  0  0  0
    8.1216   39.5060   71.0941 H   0  0  0  0  0  0
    8.0321   36.6160   67.9407 H   0  0  0  0  0  0
    8.6104   41.2587   69.5054 H   0  0  0  0  0  0
    8.6464   38.3625   66.3315 H   0  0  0  0  0  0
    6.8465   37.2643   71.2331 H   0  0  0  0  0  0
    7.3207   35.9988   70.1255 H   0  0  0  0  0  0
    9.7970   44.0875   66.2789 H   0  0  0  0  0  0
    9.3194   42.8463   65.1410 H   0  0  0  0  0  0
   10.0173   42.2802   68.0714 H   0  0  0  0  0  0
    8.3809   42.6457   67.5322 H   0  0  0  0  0  0
   11.5865   40.7479   66.3878 H   0  0  0  0  0  0
   11.8956   44.6153   64.8470 H   0  0  0  0  0  0
   14.2962   43.2980   64.5886 H   0  0  0  0  0  0
    9.0687   38.3305   72.5768 H   0  0  0  0  0  0
    8.5356   34.3215   71.1422 H   0  0  0  0  0  0
   10.6525   37.5085   74.2574 H   0  0  0  0  0  0
   10.1706   33.5150   72.8066 H   0  0  0  0  0  0
   11.2109   35.1086   74.3767 H   0  0  0  0  0  0
  1  5  1  0  0  0
  1 13  1  0  0  0
  2 12  1  0  0  0
  2 14  1  0  0  0
  2 15  1  0  0  0
  3 14  2  0  0  0
  3 16  1  0  0  0
  4  6  2  0  0  0
  4  7  1  0  0  0
  4 10  1  0  0  0
  5  8  2  0  0  0
  5  9  1  0  0  0
  6  8  1  0  0  0
  6 22  1  0  0  0
  7  9  2  0  0  0
  7 23  1  0  0  0
  8 24  1  0  0  0
  9 25  1  0  0  0
 10 11  1  0  0  0
 10 26  1  0  0  0
 10 27  1  0  0  0
 11 17  2  0  0  0
 11 18  1  0  0  0
 12 13  1  0  0  0
 12 28  1  0  0  0
 12 29  1  0  0  0
 13 30  1  0  0  0
 13 31  1  0  0  0
 14 32  1  0  0  0
 15 16  2  0  0  0
 15 33  1  0  0  0
 16 34  1  0  0  0
 17 19  1  0  0  0
 17 35  1  0  0  0
 18 20  2  0  0  0
 18 36  1  0  0  0
 19 21  2  0  0  0
 19 37  1  0  0  0
 20 21  1  0  0  0
 20 38  1  0  0  0
 21 39  1  0  0  0
M  END
> <s_m_entry_id>
6855

> <s_m_entry_name>
dock_pv.285

> <s_m_Source_Path>
/home/csk/Desktop/cluster/DUD-E-result/lkha4

> <s_m_Source_File>
dock_pv.maegz

> <i_m_Source_File_Index>
285

> <chembl_id>
CHEMBL279643

> <chembl_pref_name>
None

> <i_lp_mmshare_version>
53161

> <i_f3d_flags>
0

> <r_lp_tautomer_probability>
1

> <s_lp_Force_Field>
OPLS_2005

> <r_lp_Energy>
16.232838

> <b_lp_Chiralities_Consistent>
1

> <s_lp_Variant>
CHEMBL4618_lig129-1

> <s_i_glide_gridfile>
glide-grid_3chp

> <i_i_glide_lignum>
155

> <i_i_glide_rotatable_bonds>
6

> <r_i_docking_score>
-8.9831784579984

> <r_i_glide_ligand_efficiency>
-0.427770402761829

> <r_i_glide_ligand_efficiency_sa>
-1.1801861049222

> <r_i_glide_ligand_efficiency_ln>
-2.22107272151885

> <r_i_glide_gscore>
-8.9831784579984

> <r_i_glide_lipo>
-5.28912868766549

> <r_i_glide_hbond>
0

> <r_i_glide_metal>
0

> <r_i_glide_rewards>
-2.41126144646396

> <r_i_glide_evdw>
-41.2055358886719

> <r_i_glide_ecoul>
-2.57143306732178

> <r_i_glide_erotb>
1.1632034306629

> <r_i_glide_esite>
0

> <r_i_glide_emodel>
-66.5354074530491

> <r_i_glide_energy>
-43.7769689559937

> <r_i_glide_einternal>
4.56305027008057

> <i_i_glide_confnum>
51

> <i_i_glide_posenum>
199

> <r_i_glide_eff_state_penalty>
0

> <s_user_duplicate_titles>
CHEMBL4618_lig129,14708

> <s_m_subgroup_title>
dock_pv

> <s_m_subgroupid>
dock_pv

> <b_m_subgroup_collapsed>
1

$$$$
CHEMBL4618_lig123
                    3D
 Schrodinger Suite 2021-1.
 45 48  0  0  1  0            999 V2000
   16.3595   41.5332   64.1570 N   0  0  0  0  0  0
   14.5640   42.2190   65.3472 N   0  0  0  0  0  0
   15.0655   41.4161   64.3439 C   0  0  0  0  0  0
   15.6184   43.0168   65.7445 C   0  0  0  0  0  0
   16.7270   42.5562   64.9941 C   0  0  0  0  0  0
    8.6364   40.1110   67.9032 C   0  0  0  0  0  0
    7.6959   39.0349   68.4361 C   0  0  0  0  0  0
   10.2761   42.1208   66.8098 C   0  0  0  0  0  0
   13.2704   42.0862   66.0196 C   0  0  0  0  0  0
    8.5209   41.4275   68.3469 C   0  0  0  0  0  0
    9.5311   39.8163   66.8772 C   0  0  0  0  0  0
   10.3544   40.8069   66.3445 C   0  0  0  0  0  0
    9.3377   42.4136   67.8019 C   0  0  0  0  0  0
    8.1551   38.2262   69.6461 C   0  0  0  0  0  0
   11.0524   43.1693   66.3407 O   0  0  0  0  0  0
   12.1565   42.9828   65.4395 C   0  0  0  0  0  0
   15.7493   43.9801   66.7393 C   0  0  0  0  0  0
   17.9968   43.0984   65.2398 C   0  0  0  0  0  0
    8.1195   36.8303   69.6187 C   0  0  0  0  0  0
    8.5462   38.8730   70.8168 C   0  0  0  0  0  0
   17.0201   44.5170   66.9497 C   0  0  0  0  0  0
   18.1223   44.0927   66.2104 C   0  0  0  0  0  0
    8.5118   36.0977   70.7406 C   0  0  0  0  0  0
    8.9070   38.1329   71.9404 C   0  0  0  0  0  0
    8.8981   36.7489   71.9003 C   0  0  0  0  0  0
   14.4184   40.6947   63.8595 H   0  0  0  0  0  0
    6.7848   39.5425   68.7378 H   0  0  0  0  0  0
    7.4153   38.3655   67.6207 H   0  0  0  0  0  0
   13.0091   41.0301   66.0008 H   0  0  0  0  0  0
   13.4131   42.3354   67.0706 H   0  0  0  0  0  0
    7.7997   41.6927   69.1078 H   0  0  0  0  0  0
    9.5891   38.8124   66.4827 H   0  0  0  0  0  0
   11.0189   40.5357   65.5413 H   0  0  0  0  0  0
    9.2351   43.4161   68.1648 H   0  0  0  0  0  0
   12.5597   43.9782   65.2472 H   0  0  0  0  0  0
   11.8031   42.6181   64.4780 H   0  0  0  0  0  0
   14.9056   44.2287   67.3577 H   0  0  0  0  0  0
   18.8648   42.7511   64.7003 H   0  0  0  0  0  0
    7.8045   36.3066   68.7289 H   0  0  0  0  0  0
    8.5382   39.9491   70.8648 H   0  0  0  0  0  0
   17.1570   45.2511   67.7297 H   0  0  0  0  0  0
   19.0961   44.5163   66.4082 H   0  0  0  0  0  0
    8.5160   35.0181   70.7273 H   0  0  0  0  0  0
    9.1861   38.6113   72.8606 H   0  0  0  0  0  0
    9.1840   36.1789   72.7724 H   0  0  0  0  0  0
  1  3  2  0  0  0
  1  5  1  0  0  0
  2  3  1  0  0  0
  2  9  1  0  0  0
  2  4  1  0  0  0
  3 26  1  0  0  0
  4  5  2  0  0  0
  4 17  1  0  0  0
  5 18  1  0  0  0
  6 10  2  0  0  0
  6  7  1  0  0  0
  6 11  1  0  0  0
  7 14  1  0  0  0
  7 27  1  0  0  0
  7 28  1  0  0  0
  8 15  1  0  0  0
  8 12  1  0  0  0
  8 13  2  0  0  0
  9 16  1  0  0  0
  9 29  1  0  0  0
  9 30  1  0  0  0
 10 13  1  0  0  0
 10 31  1  0  0  0
 11 12  2  0  0  0
 11 32  1  0  0  0
 12 33  1  0  0  0
 13 34  1  0  0  0
 14 19  2  0  0  0
 14 20  1  0  0  0
 15 16  1  0  0  0
 16 35  1  0  0  0
 16 36  1  0  0  0
 17 21  2  0  0  0
 17 37  1  0  0  0
 18 22  2  0  0  0
 18 38  1  0  0  0
 19 23  1  0  0  0
 19 39  1  0  0  0
 20 24  2  0  0  0
 20 40  1  0  0  0
 21 22  1  0  0  0
 21 41  1  0  0  0
 22 42  1  0  0  0
 23 25  2  0  0  0
 23 43  1  0  0  0
 24 25  1  0  0  0
 24 44  1  0  0  0
 25 45  1  0  0  0
M  END
> <s_m_entry_id>
6856

> <s_m_entry_name>
dock_pv.286

> <s_m_Source_Path>
/home/csk/Desktop/cluster/DUD-E-result/lkha4

> <s_m_Source_File>
dock_pv.maegz

> <i_m_Source_File_Index>
286

> <chembl_id>
CHEMBL15036

> <chembl_pref_name>
None

> <i_lp_mmshare_version>
53161

> <i_f3d_flags>
0

> <r_lp_tautomer_probability>
1

> <s_lp_Force_Field>
OPLS_2005

> <r_lp_Energy>
19.183151

> <b_lp_Chiralities_Consistent>
1

> <s_lp_Variant>
CHEMBL4618_lig123-1

> <s_i_glide_gridfile>
glide-grid_3chp

> <i_i_glide_lignum>
149

> <i_i_glide_rotatable_bonds>
6

> <r_i_docking_score>
-8.98033795296249

> <r_i_glide_ligand_efficiency>
-0.3592135181185

> <r_i_glide_ligand_efficiency_sa>
-1.05034669765736

> <r_i_glide_ligand_efficiency_ln>
-2.12860921386399

> <r_i_glide_gscore>
-8.98033795296249

> <r_i_glide_lipo>
-4.95266649210468

> <r_i_glide_hbond>
0

> <r_i_glide_metal>
0

> <r_i_glide_rewards>
-2.06913254906393

> <r_i_glide_evdw>
-39.2607650756836

> <r_i_glide_ecoul>
-4.75196695327759

> <r_i_glide_erotb>
0.870697153673346

> <r_i_glide_esite>
-0.153402768691418

> <r_i_glide_emodel>
-65.0765120920924

> <r_i_glide_energy>
-44.0127320289612

> <r_i_glide_einternal>
9.94537353515625

> <i_i_glide_confnum>
5

> <i_i_glide_posenum>
120

> <r_i_glide_eff_state_penalty>
0

> <s_user_duplicate_titles>
CHEMBL4618_lig123

> <s_m_subgroup_title>
dock_pv

> <s_m_subgroupid>
dock_pv

> <b_m_subgroup_collapsed>
1

$$$$
CHEMBL4618_lig341
                    3D
 Schrodinger Suite 2021-1.
 41 43  0  0  1  0            999 V2000
    8.1216   36.2332   70.6653 C   0  0  0  0  0  0
    8.7866   35.4319   71.5887 C   0  0  0  0  0  0
    9.5160   36.0296   72.6119 C   0  0  0  0  0  0
    9.5813   37.4161   72.7118 C   0  0  0  0  0  0
    8.9035   38.2132   71.7860 C   0  0  0  0  0  0
    8.1703   37.6161   70.7625 C   0  0  0  0  0  0
    7.3214   38.4437   69.8133 C   0  0  0  0  0  0
    8.0677   39.3526   68.8515 C   0  0  0  0  0  0
    8.1381   40.7258   69.0843 C   0  0  0  0  0  0
    8.8496   41.5521   68.2276 C   0  0  0  0  0  0
    8.6169   38.8233   67.6870 C   0  0  0  0  0  0
    9.3223   39.6537   66.8237 C   0  0  0  0  0  0
    9.5068   41.0035   67.1214 C   0  0  0  0  0  0
   10.3544   41.7152   66.2958 O   0  0  0  0  0  0
   10.7231   43.0449   66.6601 C   0  0  0  0  0  0
   12.0023   43.4784   65.9248 C   0  0  1  0  0  0
   13.2776   42.7476   66.3549 C   0  0  0  0  0  0
   14.1555   42.7850   65.1034 C   0  0  0  0  0  0
   13.3507   43.6141   64.1050 C   0  0  0  0  0  0
   11.9613   43.4159   64.4788 N   0  0  1  0  0  0
    7.5340   35.8158   69.8699 H   0  0  0  0  0  0
    8.7246   34.3552   71.5229 H   0  0  0  0  0  0
   10.0283   35.4111   73.3335 H   0  0  0  0  0  0
   10.1365   37.8654   73.5229 H   0  0  0  0  0  0
    8.9173   39.2866   71.8695 H   0  0  0  0  0  0
    6.6836   37.7878   69.2187 H   0  0  0  0  0  0
    6.6483   39.0160   70.4378 H   0  0  0  0  0  0
    7.6805   41.1794   69.9400 H   0  0  0  0  0  0
    8.9048   42.6029   68.4615 H   0  0  0  0  0  0
    8.5268   37.7684   67.4669 H   0  0  0  0  0  0
    9.7893   39.2301   65.9454 H   0  0  0  0  0  0
    9.9021   43.7228   66.4235 H   0  0  0  0  0  0
   10.9184   43.1334   67.7310 H   0  0  0  0  0  0
   12.1214   44.5196   66.2140 H   0  0  0  0  0  0
   13.7785   43.3120   67.1400 H   0  0  0  0  0  0
   13.0916   41.7330   66.7113 H   0  0  0  0  0  0
   15.1287   43.2403   65.2893 H   0  0  0  0  0  0
   14.3358   41.7830   64.7105 H   0  0  0  0  0  0
   13.6264   44.6695   64.1453 H   0  0  0  0  0  0
   13.5149   43.2588   63.0889 H   0  0  0  0  0  0
   11.7223   42.4505   64.2893 H   0  0  0  0  0  0
  1  2  2  0  0  0
  1  6  1  0  0  0
  1 21  1  0  0  0
  2  3  1  0  0  0
  2 22  1  0  0  0
  3  4  2  0  0  0
  3 23  1  0  0  0
  4  5  1  0  0  0
  4 24  1  0  0  0
  5  6  2  0  0  0
  5 25  1  0  0  0
  6  7  1  0  0  0
  7  8  1  0  0  0
  7 26  1  0  0  0
  7 27  1  0  0  0
  8  9  2  0  0  0
  8 11  1  0  0  0
  9 10  1  0  0  0
  9 28  1  0  0  0
 10 13  2  0  0  0
 10 29  1  0  0  0
 11 12  2  0  0  0
 11 30  1  0  0  0
 12 13  1  0  0  0
 12 31  1  0  0  0
 13 14  1  0  0  0
 14 15  1  0  0  0
 15 16  1  0  0  0
 15 32  1  0  0  0
 15 33  1  0  0  0
 16 17  1  0  0  0
 16 20  1  0  0  0
 16 34  1  0  0  0
 17 18  1  0  0  0
 17 35  1  0  0  0
 17 36  1  0  0  0
 18 19  1  0  0  0
 18 37  1  0  0  0
 18 38  1  0  0  0
 19 20  1  0  0  0
 19 39  1  0  0  0
 19 40  1  0  0  0
 20 41  1  0  0  0
M  END
> <s_m_entry_id>
6857

> <s_m_entry_name>
dock_pv.287

> <s_m_Source_Path>
/home/csk/Desktop/cluster/DUD-E-result/lkha4

> <s_m_Source_File>
dock_pv.maegz

> <i_m_Source_File_Index>
287

> <chembl_id>
CHEMBL571091

> <chembl_pref_name>
None

> <i_lp_mmshare_version>
53161

> <i_f3d_flags>
0

> <r_lp_tautomer_probability>
1

> <s_lp_Force_Field>
OPLS_2005

> <r_lp_Energy>
34.42743

> <b_lp_Chiralities_Consistent>
1

> <s_lp_Variant>
CHEMBL4618_lig341-1

> <s_i_glide_gridfile>
glide-grid_3chp

> <i_i_glide_lignum>
385

> <i_i_glide_rotatable_bonds>
5

> <r_i_docking_score>
-8.97965793581461

> <r_i_glide_ligand_efficiency>
-0.44898289679073

> <r_i_glide_ligand_efficiency_sa>
-1.21872708338158

> <r_i_glide_ligand_efficiency_ln>
-2.24731221239397

> <r_i_glide_gscore>
-8.97965793581461

> <r_i_glide_lipo>
-4.94287712511423

> <r_i_glide_hbond>
-0.00179377597765623

> <r_i_glide_metal>
0

> <r_i_glide_rewards>
-2.86026394031516

> <r_i_glide_evdw>
-35.1284599304199

> <r_i_glide_ecoul>
-4.436598777771

> <r_i_glide_erotb>
1.24718971877909

> <r_i_glide_esite>
0

> <r_i_glide_emodel>
-55.004405935145

> <r_i_glide_energy>
-39.5650587081909

> <r_i_glide_einternal>
6.6126184463501

> <i_i_glide_confnum>
391

> <i_i_glide_posenum>
97

> <r_i_glide_eff_state_penalty>
0

> <s_user_duplicate_titles>
CHEMBL4618_lig341,583353

> <s_m_subgroup_title>
dock_pv

> <s_m_subgroupid>
dock_pv

> <b_m_subgroup_collapsed>
1

$$$$
CHEMBL4618_lig238
                    3D
 Schrodinger Suite 2021-1.
 62 64  0  0  1  0            999 V2000
    8.1213   39.3290   68.6289 C   0  0  0  0  0  0
    8.8969   38.9895   67.5263 C   0  0  0  0  0  0
    9.5099   39.9882   66.7802 C   0  0  0  0  0  0
    9.3413   41.3317   67.1402 C   0  0  0  0  0  0
    8.5204   41.6774   68.2069 C   0  0  0  0  0  0
    7.9267   40.6700   68.9524 C   0  0  0  0  0  0
    9.9868   42.3719   66.4694 N   0  0  0  0  0  0
   11.2895   42.3710   66.1310 C   0  0  0  0  0  0
   11.8203   43.6809   65.5223 C   0  0  0  0  0  0
   12.0408   41.4157   66.3388 O   0  0  0  0  0  0
   12.7854   43.4412   64.4593 N   0  0  2  0  0  0
    7.5074   38.3415   69.3560 O   0  0  0  0  0  0
    8.1926   37.7097   70.3686 C   0  0  0  0  0  0
    8.8842   38.4000   71.3628 C   0  0  0  0  0  0
    9.4835   37.6980   72.4092 C   0  0  0  0  0  0
    9.3628   36.3153   72.4864 C   0  0  0  0  0  0
    8.6722   35.6228   71.5022 C   0  0  0  0  0  0
    8.1184   36.3254   70.4336 C   0  0  0  0  0  0
   14.1242   43.0641   64.9163 C   0  0  0  0  0  0
   14.8888   42.4018   63.7492 C   0  0  0  0  0  0
   15.8977   41.3116   64.0716 C   0  0  0  0  0  0
   16.9210   41.6084   65.0900 N   0  0  2  0  0  0
   17.3053   43.0142   65.2528 C   0  0  0  0  0  0
   18.2736   43.1605   66.4093 C   0  0  0  0  0  0
   19.6510   43.0924   66.1954 C   0  0  0  0  0  0
   20.5247   43.1934   67.2756 C   0  0  0  0  0  0
   20.0254   43.3423   68.5778 C   0  0  0  0  0  0
   18.6416   43.4348   68.7777 C   0  0  0  0  0  0
   17.7723   43.3580   67.6960 C   0  0  0  0  0  0
   20.9738   43.4156   69.7455 C   0  0  0  0  0  0
   20.4346   43.0623   70.9455 O   0  0  0  0  0  0
   22.1450   43.7679   69.6271 O   0  0  0  0  0  0
   12.9210   44.5674   63.5401 C   0  0  0  0  0  0
    9.0286   37.9519   67.2583 H   0  0  0  0  0  0
   10.1292   39.7095   65.9397 H   0  0  0  0  0  0
    8.3629   42.7114   68.4814 H   0  0  0  0  0  0
    7.3210   40.9402   69.7900 H   0  0  0  0  0  0
    9.4673   43.2300   66.3610 H   0  0  0  0  0  0
   10.9803   44.2756   65.1603 H   0  0  0  0  0  0
   12.2884   44.2161   66.3401 H   0  0  0  0  0  0
    8.9211   39.4770   71.3361 H   0  0  0  0  0  0
   10.0182   38.2159   73.1878 H   0  0  0  0  0  0
    9.8055   35.7790   73.3133 H   0  0  0  0  0  0
    8.5695   34.5481   71.5519 H   0  0  0  0  0  0
    7.5739   35.8161   69.6581 H   0  0  0  0  0  0
   14.5955   43.9773   65.2736 H   0  0  0  0  0  0
   14.1072   42.3882   65.7685 H   0  0  0  0  0  0
   14.1722   42.2146   62.9609 H   0  0  0  0  0  0
   15.5545   43.0160   63.1904 H   0  0  0  0  0  0
   15.3210   40.4453   64.3778 H   0  0  0  0  0  0
   16.4076   41.0408   63.1427 H   0  0  0  0  0  0
   17.8256   41.4160   64.6601 H   0  0  0  0  0  0
   17.7703   43.3842   64.3401 H   0  0  0  0  0  0
   16.4836   43.6795   65.4682 H   0  0  0  0  0  0
   20.0443   42.9498   65.1978 H   0  0  0  0  0  0
   21.5893   43.1236   67.0925 H   0  0  0  0  0  0
   18.2237   43.5579   69.7675 H   0  0  0  0  0  0
   16.7072   43.4195   67.8640 H   0  0  0  0  0  0
   21.1156   43.0161   71.6184 H   0  0  0  0  0  0
   13.7210   44.4319   62.8288 H   0  0  0  0  0  0
   12.0868   44.6160   62.8748 H   0  0  0  0  0  0
   13.0543   45.5188   64.0453 H   0  0  0  0  0  0
  1 12  1  0  0  0
  1  6  1  0  0  0
  1  2  2  0  0  0
  2  3  1  0  0  0
  2 34  1  0  0  0
  3  4  2  0  0  0
  3 35  1  0  0  0
  4  5  1  0  0  0
  4  7  1  0  0  0
  5  6  2  0  0  0
  5 36  1  0  0  0
  6 37  1  0  0  0
  7  8  1  0  0  0
  7 38  1  0  0  0
  8  9  1  0  0  0
  8 10  2  0  0  0
  9 11  1  0  0  0
  9 39  1  0  0  0
  9 40  1  0  0  0
 11 19  1  0  0  0
 11 33  1  0  0  0
 12 13  1  0  0  0
 13 18  1  0  0  0
 13 14  2  0  0  0
 14 15  1  0  0  0
 14 41  1  0  0  0
 15 16  2  0  0  0
 15 42  1  0  0  0
 16 17  1  0  0  0
 16 43  1  0  0  0
 17 18  2  0  0  0
 17 44  1  0  0  0
 18 45  1  0  0  0
 19 20  1  0  0  0
 19 46  1  0  0  0
 19 47  1  0  0  0
 20 21  1  0  0  0
 20 48  1  0  0  0
 20 49  1  0  0  0
 21 22  1  0  0  0
 21 50  1  0  0  0
 21 51  1  0  0  0
 22 23  1  0  0  0
 22 52  1  0  0  0
 23 24  1  0  0  0
 23 53  1  0  0  0
 23 54  1  0  0  0
 24 25  2  0  0  0
 24 29  1  0  0  0
 25 26  1  0  0  0
 25 55  1  0  0  0
 26 27  2  0  0  0
 26 56  1  0  0  0
 27 28  1  0  0  0
 27 30  1  0  0  0
 28 29  2  0  0  0
 28 57  1  0  0  0
 29 58  1  0  0  0
 30 31  1  0  0  0
 30 32  2  0  0  0
 31 59  1  0  0  0
 33 60  1  0  0  0
 33 61  1  0  0  0
 33 62  1  0  0  0
M  END
> <s_m_entry_id>
6858

> <s_m_entry_name>
dock_pv.288

> <s_m_Source_Path>
/home/csk/Desktop/cluster/DUD-E-result/lkha4

> <s_m_Source_File>
dock_pv.maegz

> <i_m_Source_File_Index>
288

> <chembl_id>
CHEMBL482253

> <chembl_pref_name>
None

> <i_lp_mmshare_version>
53161

> <i_f3d_flags>
0

> <r_lp_tautomer_probability>
1

> <s_lp_Force_Field>
OPLS_2005

> <r_lp_Energy>
34.564505

> <b_lp_Chiralities_Consistent>
1

> <s_lp_Variant>
CHEMBL4618_lig238-1

> <s_i_glide_gridfile>
glide-grid_3chp

> <i_i_glide_lignum>
273

> <i_i_glide_rotatable_bonds>
14

> <r_i_docking_score>
-8.96901186831207

> <r_i_glide_ligand_efficiency>
-0.271788238433699

> <r_i_glide_ligand_efficiency_sa>
-0.87177010424913

> <r_i_glide_ligand_efficiency_ln>
-1.99466180045451

> <r_i_glide_gscore>
-8.96901186831207

> <r_i_glide_lipo>
-4.3951927363914

> <r_i_glide_hbond>
-0.50762178755412

> <r_i_glide_metal>
0

> <r_i_glide_rewards>
-0.541520899830728

> <r_i_glide_evdw>
-52.9172019958496

> <r_i_glide_ecoul>
-14.5243005752563

> <r_i_glide_erotb>
1.29982874154512

> <r_i_glide_esite>
0

> <r_i_glide_emodel>
-93.0329144262102

> <r_i_glide_energy>
-67.441502571106

> <r_i_glide_einternal>
20.7687377929688

> <i_i_glide_confnum>
117

> <i_i_glide_posenum>
23

> <r_i_glide_eff_state_penalty>
0

> <s_user_duplicate_titles>
CHEMBL4618_lig238,466981

> <s_m_subgroup_title>
dock_pv

> <s_m_subgroupid>
dock_pv

> <b_m_subgroup_collapsed>
1

$$$$
CHEMBL4618_lig90
                    3D
 Schrodinger Suite 2021-1.
 41 43  0  0  1  0            999 V2000
   10.1205   35.0707   73.0837 S   0  0  0  0  0  0
   11.1546   42.6941   65.5400 N   0  0  0  0  0  0
    8.5248   36.5922   71.6288 C   0  0  0  0  0  0
    8.9410   35.2774   71.8245 C   0  0  0  0  0  0
   10.0004   36.7531   73.4473 C   0  0  0  0  0  0
    9.1272   37.4160   72.5928 C   0  0  0  0  0  0
    7.5249   37.0312   70.5692 C   0  0  0  0  0  0
    8.0041   38.0890   69.5775 C   0  0  0  0  0  0
    8.7045   40.0662   67.7078 C   0  0  0  0  0  0
    8.2209   39.4002   69.9776 C   0  0  0  0  0  0
    8.1471   37.7679   68.2326 C   0  0  0  0  0  0
    8.5210   38.7424   67.3045 C   0  0  0  0  0  0
    8.5205   40.3898   69.0556 C   0  0  0  0  0  0
    9.0581   40.9877   66.7410 O   0  0  0  0  0  0
    9.8485   43.1860   65.9854 C   0  0  0  0  0  0
    9.2241   42.3564   67.1195 C   0  0  0  0  0  0
   12.1783   42.5482   66.5583 C   0  0  0  0  0  0
   11.7898   43.5260   64.5318 C   0  0  0  0  0  0
   13.2244   43.0081   64.4258 C   0  0  0  0  0  0
   13.4870   42.3624   65.7883 C   0  0  0  0  0  0
    8.6171   34.4150   71.2600 H   0  0  0  0  0  0
   10.5597   37.1772   74.2690 H   0  0  0  0  0  0
    8.9209   38.4706   72.6789 H   0  0  0  0  0  0
    6.6311   37.4184   71.0587 H   0  0  0  0  0  0
    7.1883   36.1665   69.9950 H   0  0  0  0  0  0
    8.1248   39.6643   71.0164 H   0  0  0  0  0  0
    7.9880   36.7446   67.9380 H   0  0  0  0  0  0
    8.6573   38.4764   66.2661 H   0  0  0  0  0  0
    8.6240   41.3993   69.4194 H   0  0  0  0  0  0
    9.9338   44.2159   66.3184 H   0  0  0  0  0  0
    9.1612   43.1875   65.1401 H   0  0  0  0  0  0
    9.8594   42.4560   68.0004 H   0  0  0  0  0  0
    8.2509   42.7790   67.3773 H   0  0  0  0  0  0
   11.9303   41.6641   67.1400 H   0  0  0  0  0  0
   12.2039   43.3859   67.2578 H   0  0  0  0  0  0
   11.7444   44.5869   64.7809 H   0  0  0  0  0  0
   11.2399   43.4176   63.5976 H   0  0  0  0  0  0
   13.9227   43.8185   64.2182 H   0  0  0  0  0  0
   13.3229   42.2863   63.6126 H   0  0  0  0  0  0
   13.7212   41.3024   65.6811 H   0  0  0  0  0  0
   14.3192   42.8371   66.3077 H   0  0  0  0  0  0
  1  4  1  0  0  0
  1  5  1  0  0  0
  2 15  1  0  0  0
  2 17  1  0  0  0
  2 18  1  0  0  0
  3  4  2  0  0  0
  3  7  1  0  0  0
  3  6  1  0  0  0
  4 21  1  0  0  0
  5  6  2  0  0  0
  5 22  1  0  0  0
  6 23  1  0  0  0
  7  8  1  0  0  0
  7 24  1  0  0  0
  7 25  1  0  0  0
  8 10  1  0  0  0
  8 11  2  0  0  0
  9 12  2  0  0  0
  9 14  1  0  0  0
  9 13  1  0  0  0
 10 13  2  0  0  0
 10 26  1  0  0  0
 11 12  1  0  0  0
 11 27  1  0  0  0
 12 28  1  0  0  0
 13 29  1  0  0  0
 14 16  1  0  0  0
 15 16  1  0  0  0
 15 30  1  0  0  0
 15 31  1  0  0  0
 16 32  1  0  0  0
 16 33  1  0  0  0
 17 20  1  0  0  0
 17 34  1  0  0  0
 17 35  1  0  0  0
 18 19  1  0  0  0
 18 36  1  0  0  0
 18 37  1  0  0  0
 19 20  1  0  0  0
 19 38  1  0  0  0
 19 39  1  0  0  0
 20 40  1  0  0  0
 20 41  1  0  0  0
M  END
> <s_m_entry_id>
6859

> <s_m_entry_name>
dock_pv.289

> <s_m_Source_Path>
/home/csk/Desktop/cluster/DUD-E-result/lkha4

> <s_m_Source_File>
dock_pv.maegz

> <i_m_Source_File_Index>
289

> <chembl_id>
CHEMBL354233

> <chembl_pref_name>
None

> <i_lp_mmshare_version>
53161

> <i_f3d_flags>
0

> <r_lp_tautomer_probability>
1

> <s_lp_Force_Field>
OPLS_2005

> <r_lp_Energy>
32.616563

> <b_lp_Chiralities_Consistent>
1

> <s_lp_Variant>
CHEMBL4618_lig90-1

> <s_i_glide_gridfile>
glide-grid_3chp

> <i_i_glide_lignum>
113

> <i_i_glide_rotatable_bonds>
6

> <r_i_docking_score>
-8.9593046578373

> <r_i_glide_ligand_efficiency>
-0.447965232891865

> <r_i_glide_ligand_efficiency_sa>
-1.21596471856948

> <r_i_glide_ligand_efficiency_ln>
-2.24221845821229

> <r_i_glide_gscore>
-8.9593046578373

> <r_i_glide_lipo>
-5.3890912721502

> <r_i_glide_hbond>
0

> <r_i_glide_metal>
0

> <r_i_glide_rewards>
-2.3494034898313

> <r_i_glide_evdw>
-40.743824005127

> <r_i_glide_ecoul>
-1.89150786399841

> <r_i_glide_erotb>
1.10010748400031

> <r_i_glide_esite>
0

> <r_i_glide_emodel>
-69.7440249686711

> <r_i_glide_energy>
-42.6353318691254

> <r_i_glide_einternal>
1.49904656410217

> <i_i_glide_confnum>
30

> <i_i_glide_posenum>
283

> <r_i_glide_eff_state_penalty>
0

> <s_user_duplicate_titles>
CHEMBL4618_lig90,271506

> <s_m_subgroup_title>
dock_pv

> <s_m_subgroupid>
dock_pv

> <b_m_subgroup_collapsed>
1

$$$$
CHEMBL4618_lig79
                    3D
 Schrodinger Suite 2021-1.
 44 46  0  0  1  0            999 V2000
   14.6186   42.6290   65.5085 N   0  0  0  0  0  0
    8.4755   39.9494   68.4171 C   0  0  0  0  0  0
    8.2367   38.0403   70.1793 C   0  0  0  0  0  0
    9.2174   36.4230   72.2293 C   0  0  0  0  0  0
    7.5922   38.9418   69.1350 C   0  0  0  0  0  0
   10.1527   41.7891   67.1371 C   0  0  0  0  0  0
    9.8638   35.4303   73.4843 Cl  0  0  0  0  0  0
    8.5776   35.8451   71.1404 C   0  0  0  0  0  0
    9.3572   37.8010   72.3042 C   0  0  0  0  0  0
    8.8579   38.6147   71.2864 C   0  0  0  0  0  0
    9.2908   39.5317   67.3731 C   0  0  0  0  0  0
    8.1109   36.6497   70.1010 C   0  0  0  0  0  0
    8.4060   41.3082   68.7401 C   0  0  0  0  0  0
   10.1203   40.4466   66.7373 C   0  0  0  0  0  0
    9.2372   42.2203   68.0943 C   0  0  0  0  0  0
   11.0660   42.7178   66.6674 O   0  0  0  0  0  0
   13.3951   43.2154   66.0730 C   0  0  0  0  0  0
   12.1943   42.2640   65.9146 C   0  0  0  0  0  0
   14.5742   42.4419   64.0620 C   0  0  0  0  0  0
   15.7983   43.4612   65.6936 C   0  0  0  0  0  0
   16.8501   42.8746   64.7497 C   0  0  0  0  0  0
   16.0241   42.2082   63.6446 C   0  0  0  0  0  0
    6.8973   39.5308   69.7106 H   0  0  0  0  0  0
    7.0139   38.3659   68.4107 H   0  0  0  0  0  0
    8.4857   34.7717   71.1052 H   0  0  0  0  0  0
    9.8497   38.2160   73.1656 H   0  0  0  0  0  0
    8.9197   39.6901   71.3606 H   0  0  0  0  0  0
    9.3130   38.4930   67.0740 H   0  0  0  0  0  0
    7.6378   36.1881   69.2492 H   0  0  0  0  0  0
    7.7331   41.6623   69.5092 H   0  0  0  0  0  0
   10.7632   40.0778   65.9533 H   0  0  0  0  0  0
    9.2093   43.2598   68.3794 H   0  0  0  0  0  0
   13.5481   43.4142   67.1350 H   0  0  0  0  0  0
   13.1759   44.1755   65.6013 H   0  0  0  0  0  0
   11.9012   42.2122   64.8676 H   0  0  0  0  0  0
   12.5266   41.2729   66.2286 H   0  0  0  0  0  0
   14.1199   43.2896   63.5430 H   0  0  0  0  0  0
   13.9410   41.5848   63.8239 H   0  0  0  0  0  0
   16.0969   43.4318   66.7423 H   0  0  0  0  0  0
   15.5984   44.5123   65.4891 H   0  0  0  0  0  0
   17.4991   42.1676   65.2673 H   0  0  0  0  0  0
   17.4840   43.6646   64.3459 H   0  0  0  0  0  0
   16.2098   42.6510   62.6674 H   0  0  0  0  0  0
   16.2335   41.1471   63.5446 H   0  0  0  0  0  0
  1 17  1  0  0  0
  1 19  1  0  0  0
  1 20  1  0  0  0
  2 13  2  0  0  0
  2  5  1  0  0  0
  2 11  1  0  0  0
  3  5  1  0  0  0
  3 10  1  0  0  0
  3 12  2  0  0  0
  4  8  2  0  0  0
  4  7  1  0  0  0
  4  9  1  0  0  0
  5 23  1  0  0  0
  5 24  1  0  0  0
  6 16  1  0  0  0
  6 14  1  0  0  0
  6 15  2  0  0  0
  8 12  1  0  0  0
  8 25  1  0  0  0
  9 10  2  0  0  0
  9 26  1  0  0  0
 10 27  1  0  0  0
 11 14  2  0  0  0
 11 28  1  0  0  0
 12 29  1  0  0  0
 13 15  1  0  0  0
 13 30  1  0  0  0
 14 31  1  0  0  0
 15 32  1  0  0  0
 16 18  1  0  0  0
 17 18  1  0  0  0
 17 33  1  0  0  0
 17 34  1  0  0  0
 18 35  1  0  0  0
 18 36  1  0  0  0
 19 22  1  0  0  0
 19 37  1  0  0  0
 19 38  1  0  0  0
 20 21  1  0  0  0
 20 39  1  0  0  0
 20 40  1  0  0  0
 21 22  1  0  0  0
 21 41  1  0  0  0
 21 42  1  0  0  0
 22 43  1  0  0  0
 22 44  1  0  0  0
M  END
> <s_m_entry_id>
6860

> <s_m_entry_name>
dock_pv.290

> <s_m_Source_Path>
/home/csk/Desktop/cluster/DUD-E-result/lkha4

> <s_m_Source_File>
dock_pv.maegz

> <i_m_Source_File_Index>
290

> <chembl_id>
CHEMBL351648

> <chembl_pref_name>
None

> <i_lp_mmshare_version>
53161

> <i_f3d_flags>
0

> <r_lp_tautomer_probability>
1

> <s_lp_Force_Field>
OPLS_2005

> <r_lp_Energy>
36.35094

> <b_lp_Chiralities_Consistent>
1

> <s_lp_Variant>
CHEMBL4618_lig79-1

> <s_i_glide_gridfile>
glide-grid_3chp

> <i_i_glide_lignum>
100

> <i_i_glide_rotatable_bonds>
6

> <r_i_docking_score>
-8.94075578942348

> <r_i_glide_ligand_efficiency>
-0.40639799042834

> <r_i_glide_ligand_efficiency_sa>
-1.13874315190622

> <r_i_glide_ligand_efficiency_ln>
-2.18544683692638

> <r_i_glide_gscore>
-8.94075578942348

> <r_i_glide_lipo>
-4.9770322311655

> <r_i_glide_hbond>
-0.0182941818593047

> <r_i_glide_metal>
0

> <r_i_glide_rewards>
-2.15092226439302

> <r_i_glide_evdw>
-43.4386253356934

> <r_i_glide_ecoul>
-3.70196080207825

> <r_i_glide_erotb>
0.932718275090753

> <r_i_glide_esite>
0

> <r_i_glide_emodel>
-67.6752951981816

> <r_i_glide_energy>
-47.1405861377716

> <r_i_glide_einternal>
4.84401035308838

> <i_i_glide_confnum>
120

> <i_i_glide_posenum>
343

> <r_i_glide_eff_state_penalty>
0

> <s_user_duplicate_titles>
CHEMBL4618_lig79,271652

> <s_m_subgroup_title>
dock_pv

> <s_m_subgroupid>
dock_pv

> <b_m_subgroup_collapsed>
1

$$$$
CHEMBL4618_lig321
                    3D
 Schrodinger Suite 2021-1.
 65 69  0  0  1  0            999 V2000
    8.4583   36.6358   71.8832 C   0  0  0  0  0  0
    8.9168   35.3734   71.5400 C   0  0  0  0  0  0
    9.8376   34.7071   72.3400 C   0  0  0  0  0  0
   10.3103   35.3133   73.5094 C   0  0  0  0  0  0
    9.8739   36.5983   73.8373 C   0  0  0  0  0  0
    8.9576   37.2488   73.0212 C   0  0  0  0  0  0
   11.2423   34.5877   74.4356 C   0  0  0  0  0  0
   11.7210   33.4160   73.9620 O   0  0  0  0  0  0
   11.5418   35.0160   75.5400 O   0  0  0  0  0  0
    8.3509   38.8341   69.3407 N   0  0  2  0  0  0
    7.5895   38.6935   70.5688 C   0  0  0  0  0  0
   17.8810   43.2314   66.3816 C   0  0  0  0  0  0
   17.7213   42.6160   65.1400 C   0  0  0  0  0  0
   16.4782   42.5692   64.5200 C   0  0  0  0  0  0
   15.3713   43.1382   65.1400 C   0  0  0  0  0  0
   15.5227   43.7708   66.3746 C   0  0  0  0  0  0
   16.7703   43.8159   66.9970 C   0  0  0  0  0  0
   14.1778   43.1478   64.4482 O   0  0  0  0  0  0
   13.0299   42.8174   65.1122 C   0  0  0  0  0  0
   12.8900   41.5338   65.6094 C   0  0  0  0  0  0
   11.7590   41.2254   66.3400 C   0  0  0  0  0  0
   10.7802   42.1675   66.6473 C   0  0  0  0  0  0
   10.8747   43.4160   66.0351 C   0  0  0  0  0  0
   11.9973   43.7408   65.2631 C   0  0  0  0  0  0
    9.7209   41.8708   67.5399 N   0  0  0  0  0  0
   19.2353   43.2515   67.0165 C   0  0  0  0  0  0
   20.2527   42.6048   66.3835 O   0  0  0  0  0  0
   21.3124   42.7728   67.2044 C   0  0  0  0  0  0
   20.8681   43.5151   68.2840 C   0  0  0  0  0  0
   19.5856   43.8081   68.1576 N   0  0  0  0  0  0
    8.7923   39.8480   66.6745 C   0  0  0  0  0  0
    9.4660   40.4616   67.8888 C   0  0  2  0  0  0
    8.4973   40.2809   69.0655 C   0  0  0  0  0  0
    7.6554   38.1638   68.2309 C   0  0  0  0  0  0
    8.3279   38.4205   66.8832 C   0  0  0  0  0  0
    7.3222   37.2865   71.1089 C   0  0  0  0  0  0
    8.5210   34.8921   70.6690 H   0  0  0  0  0  0
   10.1450   33.7102   72.0557 H   0  0  0  0  0  0
   10.2136   37.0828   74.7416 H   0  0  0  0  0  0
    8.5852   38.2160   73.2947 H   0  0  0  0  0  0
   12.1739   32.9436   74.6633 H   0  0  0  0  0  0
    6.6221   39.1317   70.3400 H   0  0  0  0  0  0
    8.0742   39.2850   71.3493 H   0  0  0  0  0  0
   18.5758   42.2160   64.6153 H   0  0  0  0  0  0
   16.3797   42.1610   63.5222 H   0  0  0  0  0  0
   14.6645   44.2161   66.8530 H   0  0  0  0  0  0
   16.8635   44.2939   67.9616 H   0  0  0  0  0  0
   13.6432   40.7812   65.4261 H   0  0  0  0  0  0
   11.6347   40.2161   66.6295 H   0  0  0  0  0  0
   10.1015   44.1524   66.1959 H   0  0  0  0  0  0
   12.0989   44.7163   64.8177 H   0  0  0  0  0  0
    8.9099   42.4704   67.4699 H   0  0  0  0  0  0
   22.2514   42.3229   66.9098 H   0  0  0  0  0  0
   21.4542   43.8158   69.1386 H   0  0  0  0  0  0
    9.5342   39.8072   65.8918 H   0  0  0  0  0  0
    7.9705   40.4798   66.3402 H   0  0  0  0  0  0
   10.3837   39.9349   68.1466 H   0  0  0  0  0  0
    7.5311   40.7622   68.8969 H   0  0  0  0  0  0
    8.9210   40.7644   69.9399 H   0  0  0  0  0  0
    7.6574   37.0892   68.4112 H   0  0  0  0  0  0
    6.6083   38.4639   68.1831 H   0  0  0  0  0  0
    9.1496   37.7288   66.7457 H   0  0  0  0  0  0
    7.6131   38.2160   66.0902 H   0  0  0  0  0  0
    6.9211   36.6254   70.3400 H   0  0  0  0  0  0
    6.5177   37.4160   71.8338 H   0  0  0  0  0  0
  1  6  1  0  0  0
  1  2  2  0  0  0
  1 36  1  0  0  0
  2  3  1  0  0  0
  2 37  1  0  0  0
  3  4  2  0  0  0
  3 38  1  0  0  0
  4  5  1  0  0  0
  4  7  1  0  0  0
  5  6  2  0  0  0
  5 39  1  0  0  0
  6 40  1  0  0  0
  7  9  2  0  0  0
  7  8  1  0  0  0
  8 41  1  0  0  0
 10 11  1  0  0  0
 10 33  1  0  0  0
 10 34  1  0  0  0
 11 36  1  0  0  0
 11 42  1  0  0  0
 11 43  1  0  0  0
 12 13  2  0  0  0
 12 26  1  0  0  0
 12 17  1  0  0  0
 13 14  1  0  0  0
 13 44  1  0  0  0
 14 15  2  0  0  0
 14 45  1  0  0  0
 15 16  1  0  0  0
 15 18  1  0  0  0
 16 17  2  0  0  0
 16 46  1  0  0  0
 17 47  1  0  0  0
 18 19  1  0  0  0
 19 20  2  0  0  0
 19 24  1  0  0  0
 20 21  1  0  0  0
 20 48  1  0  0  0
 21 22  2  0  0  0
 21 49  1  0  0  0
 22 23  1  0  0  0
 22 25  1  0  0  0
 23 24  2  0  0  0
 23 50  1  0  0  0
 24 51  1  0  0  0
 25 32  1  0  0  0
 25 52  1  0  0  0
 26 27  1  0  0  0
 26 30  2  0  0  0
 27 28  1  0  0  0
 28 29  2  0  0  0
 28 53  1  0  0  0
 29 30  1  0  0  0
 29 54  1  0  0  0
 31 32  1  0  0  0
 31 35  1  0  0  0
 31 55  1  0  0  0
 31 56  1  0  0  0
 32 33  1  0  0  0
 32 57  1  0  0  0
 33 58  1  0  0  0
 33 59  1  0  0  0
 34 35  1  0  0  0
 34 60  1  0  0  0
 34 61  1  0  0  0
 35 62  1  0  0  0
 35 63  1  0  0  0
 36 64  1  0  0  0
 36 65  1  0  0  0
M  END
> <s_m_entry_id>
6861

> <s_m_entry_name>
dock_pv.291

> <s_m_Source_Path>
/home/csk/Desktop/cluster/DUD-E-result/lkha4

> <s_m_Source_File>
dock_pv.maegz

> <i_m_Source_File_Index>
291

> <chembl_id>
CHEMBL516603

> <chembl_pref_name>
None

> <i_lp_mmshare_version>
53161

> <i_f3d_flags>
0

> <r_lp_tautomer_probability>
1

> <s_lp_Force_Field>
OPLS_2005

> <r_lp_Energy>
37.409617

> <b_lp_Chiralities_Consistent>
1

> <s_lp_Variant>
CHEMBL4618_lig321-1

> <s_i_glide_gridfile>
glide-grid_3chp

> <i_i_glide_lignum>
361

> <i_i_glide_rotatable_bonds>
10

> <r_i_docking_score>
-8.94059568492557

> <r_i_glide_ligand_efficiency>
-0.248349880136821

> <r_i_glide_ligand_efficiency_sa>
-0.82003323550395

> <r_i_glide_ligand_efficiency_ln>
-1.95059643146955

> <r_i_glide_gscore>
-8.94059568492557

> <r_i_glide_lipo>
-5.70332503507889

> <r_i_glide_hbond>
0

> <r_i_glide_metal>
0

> <r_i_glide_rewards>
-0.879404004185814

> <r_i_glide_evdw>
-52.1068534851074

> <r_i_glide_ecoul>
-3.55951905250549

> <r_i_glide_erotb>
0.781403886470326

> <r_i_glide_esite>
0

> <r_i_glide_emodel>
-62.8082280927421

> <r_i_glide_energy>
-55.6663725376129

> <r_i_glide_einternal>
8.67440128326416

> <i_i_glide_confnum>
25

> <i_i_glide_posenum>
177

> <r_i_glide_eff_state_penalty>
0

> <s_user_duplicate_titles>
CHEMBL4618_lig321

> <s_m_subgroup_title>
dock_pv

> <s_m_subgroupid>
dock_pv

> <b_m_subgroup_collapsed>
1

$$$$
CHEMBL4618_lig103
                    3D
 Schrodinger Suite 2021-1.
 48 51  0  0  1  0            999 V2000
   15.5589   42.7866   65.1398 C   0  0  0  0  0  0
   16.4113   41.8159   64.8823 N   0  0  0  0  0  0
   16.1411   43.9454   65.5509 O   0  0  0  0  0  0
    9.2607   36.8908   72.0714 N   0  0  0  0  0  0
   14.0746   42.7016   65.2067 C   0  0  0  0  0  0
   17.5910   42.3464   65.1402 C   0  0  0  0  0  0
   17.4621   43.6610   65.5414 C   0  0  0  0  0  0
    9.9563   42.5627   65.9988 O   0  0  0  0  0  0
   13.2610   43.8160   65.0021 C   0  0  0  0  0  0
   13.4932   41.5019   65.5966 C   0  0  0  0  0  0
   11.3229   42.5681   65.7653 C   0  0  0  0  0  0
    9.3403   41.6841   66.8728 C   0  0  0  0  0  0
    8.1244   39.9854   68.7385 C   0  0  0  0  0  0
   12.1538   41.4567   65.9397 C   0  0  0  0  0  0
   11.8919   43.7384   65.2632 C   0  0  0  0  0  0
    9.4202   40.2910   66.7441 C   0  0  0  0  0  0
    8.5388   42.2148   67.8828 C   0  0  0  0  0  0
    7.9245   41.3665   68.8013 C   0  0  0  0  0  0
    8.8382   39.4475   67.6717 C   0  0  0  0  0  0
    7.6128   39.2062   69.7505 O   0  0  0  0  0  0
    8.2541   37.8545   71.6236 C   0  0  0  0  0  0
    8.2791   37.9918   70.0920 C   0  0  0  0  0  0
    9.5250   36.9111   73.5018 C   0  0  0  0  0  0
    8.9239   35.4997   71.8118 C   0  0  0  0  0  0
   10.0150   34.7387   72.5622 C   0  0  0  0  0  0
   10.2586   35.6003   73.8046 C   0  0  0  0  0  0
   18.5232   41.8163   65.0159 H   0  0  0  0  0  0
   18.1550   44.4431   65.8156 H   0  0  0  0  0  0
   13.6958   44.7492   64.6769 H   0  0  0  0  0  0
   14.0934   40.6178   65.7533 H   0  0  0  0  0  0
   11.8033   40.5280   66.3340 H   0  0  0  0  0  0
   11.2736   44.6121   65.1340 H   0  0  0  0  0  0
    9.9532   39.8205   65.9397 H   0  0  0  0  0  0
    8.3998   43.2832   67.9643 H   0  0  0  0  0  0
    7.3202   41.7871   69.5903 H   0  0  0  0  0  0
    8.9534   38.3792   67.5578 H   0  0  0  0  0  0
    7.2565   37.5727   71.9635 H   0  0  0  0  0  0
    8.4675   38.8310   72.0636 H   0  0  0  0  0  0
    9.3193   37.9823   69.7586 H   0  0  0  0  0  0
    7.7743   37.1531   69.6110 H   0  0  0  0  0  0
    8.6129   37.0165   74.0879 H   0  0  0  0  0  0
   10.1324   37.7877   73.7310 H   0  0  0  0  0  0
    8.9224   35.3268   70.7400 H   0  0  0  0  0  0
    7.9093   35.2623   72.1360 H   0  0  0  0  0  0
   10.9068   34.6439   71.9400 H   0  0  0  0  0  0
    9.7213   33.7225   72.8200 H   0  0  0  0  0  0
    9.8528   35.1305   74.6996 H   0  0  0  0  0  0
   11.3207   35.7668   73.9686 H   0  0  0  0  0  0
  1  2  2  0  0  0
  1  3  1  0  0  0
  1  5  1  0  0  0
  2  6  1  0  0  0
  3  7  1  0  0  0
  4 21  1  0  0  0
  4 23  1  0  0  0
  4 24  1  0  0  0
  5  9  1  0  0  0
  5 10  2  0  0  0
  6  7  2  0  0  0
  6 27  1  0  0  0
  7 28  1  0  0  0
  8 11  1  0  0  0
  8 12  1  0  0  0
  9 15  2  0  0  0
  9 29  1  0  0  0
 10 14  1  0  0  0
 10 30  1  0  0  0
 11 14  2  0  0  0
 11 15  1  0  0  0
 12 16  1  0  0  0
 12 17  2  0  0  0
 13 18  2  0  0  0
 13 20  1  0  0  0
 13 19  1  0  0  0
 14 31  1  0  0  0
 15 32  1  0  0  0
 16 19  2  0  0  0
 16 33  1  0  0  0
 17 18  1  0  0  0
 17 34  1  0  0  0
 18 35  1  0  0  0
 19 36  1  0  0  0
 20 22  1  0  0  0
 21 22  1  0  0  0
 21 37  1  0  0  0
 21 38  1  0  0  0
 22 39  1  0  0  0
 22 40  1  0  0  0
 23 26  1  0  0  0
 23 41  1  0  0  0
 23 42  1  0  0  0
 24 25  1  0  0  0
 24 43  1  0  0  0
 24 44  1  0  0  0
 25 26  1  0  0  0
 25 45  1  0  0  0
 25 46  1  0  0  0
 26 47  1  0  0  0
 26 48  1  0  0  0
M  END
> <s_m_entry_id>
6862

> <s_m_entry_name>
dock_pv.292

> <s_m_Source_Path>
/home/csk/Desktop/cluster/DUD-E-result/lkha4

> <s_m_Source_File>
dock_pv.maegz

> <i_m_Source_File_Index>
292

> <chembl_id>
CHEMBL117132

> <chembl_pref_name>
None

> <i_lp_mmshare_version>
53161

> <i_f3d_flags>
0

> <r_lp_tautomer_probability>
1

> <s_lp_Force_Field>
OPLS_2005

> <r_lp_Energy>
42.219238

> <b_lp_Chiralities_Consistent>
1

> <s_lp_Variant>
CHEMBL4618_lig103-1

> <s_i_glide_gridfile>
glide-grid_3chp

> <i_i_glide_lignum>
127

> <i_i_glide_rotatable_bonds>
7

> <r_i_docking_score>
-8.93572080959236

> <r_i_glide_ligand_efficiency>
-0.343681569599706

> <r_i_glide_ligand_efficiency_sa>
-1.01815529761745

> <r_i_glide_ligand_efficiency_ln>
-2.0985247116413

> <r_i_glide_gscore>
-8.93572080959236

> <r_i_glide_lipo>
-5.36280124116748

> <r_i_glide_hbond>
-0.236297055360126

> <r_i_glide_metal>
0

> <r_i_glide_rewards>
-1.22825833765312

> <r_i_glide_evdw>
-49.9672813415527

> <r_i_glide_ecoul>
-3.60925436019897

> <r_i_glide_erotb>
0.931388045695844

> <r_i_glide_esite>
0

> <r_i_glide_emodel>
-74.0689737070242

> <r_i_glide_energy>
-53.5765357017517

> <r_i_glide_einternal>
9.73545074462891

> <i_i_glide_confnum>
10

> <i_i_glide_posenum>
40

> <r_i_glide_eff_state_penalty>
0

> <s_user_duplicate_titles>
CHEMBL4618_lig103,192670

> <s_m_subgroup_title>
dock_pv

> <s_m_subgroupid>
dock_pv

> <b_m_subgroup_collapsed>
1

$$$$
CHEMBL4618_lig356
                    3D
 Schrodinger Suite 2021-1.
 52 55  0  0  1  0            999 V2000
    8.5208   39.8158   69.9915 C   0  0  0  0  0  0
    8.5043   38.4511   69.7155 C   0  0  0  0  0  0
    8.4786   38.0874   68.3552 C   0  0  0  0  0  0
    8.5212   39.0527   67.3436 C   0  0  0  0  0  0
    8.5648   40.4071   67.6810 C   0  0  0  0  0  0
    8.5208   40.7864   69.0059 C   0  0  0  0  0  0
    8.7184   41.3933   66.7400 O   0  0  0  0  0  0
    9.9873   41.8444   66.4202 C   0  0  0  0  0  0
   10.1045   43.0364   65.7107 C   0  0  0  0  0  0
   11.3575   43.4869   65.2939 C   0  0  0  0  0  0
   12.5125   42.7617   65.5749 C   0  0  0  0  0  0
   12.3988   41.5860   66.3242 C   0  0  0  0  0  0
   11.1479   41.1345   66.7399 C   0  0  0  0  0  0
   13.7075   43.2891   65.1223 O   0  0  0  0  0  0
   14.7974   42.4200   64.7840 C   0  0  0  0  0  0
   16.1387   43.0013   65.2889 C   0  0  2  0  0  0
   17.3235   42.0319   65.0420 C   0  0  0  0  0  0
   18.6673   42.5883   65.5586 C   0  0  0  0  0  0
   18.5395   43.1257   66.9916 C   0  0  0  0  0  0
   17.3342   44.0652   67.1509 C   0  0  0  0  0  0
   16.1085   43.4162   66.6932 N   0  0  1  0  0  0
    8.6208   37.4528   70.8436 C   0  0  0  0  0  0
    8.9313   37.8344   72.1585 C   0  0  0  0  0  0
    9.3015   36.9112   73.1324 C   0  0  0  0  0  0
    9.3211   35.5621   72.8204 C   0  0  0  0  0  0
    8.8901   35.1436   71.5706 C   0  0  0  0  0  0
    8.5209   36.0837   70.6102 C   0  0  0  0  0  0
    8.5211   40.1779   71.0014 H   0  0  0  0  0  0
    8.4929   37.0525   68.0518 H   0  0  0  0  0  0
    8.5610   38.7511   66.3065 H   0  0  0  0  0  0
    8.5357   41.8342   69.2673 H   0  0  0  0  0  0
    9.2153   43.6020   65.4737 H   0  0  0  0  0  0
   11.4453   44.4098   64.7457 H   0  0  0  0  0  0
   13.2668   41.0146   66.6090 H   0  0  0  0  0  0
   11.0717   40.2174   67.3002 H   0  0  0  0  0  0
   14.8257   42.3429   63.6951 H   0  0  0  0  0  0
   14.6845   41.3980   65.1374 H   0  0  0  0  0  0
   16.3224   43.9211   64.7401 H   0  0  0  0  0  0
   17.4108   41.8197   63.9740 H   0  0  0  0  0  0
   17.1302   41.0831   65.5402 H   0  0  0  0  0  0
   19.0067   43.3867   64.8961 H   0  0  0  0  0  0
   19.4394   41.8174   65.5398 H   0  0  0  0  0  0
   19.4498   43.6658   67.2542 H   0  0  0  0  0  0
   18.4745   42.3171   67.7200 H   0  0  0  0  0  0
   17.4886   44.9844   66.5831 H   0  0  0  0  0  0
   17.2088   44.3426   68.1983 H   0  0  0  0  0  0
   15.3175   44.0372   66.8195 H   0  0  0  0  0  0
    8.9209   38.8641   72.4538 H   0  0  0  0  0  0
    9.5807   37.2387   74.1215 H   0  0  0  0  0  0
    9.6160   34.8375   73.5665 H   0  0  0  0  0  0
    8.8443   34.0886   71.3448 H   0  0  0  0  0  0
    8.1982   35.7238   69.6479 H   0  0  0  0  0  0
  1  2  2  0  0  0
  1  6  1  0  0  0
  1 28  1  0  0  0
  2  3  1  0  0  0
  2 22  1  0  0  0
  3  4  2  0  0  0
  3 29  1  0  0  0
  4  5  1  0  0  0
  4 30  1  0  0  0
  5  7  1  0  0  0
  5  6  2  0  0  0
  6 31  1  0  0  0
  7  8  1  0  0  0
  8 13  1  0  0  0
  8  9  2  0  0  0
  9 10  1  0  0  0
  9 32  1  0  0  0
 10 11  2  0  0  0
 10 33  1  0  0  0
 11 14  1  0  0  0
 11 12  1  0  0  0
 12 13  2  0  0  0
 12 34  1  0  0  0
 13 35  1  0  0  0
 14 15  1  0  0  0
 15 16  1  0  0  0
 15 36  1  0  0  0
 15 37  1  0  0  0
 16 17  1  0  0  0
 16 21  1  0  0  0
 16 38  1  0  0  0
 17 18  1  0  0  0
 17 39  1  0  0  0
 17 40  1  0  0  0
 18 19  1  0  0  0
 18 41  1  0  0  0
 18 42  1  0  0  0
 19 20  1  0  0  0
 19 43  1  0  0  0
 19 44  1  0  0  0
 20 21  1  0  0  0
 20 45  1  0  0  0
 20 46  1  0  0  0
 21 47  1  0  0  0
 22 23  2  0  0  0
 22 27  1  0  0  0
 23 24  1  0  0  0
 23 48  1  0  0  0
 24 25  2  0  0  0
 24 49  1  0  0  0
 25 26  1  0  0  0
 25 50  1  0  0  0
 26 27  2  0  0  0
 26 51  1  0  0  0
 27 52  1  0  0  0
M  END
> <s_m_entry_id>
6863

> <s_m_entry_name>
dock_pv.293

> <s_m_Source_Path>
/home/csk/Desktop/cluster/DUD-E-result/lkha4

> <s_m_Source_File>
dock_pv.maegz

> <i_m_Source_File_Index>
293

> <chembl_id>
CHEMBL1095881

> <chembl_pref_name>
None

> <i_lp_mmshare_version>
53161

> <i_f3d_flags>
0

> <r_lp_tautomer_probability>
1

> <s_lp_Force_Field>
OPLS_2005

> <r_lp_Energy>
36.665264

> <b_lp_Chiralities_Consistent>
1

> <s_lp_Variant>
CHEMBL4618_lig356-1

> <s_i_glide_gridfile>
glide-grid_3chp

> <i_i_glide_lignum>
402

> <i_i_glide_rotatable_bonds>
6

> <r_i_docking_score>
-8.93162880850368

> <r_i_glide_ligand_efficiency>
-0.330801066981618

> <r_i_glide_ligand_efficiency_sa>
-0.992403199854587

> <r_i_glide_ligand_efficiency_ln>
-2.07913593721058

> <r_i_glide_gscore>
-8.93162880850368

> <r_i_glide_lipo>
-5.43376801749328

> <r_i_glide_hbond>
-0.0943704514862145

> <r_i_glide_metal>
0

> <r_i_glide_rewards>
-1.71590639352152

> <r_i_glide_evdw>
-39.9650001525879

> <r_i_glide_ecoul>
-3.86259961128235

> <r_i_glide_erotb>
0.89005600331908

> <r_i_glide_esite>
0

> <r_i_glide_emodel>
-47.6148895668406

> <r_i_glide_energy>
-43.8275997638702

> <r_i_glide_einternal>
8.32491207122803

> <i_i_glide_confnum>
6

> <i_i_glide_posenum>
223

> <r_i_glide_eff_state_penalty>
0

> <s_user_duplicate_titles>
CHEMBL4618_lig356,627414

> <s_m_subgroup_title>
dock_pv

> <s_m_subgroupid>
dock_pv

> <b_m_subgroup_collapsed>
1

$$$$
CHEMBL4618_lig201
                    3D
 Schrodinger Suite 2021-1.
 47 48  0  0  1  0            999 V2000
    7.8313   40.7098   68.7739 C   0  0  0  0  0  0
    7.7222   42.0740   68.5686 C   0  0  0  0  0  0
    8.5682   42.7208   67.6750 C   0  0  0  0  0  0
    9.5686   42.0072   67.0161 C   0  0  0  0  0  0
    9.6433   40.6153   67.1928 C   0  0  0  0  0  0
    8.7765   39.9590   68.0700 C   0  0  0  0  0  0
   10.4512   42.7520   66.2164 N   0  0  0  0  0  0
   11.7401   42.4656   65.9407 C   0  0  0  0  0  0
   12.3182   41.4558   66.3413 O   0  0  0  0  0  0
   12.5019   43.4931   65.0795 C   0  0  0  0  0  0
   14.0388   43.5338   65.3303 C   0  0  0  0  0  0
   14.9031   42.5967   64.4345 C   0  0  1  0  0  0
   16.3470   42.4938   64.9361 C   0  0  0  0  0  0
   14.2905   41.2691   64.2533 N   0  0  0  0  0  0
   16.9211   43.7018   65.1394 O   0  0  0  0  0  0
   16.9201   41.4265   65.1405 O   0  0  0  0  0  0
   18.2881   43.7991   65.5157 C   0  0  0  0  0  0
    8.9223   38.5982   68.2028 O   0  0  0  0  0  0
    7.9759   37.8401   68.9501 C   0  0  0  0  0  0
    8.5022   37.4349   70.3262 C   0  0  0  0  0  0
    8.1213   36.1862   70.7902 C   0  0  0  0  0  0
    8.6652   35.6432   71.9460 C   0  0  0  0  0  0
    9.5468   36.4027   72.7004 C   0  0  0  0  0  0
    9.8930   37.6830   72.2848 C   0  0  0  0  0  0
    9.3653   38.2159   71.1021 C   0  0  0  0  0  0
    7.1745   40.2662   69.5041 H   0  0  0  0  0  0
    6.9784   42.6138   69.1265 H   0  0  0  0  0  0
    8.4628   43.7880   67.5383 H   0  0  0  0  0  0
   10.3735   40.0246   66.6602 H   0  0  0  0  0  0
   10.1111   43.6599   65.9424 H   0  0  0  0  0  0
   12.0870   44.4779   65.2933 H   0  0  0  0  0  0
   12.2973   43.2830   64.0291 H   0  0  0  0  0  0
   14.2374   43.3372   66.3866 H   0  0  0  0  0  0
   14.3727   44.5567   65.1566 H   0  0  0  0  0  0
   14.9383   43.0176   63.4316 H   0  0  0  0  0  0
   14.5216   40.7657   63.3972 H   0  0  0  0  0  0
   14.1191   40.6666   65.0509 H   0  0  0  0  0  0
   18.5707   44.8469   65.6157 H   0  0  0  0  0  0
   18.9326   43.3478   64.7591 H   0  0  0  0  0  0
   18.4724   43.3015   66.4688 H   0  0  0  0  0  0
    6.9737   38.2600   69.0127 H   0  0  0  0  0  0
    7.8433   36.9345   68.3556 H   0  0  0  0  0  0
    7.4357   35.6055   70.2066 H   0  0  0  0  0  0
    8.4293   34.6295   72.2358 H   0  0  0  0  0  0
    9.9790   35.9917   73.6012 H   0  0  0  0  0  0
   10.6100   38.2179   72.8836 H   0  0  0  0  0  0
    9.6687   39.1930   70.7594 H   0  0  0  0  0  0
  1  6  1  0  0  0
  1  2  2  0  0  0
  1 26  1  0  0  0
  2  3  1  0  0  0
  2 27  1  0  0  0
  3  4  2  0  0  0
  3 28  1  0  0  0
  4  7  1  0  0  0
  4  5  1  0  0  0
  5  6  2  0  0  0
  5 29  1  0  0  0
  6 18  1  0  0  0
  7  8  1  0  0  0
  7 30  1  0  0  0
  8  9  2  0  0  0
  8 10  1  0  0  0
 10 11  1  0  0  0
 10 31  1  0  0  0
 10 32  1  0  0  0
 11 12  1  0  0  0
 11 33  1  0  0  0
 11 34  1  0  0  0
 12 13  1  0  0  0
 12 14  1  0  0  0
 12 35  1  0  0  0
 13 15  1  0  0  0
 13 16  2  0  0  0
 14 36  1  0  0  0
 14 37  1  0  0  0
 15 17  1  0  0  0
 17 38  1  0  0  0
 17 39  1  0  0  0
 17 40  1  0  0  0
 18 19  1  0  0  0
 19 20  1  0  0  0
 19 41  1  0  0  0
 19 42  1  0  0  0
 20 21  2  0  0  0
 20 25  1  0  0  0
 21 22  1  0  0  0
 21 43  1  0  0  0
 22 23  2  0  0  0
 22 44  1  0  0  0
 23 24  1  0  0  0
 23 45  1  0  0  0
 24 25  2  0  0  0
 24 46  1  0  0  0
 25 47  1  0  0  0
M  END
> <s_m_entry_id>
6864

> <s_m_entry_name>
dock_pv.294

> <s_m_Source_Path>
/home/csk/Desktop/cluster/DUD-E-result/lkha4

> <s_m_Source_File>
dock_pv.maegz

> <i_m_Source_File_Index>
294

> <chembl_id>
CHEMBL476901

> <chembl_pref_name>
None

> <i_lp_mmshare_version>
53161

> <i_f3d_flags>
0

> <r_lp_tautomer_probability>
1

> <s_lp_Force_Field>
OPLS_2005

> <r_lp_Energy>
25.461096

> <b_lp_Chiralities_Consistent>
1

> <s_lp_Variant>
CHEMBL4618_lig201-1

> <s_i_glide_gridfile>
glide-grid_3chp

> <i_i_glide_lignum>
229

> <i_i_glide_rotatable_bonds>
10

> <r_i_docking_score>
-8.92835241878987

> <r_i_glide_ligand_efficiency>
-0.357134096751595

> <r_i_glide_ligand_efficiency_sa>
-1.04426643270184

> <r_i_glide_ligand_efficiency_ln>
-2.11628708438433

> <r_i_glide_gscore>
-8.92835241878987

> <r_i_glide_lipo>
-4.15889784722443

> <r_i_glide_hbond>
-0.438932277145105

> <r_i_glide_metal>
0

> <r_i_glide_rewards>
-1.84495604730311

> <r_i_glide_evdw>
-46.7434997558594

> <r_i_glide_ecoul>
-10.0275573730469

> <r_i_glide_erotb>
1.45574234663277

> <r_i_glide_esite>
-0.1

> <r_i_glide_emodel>
-86.0793594203278

> <r_i_glide_energy>
-56.7710571289062

> <r_i_glide_einternal>
8.55392742156982

> <i_i_glide_confnum>
125

> <i_i_glide_posenum>
66

> <r_i_glide_eff_state_penalty>
0

> <s_user_duplicate_titles>
CHEMBL4618_lig201,507025

> <s_m_subgroup_title>
dock_pv

> <s_m_subgroupid>
dock_pv

> <b_m_subgroup_collapsed>
1

$$$$
CHEMBL4618_lig298
                    3D
 Schrodinger Suite 2021-1.
 44 47  0  0  1  0            999 V2000
    9.7197   34.9960   72.8254 C   0  0  0  0  0  0
   10.1926   36.1252   73.4772 C   0  0  0  0  0  0
    9.9762   37.3945   72.9495 C   0  0  0  0  0  0
    8.9191   35.1032   71.6884 C   0  0  0  0  0  0
    8.6613   36.3831   71.1741 C   0  0  0  0  0  0
    9.2056   37.5414   71.7807 C   0  0  0  0  0  0
    8.9212   38.7132   71.1409 N   0  0  0  0  0  0
    8.1513   38.5082   70.1090 C   0  0  0  0  0  0
    7.7210   36.8688   69.7720 S   0  0  0  0  0  0
    7.5711   39.4568   69.3060 O   0  0  0  0  0  0
    8.3610   40.2597   68.5219 C   0  0  0  0  0  0
    9.2963   39.7106   67.6482 C   0  0  0  0  0  0
   10.1209   40.5421   66.8989 C   0  0  0  0  0  0
   10.0405   41.9340   67.0302 C   0  0  0  0  0  0
    9.0114   42.4670   67.8085 C   0  0  0  0  0  0
    8.1725   41.6394   68.5530 C   0  0  0  0  0  0
   10.9351   42.8263   66.4582 O   0  0  0  0  0  0
   12.1103   42.3294   65.8094 C   0  0  0  0  0  0
   13.3075   43.2850   65.9655 C   0  0  0  0  0  0
   14.5436   42.6744   65.4563 N   0  0  0  0  0  0
   15.7232   43.5018   65.6616 C   0  0  0  0  0  0
   16.7966   42.9058   64.7482 C   0  0  0  0  0  0
   15.9987   42.2153   63.6391 C   0  0  0  0  0  0
   14.5402   42.4628   64.0122 C   0  0  0  0  0  0
    9.9307   34.0203   73.2408 H   0  0  0  0  0  0
   10.7763   36.0124   74.3796 H   0  0  0  0  0  0
   10.3995   38.2238   73.4729 H   0  0  0  0  0  0
    8.5212   34.2178   71.2144 H   0  0  0  0  0  0
    9.3968   38.6382   67.5660 H   0  0  0  0  0  0
   10.8334   40.0696   66.2431 H   0  0  0  0  0  0
    8.8730   43.5310   67.8598 H   0  0  0  0  0  0
    7.3972   42.0692   69.1711 H   0  0  0  0  0  0
   11.8783   42.2157   64.7521 H   0  0  0  0  0  0
   12.4402   41.3635   66.1986 H   0  0  0  0  0  0
   13.4300   43.5243   67.0222 H   0  0  0  0  0  0
   13.1025   44.2215   65.4484 H   0  0  0  0  0  0
   16.0005   43.4753   66.7160 H   0  0  0  0  0  0
   15.5351   44.5515   65.4364 H   0  0  0  0  0  0
   17.4422   42.2119   65.2856 H   0  0  0  0  0  0
   17.4321   43.6938   64.3417 H   0  0  0  0  0  0
   16.2094   42.6341   62.6570 H   0  0  0  0  0  0
   16.2086   41.1518   63.5697 H   0  0  0  0  0  0
   14.1102   43.3062   63.4679 H   0  0  0  0  0  0
   13.9089   41.6082   63.7664 H   0  0  0  0  0  0
  1  2  2  0  0  0
  1  4  1  0  0  0
  1 25  1  0  0  0
  2  3  1  0  0  0
  2 26  1  0  0  0
  3  6  2  0  0  0
  3 27  1  0  0  0
  4  5  2  0  0  0
  4 28  1  0  0  0
  5  9  1  0  0  0
  5  6  1  0  0  0
  6  7  1  0  0  0
  7  8  2  0  0  0
  8  9  1  0  0  0
  8 10  1  0  0  0
 10 11  1  0  0  0
 11 12  2  0  0  0
 11 16  1  0  0  0
 12 13  1  0  0  0
 12 29  1  0  0  0
 13 14  2  0  0  0
 13 30  1  0  0  0
 14 15  1  0  0  0
 14 17  1  0  0  0
 15 16  2  0  0  0
 15 31  1  0  0  0
 16 32  1  0  0  0
 17 18  1  0  0  0
 18 19  1  0  0  0
 18 33  1  0  0  0
 18 34  1  0  0  0
 19 20  1  0  0  0
 19 35  1  0  0  0
 19 36  1  0  0  0
 20 21  1  0  0  0
 20 24  1  0  0  0
 21 22  1  0  0  0
 21 37  1  0  0  0
 21 38  1  0  0  0
 22 23  1  0  0  0
 22 39  1  0  0  0
 22 40  1  0  0  0
 23 24  1  0  0  0
 23 41  1  0  0  0
 23 42  1  0  0  0
 24 43  1  0  0  0
 24 44  1  0  0  0
M  END
> <s_m_entry_id>
6865

> <s_m_entry_name>
dock_pv.295

> <s_m_Source_Path>
/home/csk/Desktop/cluster/DUD-E-result/lkha4

> <s_m_Source_File>
dock_pv.maegz

> <i_m_Source_File_Index>
295

> <chembl_id>
CHEMBL519127

> <chembl_pref_name>
None

> <i_lp_mmshare_version>
53161

> <i_f3d_flags>
0

> <r_lp_tautomer_probability>
1

> <s_lp_Force_Field>
OPLS_2005

> <r_lp_Energy>
38.926405

> <b_lp_Chiralities_Consistent>
1

> <s_lp_Variant>
CHEMBL4618_lig298-1

> <s_i_glide_gridfile>
glide-grid_3chp

> <i_i_glide_lignum>
336

> <i_i_glide_rotatable_bonds>
6

> <r_i_docking_score>
-8.92807080198624

> <r_i_glide_ligand_efficiency>
-0.37200295008276

> <r_i_glide_ligand_efficiency_sa>
-1.07304218868317

> <r_i_glide_ligand_efficiency_ln>
-2.13689702538914

> <r_i_glide_gscore>
-8.92807080198624

> <r_i_glide_lipo>
-5.03760074374798

> <r_i_glide_hbond>
0

> <r_i_glide_metal>
0

> <r_i_glide_rewards>
-1.69542269049518

> <r_i_glide_evdw>
-46.689208984375

> <r_i_glide_ecoul>
-4.51707077026367

> <r_i_glide_erotb>
0.816973697015219

> <r_i_glide_esite>
0

> <r_i_glide_emodel>
-71.5831442743704

> <r_i_glide_energy>
-51.2062797546387

> <r_i_glide_einternal>
10.3456354141235

> <i_i_glide_confnum>
8

> <i_i_glide_posenum>
211

> <r_i_glide_eff_state_penalty>
0

> <s_user_duplicate_titles>
CHEMBL4618_lig298,467515

> <s_m_subgroup_title>
dock_pv

> <s_m_subgroupid>
dock_pv

> <b_m_subgroup_collapsed>
1

$$$$
CHEMBL4618_lig407
                    3D
 Schrodinger Suite 2021-1.
 54 58  0  0  1  0            999 V2000
   10.8864   35.3950   74.4818 C   0  0  0  0  0  0
   10.4683   36.6293   73.9838 C   0  0  0  0  0  0
    9.7869   34.2159   72.6596 N   0  0  0  0  0  0
   10.5606   34.2363   73.7764 C   0  0  0  0  0  0
    9.3395   35.3872   72.2172 C   0  0  0  0  0  0
    9.7117   36.6170   72.8038 C   0  0  0  0  0  0
    9.1104   37.9012   71.7847 S   0  0  0  0  0  0
    8.4203   36.6934   70.7171 C   0  0  0  0  0  0
    8.5233   35.4710   71.1395 N   0  0  0  0  0  0
    7.8802   37.0135   69.4849 O   0  0  0  0  0  0
    8.0958   38.2193   68.8473 C   0  0  0  0  0  0
    7.7223   39.4311   69.4038 C   0  0  0  0  0  0
    7.9133   40.6340   68.7358 C   0  0  0  0  0  0
    8.5167   40.6253   67.4794 C   0  0  0  0  0  0
    8.8990   39.4158   66.9055 C   0  0  0  0  0  0
    8.6518   38.2204   67.5761 C   0  0  0  0  0  0
    8.6230   41.7834   66.7480 O   0  0  0  0  0  0
    9.4456   42.8071   67.2965 C   0  0  0  0  0  0
   10.9193   42.3702   67.2902 C   0  0  0  0  0  0
   11.4658   42.3662   65.9363 N   0  0  2  0  0  0
   12.5375   41.4023   65.7488 C   0  0  0  0  0  0
   12.0038   43.6665   65.5475 C   0  0  0  0  0  0
   13.2346   43.4040   64.6666 C   0  0  2  0  0  0
   13.3217   41.9072   64.5405 C   0  0  1  0  0  0
   14.7793   41.5254   64.5603 C   0  0  0  0  0  0
   15.4367   42.6838   65.1385 N   0  0  0  0  0  0
   14.5594   43.8385   65.2957 C   0  0  0  0  0  0
   16.7266   42.6170   65.5029 C   0  0  0  0  0  0
   17.3210   41.5365   65.4739 O   0  0  0  0  0  0
   17.4424   43.8719   65.9941 C   0  0  0  0  0  0
   11.4844   35.3352   75.3794 H   0  0  0  0  0  0
   10.7685   37.5506   74.4575 H   0  0  0  0  0  0
   10.9260   33.2733   74.1126 H   0  0  0  0  0  0
    7.2114   39.4151   70.3418 H   0  0  0  0  0  0
    7.5555   41.5547   69.1713 H   0  0  0  0  0  0
    9.3604   39.3943   65.9351 H   0  0  0  0  0  0
    8.9212   37.2879   67.1135 H   0  0  0  0  0  0
    9.1292   43.0460   68.3122 H   0  0  0  0  0  0
    9.3045   43.7174   66.7120 H   0  0  0  0  0  0
   10.9820   41.3643   67.7039 H   0  0  0  0  0  0
   11.5131   43.0123   67.9406 H   0  0  0  0  0  0
   12.1382   40.4015   65.5830 H   0  0  0  0  0  0
   13.1750   41.3109   66.6312 H   0  0  0  0  0  0
   11.2287   44.1910   64.9879 H   0  0  0  0  0  0
   12.2950   44.2179   66.4338 H   0  0  0  0  0  0
   13.1032   43.8531   63.6788 H   0  0  0  0  0  0
   12.9296   41.5988   63.5852 H   0  0  0  0  0  0
   15.1292   41.3808   63.5383 H   0  0  0  0  0  0
   14.9103   40.6160   65.1334 H   0  0  0  0  0  0
   14.9167   44.6905   64.7411 H   0  0  0  0  0  0
   14.4466   44.0449   66.3606 H   0  0  0  0  0  0
   16.9668   44.2643   66.8948 H   0  0  0  0  0  0
   18.4861   43.6518   66.2187 H   0  0  0  0  0  0
   17.4210   44.6338   65.2173 H   0  0  0  0  0  0
  1  2  2  0  0  0
  1  4  1  0  0  0
  1 31  1  0  0  0
  2  6  1  0  0  0
  2 32  1  0  0  0
  3  5  1  0  0  0
  3  4  2  0  0  0
  4 33  1  0  0  0
  5  6  2  0  0  0
  5  9  1  0  0  0
  6  7  1  0  0  0
  7  8  1  0  0  0
  8  9  2  0  0  0
  8 10  1  0  0  0
 10 11  1  0  0  0
 11 12  2  0  0  0
 11 16  1  0  0  0
 12 13  1  0  0  0
 12 34  1  0  0  0
 13 14  2  0  0  0
 13 35  1  0  0  0
 14 15  1  0  0  0
 14 17  1  0  0  0
 15 16  2  0  0  0
 15 36  1  0  0  0
 16 37  1  0  0  0
 17 18  1  0  0  0
 18 19  1  0  0  0
 18 38  1  0  0  0
 18 39  1  0  0  0
 19 20  1  0  0  0
 19 40  1  0  0  0
 19 41  1  0  0  0
 20 21  1  0  0  0
 20 22  1  0  0  0
 21 24  1  0  0  0
 21 42  1  0  0  0
 21 43  1  0  0  0
 22 23  1  0  0  0
 22 44  1  0  0  0
 22 45  1  0  0  0
 23 24  1  0  0  0
 23 27  1  0  0  0
 23 46  1  0  0  0
 24 25  1  0  0  0
 24 47  1  0  0  0
 25 26  1  0  0  0
 25 48  1  0  0  0
 25 49  1  0  0  0
 26 27  1  0  0  0
 26 28  1  0  0  0
 27 50  1  0  0  0
 27 51  1  0  0  0
 28 29  2  0  0  0
 28 30  1  0  0  0
 30 52  1  0  0  0
 30 53  1  0  0  0
 30 54  1  0  0  0
M  END
> <s_m_entry_id>
6866

> <s_m_entry_name>
dock_pv.296

> <s_m_Source_Path>
/home/csk/Desktop/cluster/DUD-E-result/lkha4

> <s_m_Source_File>
dock_pv.maegz

> <i_m_Source_File_Index>
296

> <chembl_id>
CHEMBL2207739

> <chembl_pref_name>
None

> <i_lp_mmshare_version>
53161

> <i_f3d_flags>
0

> <r_lp_tautomer_probability>
1

> <s_lp_Force_Field>
OPLS_2005

> <r_lp_Energy>
61.721783

> <b_lp_Chiralities_Consistent>
1

> <s_lp_Variant>
CHEMBL4618_lig407-1

> <s_i_glide_gridfile>
glide-grid_3chp

> <i_i_glide_lignum>
474

> <i_i_glide_rotatable_bonds>
7

> <r_i_docking_score>
-8.92099828416846

> <r_i_glide_ligand_efficiency>
-0.297366609472282

> <r_i_glide_ligand_efficiency_sa>
-0.923987194090007

> <r_i_glide_ligand_efficiency_ln>
-2.02694801222465

> <r_i_glide_gscore>
-8.92099828416846

> <r_i_glide_lipo>
-5.47741022106055

> <r_i_glide_hbond>
-0.32

> <r_i_glide_metal>
0

> <r_i_glide_rewards>
0.0548538657950772

> <r_i_glide_evdw>
-45.4881591796875

> <r_i_glide_ecoul>
-9.09476375579834

> <r_i_glide_erotb>
0.660180593451144

> <r_i_glide_esite>
-0.2

> <r_i_glide_emodel>
-73.5333596015346

> <r_i_glide_energy>
-54.5829229354858

> <r_i_glide_einternal>
10.834755897522

> <i_i_glide_confnum>
3

> <i_i_glide_posenum>
122

> <r_i_glide_eff_state_penalty>
0

> <s_user_duplicate_titles>
CHEMBL4618_lig407

> <s_m_subgroup_title>
dock_pv

> <s_m_subgroupid>
dock_pv

> <b_m_subgroup_collapsed>
1

$$$$
CHEMBL4618_lig186
                    3D
 Schrodinger Suite 2021-1.
 47 48  0  0  1  0            999 V2000
   10.1254   37.4776   72.8340 C   0  0  0  0  0  0
   10.1217   36.1614   73.2750 C   0  0  0  0  0  0
    9.3465   35.2185   72.6236 C   0  0  0  0  0  0
    8.5210   35.6153   71.5819 C   0  0  0  0  0  0
    8.4739   36.9401   71.1538 C   0  0  0  0  0  0
    9.3029   37.8726   71.7770 C   0  0  0  0  0  0
    7.4949   37.3205   70.0377 C   0  0  0  0  0  0
    7.3766   38.7324   69.8498 O   0  0  0  0  0  0
    8.0269   39.3811   68.8196 C   0  0  0  0  0  0
    8.5250   38.7501   67.6739 C   0  0  0  0  0  0
    9.3177   39.4642   66.7844 C   0  0  0  0  0  0
    9.6466   40.7943   67.0431 C   0  0  0  0  0  0
    8.9940   41.4750   68.0777 C   0  0  0  0  0  0
    8.1795   40.7625   68.9569 C   0  0  0  0  0  0
   10.7385   41.3385   66.3410 N   0  0  0  0  0  0
   10.9187   42.6137   65.9519 C   0  0  0  0  0  0
   10.0117   43.4399   65.9553 O   0  0  0  0  0  0
   12.3116   43.0401   65.4311 C   0  0  0  0  0  0
   13.4908   42.0203   65.5262 C   0  0  0  0  0  0
   14.8861   42.7149   65.5636 C   0  0  0  0  0  0
   16.0484   41.9001   65.1389 N   0  0  0  0  0  0
   15.9480   41.6825   63.6998 C   0  0  0  0  0  0
   17.2706   42.6711   65.3842 C   0  0  0  0  0  0
   10.7418   38.2079   73.3392 H   0  0  0  0  0  0
   10.7422   35.8670   74.1079 H   0  0  0  0  0  0
    9.3558   34.1933   72.9538 H   0  0  0  0  0  0
    7.8720   34.8903   71.1403 H   0  0  0  0  0  0
    9.2852   38.9076   71.4680 H   0  0  0  0  0  0
    6.4974   37.0195   70.3431 H   0  0  0  0  0  0
    7.7084   36.7367   69.1444 H   0  0  0  0  0  0
    8.3652   37.7039   67.4684 H   0  0  0  0  0  0
    9.7494   38.9461   65.9428 H   0  0  0  0  0  0
    9.1961   42.5193   68.2718 H   0  0  0  0  0  0
    7.7248   41.2667   69.7989 H   0  0  0  0  0  0
   11.4446   40.6739   66.0619 H   0  0  0  0  0  0
   12.5721   43.9252   66.0114 H   0  0  0  0  0  0
   12.2073   43.3749   64.3977 H   0  0  0  0  0  0
   13.4235   41.2402   64.7688 H   0  0  0  0  0  0
   13.3864   41.4901   66.4754 H   0  0  0  0  0  0
   15.0561   43.0266   66.5990 H   0  0  0  0  0  0
   14.8468   43.6546   65.0088 H   0  0  0  0  0  0
   15.1494   40.9578   63.5390 H   0  0  0  0  0  0
   16.8583   41.2608   63.2669 H   0  0  0  0  0  0
   15.7248   42.6082   63.1569 H   0  0  0  0  0  0
   17.3881   42.8915   66.4463 H   0  0  0  0  0  0
   18.1546   42.1174   65.0731 H   0  0  0  0  0  0
   17.2715   43.6189   64.8423 H   0  0  0  0  0  0
  1  6  1  0  0  0
  1  2  2  0  0  0
  1 24  1  0  0  0
  2  3  1  0  0  0
  2 25  1  0  0  0
  3  4  2  0  0  0
  3 26  1  0  0  0
  4  5  1  0  0  0
  4 27  1  0  0  0
  5  6  2  0  0  0
  5  7  1  0  0  0
  6 28  1  0  0  0
  7  8  1  0  0  0
  7 29  1  0  0  0
  7 30  1  0  0  0
  8  9  1  0  0  0
  9 14  1  0  0  0
  9 10  2  0  0  0
 10 11  1  0  0  0
 10 31  1  0  0  0
 11 12  2  0  0  0
 11 32  1  0  0  0
 12 13  1  0  0  0
 12 15  1  0  0  0
 13 14  2  0  0  0
 13 33  1  0  0  0
 14 34  1  0  0  0
 15 16  1  0  0  0
 15 35  1  0  0  0
 16 17  2  0  0  0
 16 18  1  0  0  0
 18 19  1  0  0  0
 18 36  1  0  0  0
 18 37  1  0  0  0
 19 20  1  0  0  0
 19 38  1  0  0  0
 19 39  1  0  0  0
 20 21  1  0  0  0
 20 40  1  0  0  0
 20 41  1  0  0  0
 21 22  1  0  0  0
 21 23  1  0  0  0
 22 42  1  0  0  0
 22 43  1  0  0  0
 22 44  1  0  0  0
 23 45  1  0  0  0
 23 46  1  0  0  0
 23 47  1  0  0  0
M  END
> <s_m_entry_id>
6867

> <s_m_entry_name>
dock_pv.297

> <s_m_Source_Path>
/home/csk/Desktop/cluster/DUD-E-result/lkha4

> <s_m_Source_File>
dock_pv.maegz

> <i_m_Source_File_Index>
297

> <chembl_id>
CHEMBL478373

> <chembl_pref_name>
None

> <i_lp_mmshare_version>
53161

> <i_f3d_flags>
0

> <r_lp_tautomer_probability>
1

> <s_lp_Force_Field>
OPLS_2005

> <r_lp_Energy>
26.846331

> <b_lp_Chiralities_Consistent>
1

> <s_lp_Variant>
CHEMBL4618_lig186-1

> <s_i_glide_gridfile>
glide-grid_3chp

> <i_i_glide_lignum>
213

> <i_i_glide_rotatable_bonds>
9

> <r_i_docking_score>
-8.90542616221732

> <r_i_glide_ligand_efficiency>
-0.387192441835536

> <r_i_glide_ligand_efficiency_sa>
-1.10112379903332

> <r_i_glide_ligand_efficiency_ln>
-2.15341279596409

> <r_i_glide_gscore>
-8.90542616221732

> <r_i_glide_lipo>
-4.64288368361026

> <r_i_glide_hbond>
-0.32

> <r_i_glide_metal>
0

> <r_i_glide_rewards>
-1.83311122546331

> <r_i_glide_evdw>
-43.8285903930664

> <r_i_glide_ecoul>
-9.59526824951172

> <r_i_glide_erotb>
1.52128850393633

> <r_i_glide_esite>
0

> <r_i_glide_emodel>
-76.5897505108522

> <r_i_glide_energy>
-53.4238586425781

> <r_i_glide_einternal>
12.6571340560913

> <i_i_glide_confnum>
51

> <i_i_glide_posenum>
375

> <r_i_glide_eff_state_penalty>
0

> <s_user_duplicate_titles>
CHEMBL4618_lig186

> <s_m_subgroup_title>
dock_pv

> <s_m_subgroupid>
dock_pv

> <b_m_subgroup_collapsed>
1

$$$$
CHEMBL4618_lig60
                    3D
 Schrodinger Suite 2021-1.
 43 45  0  0  1  0            999 V2000
   11.0088   42.7049   65.6323 N   0  0  0  0  0  0
   10.4315   35.7170   73.7368 N   0  0  0  0  0  0
    8.1208   37.9179   69.5298 C   0  0  0  0  0  0
    7.7213   36.8171   70.5129 C   0  0  0  0  0  0
    8.6585   39.9985   67.7139 C   0  0  0  0  0  0
    8.1209   39.2373   69.9408 C   0  0  0  0  0  0
    8.3691   37.6437   68.1947 C   0  0  0  0  0  0
    8.6397   38.6694   67.2898 C   0  0  0  0  0  0
    8.3762   40.2798   69.0562 C   0  0  0  0  0  0
    8.6990   36.4457   71.6330 C   0  0  0  0  0  0
    8.9516   40.9555   66.7606 O   0  0  0  0  0  0
    9.6734   43.1740   66.0206 C   0  0  0  0  0  0
    9.0198   42.3314   67.1394 C   0  0  0  0  0  0
   11.9778   42.5828   66.7090 C   0  0  0  0  0  0
   11.6805   43.5520   64.6620 C   0  0  0  0  0  0
    9.8710   34.7820   72.9327 C   0  0  0  0  0  0
   10.1248   37.0148   73.4910 C   0  0  0  0  0  0
    8.9853   35.1009   71.9009 C   0  0  0  0  0  0
    9.2806   37.4159   72.4582 C   0  0  0  0  0  0
   13.1323   43.0763   64.6402 C   0  0  0  0  0  0
   13.3376   42.4510   66.0221 C   0  0  0  0  0  0
    6.8049   37.1513   70.9947 H   0  0  0  0  0  0
    7.4470   35.9233   69.9519 H   0  0  0  0  0  0
    7.8669   39.4161   70.9666 H   0  0  0  0  0  0
    8.3788   36.6163   67.8811 H   0  0  0  0  0  0
    8.8557   38.4359   66.2569 H   0  0  0  0  0  0
    8.3386   41.2916   69.4308 H   0  0  0  0  0  0
    9.7199   44.2157   66.3398 H   0  0  0  0  0  0
    9.0255   43.1522   65.1447 H   0  0  0  0  0  0
    9.5946   42.4685   68.0562 H   0  0  0  0  0  0
    8.0119   42.7024   67.3337 H   0  0  0  0  0  0
   11.7199   41.6913   67.2784 H   0  0  0  0  0  0
   11.9354   43.4140   67.4130 H   0  0  0  0  0  0
   11.5949   44.6132   64.9071 H   0  0  0  0  0  0
   11.1868   43.4194   63.6998 H   0  0  0  0  0  0
   10.1141   33.7536   73.1563 H   0  0  0  0  0  0
   10.5822   37.7425   74.1435 H   0  0  0  0  0  0
    8.5234   34.3152   71.3206 H   0  0  0  0  0  0
    9.0800   38.4643   72.3348 H   0  0  0  0  0  0
   13.8158   43.9069   64.4626 H   0  0  0  0  0  0
   13.2944   42.3479   63.8426 H   0  0  0  0  0  0
   13.6281   41.4036   65.9381 H   0  0  0  0  0  0
   14.1115   42.9672   66.5896 H   0  0  0  0  0  0
  1 12  1  0  0  0
  1 14  1  0  0  0
  1 15  1  0  0  0
  2 17  1  0  0  0
  2 16  2  0  0  0
  3  6  1  0  0  0
  3  4  1  0  0  0
  3  7  2  0  0  0
  4 10  1  0  0  0
  4 22  1  0  0  0
  4 23  1  0  0  0
  5 11  1  0  0  0
  5  8  2  0  0  0
  5  9  1  0  0  0
  6  9  2  0  0  0
  6 24  1  0  0  0
  7  8  1  0  0  0
  7 25  1  0  0  0
  8 26  1  0  0  0
  9 27  1  0  0  0
 10 18  2  0  0  0
 10 19  1  0  0  0
 11 13  1  0  0  0
 12 13  1  0  0  0
 12 28  1  0  0  0
 12 29  1  0  0  0
 13 30  1  0  0  0
 13 31  1  0  0  0
 14 21  1  0  0  0
 14 32  1  0  0  0
 14 33  1  0  0  0
 15 20  1  0  0  0
 15 34  1  0  0  0
 15 35  1  0  0  0
 16 18  1  0  0  0
 16 36  1  0  0  0
 17 19  2  0  0  0
 17 37  1  0  0  0
 18 38  1  0  0  0
 19 39  1  0  0  0
 20 21  1  0  0  0
 20 40  1  0  0  0
 20 41  1  0  0  0
 21 42  1  0  0  0
 21 43  1  0  0  0
M  END
> <s_m_entry_id>
6868

> <s_m_entry_name>
dock_pv.298

> <s_m_Source_Path>
/home/csk/Desktop/cluster/DUD-E-result/lkha4

> <s_m_Source_File>
dock_pv.maegz

> <i_m_Source_File_Index>
298

> <chembl_id>
CHEMBL349368

> <chembl_pref_name>
None

> <i_lp_mmshare_version>
53161

> <i_f3d_flags>
0

> <r_lp_tautomer_probability>
1

> <s_lp_Force_Field>
OPLS_2005

> <r_lp_Energy>
34.919049

> <b_lp_Chiralities_Consistent>
1

> <s_lp_Variant>
CHEMBL4618_lig60-1

> <s_i_glide_gridfile>
glide-grid_3chp

> <i_i_glide_lignum>
78

> <i_i_glide_rotatable_bonds>
6

> <r_i_docking_score>
-8.90408998807545

> <r_i_glide_ligand_efficiency>
-0.42400428514645

> <r_i_glide_ligand_efficiency_sa>
-1.16979567199258

> <r_i_glide_ligand_efficiency_ln>
-2.2015182571437

> <r_i_glide_gscore>
-8.90408998807545

> <r_i_glide_lipo>
-5.39330261878443

> <r_i_glide_hbond>
0

> <r_i_glide_metal>
0

> <r_i_glide_rewards>
-2.38377005719195

> <r_i_glide_evdw>
-37.5431137084961

> <r_i_glide_ecoul>
-2.56245040893555

> <r_i_glide_erotb>
1.13450593466607

> <r_i_glide_esite>
0

> <r_i_glide_emodel>
-63.257371741645

> <r_i_glide_energy>
-40.1055641174316

> <r_i_glide_einternal>
1.98995649814606

> <i_i_glide_confnum>
1

> <i_i_glide_posenum>
389

> <r_i_glide_eff_state_penalty>
0

> <s_user_duplicate_titles>
CHEMBL4618_lig60,271650

> <s_m_subgroup_title>
dock_pv

> <s_m_subgroupid>
dock_pv

> <b_m_subgroup_collapsed>
1

$$$$
CHEMBL4618_lig22
                    3D
 Schrodinger Suite 2021-1.
 45 47  0  0  1  0            999 V2000
   11.5626   42.4206   66.1589 N   0  0  1  0  0  0
   11.3703   43.4165   65.1149 C   0  0  0  0  0  0
   13.7445   43.0576   65.3607 C   0  0  0  0  0  0
   12.9278   42.6859   66.6004 C   0  0  0  0  0  0
    8.0939   38.0020   69.6950 C   0  0  0  0  0  0
   12.6815   43.4233   64.3290 C   0  0  2  0  0  0
    7.6569   36.9843   70.7418 C   0  0  0  0  0  0
    8.6581   39.9495   67.7654 C   0  0  0  0  0  0
    8.2668   39.3311   70.0584 C   0  0  0  0  0  0
    8.1843   37.6489   68.3493 C   0  0  0  0  0  0
    8.4960   38.6162   67.3963 C   0  0  0  0  0  0
    8.5211   40.3098   69.1067 C   0  0  0  0  0  0
    8.6966   36.4832   71.7455 C   0  0  0  0  0  0
   10.6199   42.4825   67.2822 C   0  0  0  0  0  0
    8.9165   40.8290   66.7399 O   0  0  0  0  0  0
    9.1378   42.2209   66.9508 C   0  0  0  0  0  0
   12.9212   44.6167   63.6218 O   0  0  0  0  0  0
    8.9981   35.1201   71.8107 C   0  0  0  0  0  0
    9.2860   37.3533   72.6637 C   0  0  0  0  0  0
    9.9132   34.6341   72.7401 C   0  0  0  0  0  0
   10.1831   36.8665   73.6117 C   0  0  0  0  0  0
   10.4938   35.5100   73.6495 C   0  0  0  0  0  0
   11.1819   44.3813   65.5837 H   0  0  0  0  0  0
   10.4986   43.2277   64.4940 H   0  0  0  0  0  0
   14.3615   42.2267   65.0165 H   0  0  0  0  0  0
   14.3919   43.9044   65.5937 H   0  0  0  0  0  0
   13.3210   41.8014   67.0917 H   0  0  0  0  0  0
   12.9742   43.4696   67.3572 H   0  0  0  0  0  0
   12.6178   42.6161   63.5976 H   0  0  0  0  0  0
    6.8235   37.4157   71.3005 H   0  0  0  0  0  0
    7.2558   36.1266   70.2058 H   0  0  0  0  0  0
    8.1338   39.6170   71.0879 H   0  0  0  0  0  0
    8.0328   36.6247   68.0429 H   0  0  0  0  0  0
    8.5893   38.3402   66.3563 H   0  0  0  0  0  0
    8.6112   41.3339   69.4312 H   0  0  0  0  0  0
   10.9224   41.6768   67.9403 H   0  0  0  0  0  0
   10.7215   43.4162   67.8340 H   0  0  0  0  0  0
    8.4791   42.6284   67.7176 H   0  0  0  0  0  0
    8.8542   42.7437   66.0376 H   0  0  0  0  0  0
   13.8534   44.6303   63.3606 H   0  0  0  0  0  0
    8.5212   34.4247   71.1398 H   0  0  0  0  0  0
    9.0304   38.4002   72.6674 H   0  0  0  0  0  0
   10.1446   33.5792   72.7771 H   0  0  0  0  0  0
   10.6323   37.5355   74.3296 H   0  0  0  0  0  0
   11.1846   35.1349   74.3907 H   0  0  0  0  0  0
  1  2  1  0  0  0
  1  4  1  0  0  0
  1 14  1  0  0  0
  2  6  1  0  0  0
  2 23  1  0  0  0
  2 24  1  0  0  0
  3  4  1  0  0  0
  3  6  1  0  0  0
  3 25  1  0  0  0
  3 26  1  0  0  0
  4 27  1  0  0  0
  4 28  1  0  0  0
  5  9  2  0  0  0
  5  7  1  0  0  0
  5 10  1  0  0  0
  6 17  1  0  0  0
  6 29  1  0  0  0
  7 13  1  0  0  0
  7 30  1  0  0  0
  7 31  1  0  0  0
  8 15  1  0  0  0
  8 11  1  0  0  0
  8 12  2  0  0  0
  9 12  1  0  0  0
  9 32  1  0  0  0
 10 11  2  0  0  0
 10 33  1  0  0  0
 11 34  1  0  0  0
 12 35  1  0  0  0
 13 18  2  0  0  0
 13 19  1  0  0  0
 14 16  1  0  0  0
 14 36  1  0  0  0
 14 37  1  0  0  0
 15 16  1  0  0  0
 16 38  1  0  0  0
 16 39  1  0  0  0
 17 40  1  0  0  0
 18 20  1  0  0  0
 18 41  1  0  0  0
 19 21  2  0  0  0
 19 42  1  0  0  0
 20 22  2  0  0  0
 20 43  1  0  0  0
 21 22  1  0  0  0
 21 44  1  0  0  0
 22 45  1  0  0  0
M  END
> <s_m_entry_id>
6869

> <s_m_entry_name>
dock_pv.299

> <s_m_Source_Path>
/home/csk/Desktop/cluster/DUD-E-result/lkha4

> <s_m_Source_File>
dock_pv.maegz

> <i_m_Source_File_Index>
299

> <chembl_id>
CHEMBL115105

> <chembl_pref_name>
None

> <i_lp_mmshare_version>
53161

> <i_f3d_flags>
0

> <r_lp_tautomer_probability>
1

> <s_lp_Force_Field>
OPLS_2005

> <r_lp_Energy>
47.807455

> <b_lp_Chiralities_Consistent>
1

> <s_lp_Variant>
CHEMBL4618_lig22-2

> <s_i_glide_gridfile>
glide-grid_3chp

> <i_i_glide_lignum>
32

> <i_i_glide_rotatable_bonds>
7

> <r_i_docking_score>
-8.90251176752809

> <r_i_glide_ligand_efficiency>
-0.404659625796731

> <r_i_glide_ligand_efficiency_sa>
-1.13387218584245

> <r_i_glide_ligand_efficiency_ln>
-2.17609860299056

> <r_i_glide_gscore>
-8.90251176752809

> <r_i_glide_lipo>
-5.58237716424552

> <r_i_glide_hbond>
-0.576150735683542

> <r_i_glide_metal>
0

> <r_i_glide_rewards>
-2.28141301138595

> <r_i_glide_evdw>
-37.7979164123535

> <r_i_glide_ecoul>
-7.06925868988037

> <r_i_glide_erotb>
2.48771376788665

> <r_i_glide_esite>
0

> <r_i_glide_emodel>
-67.0284323119513

> <r_i_glide_energy>
-44.8671751022339

> <r_i_glide_einternal>
4.66908073425293

> <i_i_glide_confnum>
190

> <i_i_glide_posenum>
367

> <r_i_glide_eff_state_penalty>
0

> <s_user_duplicate_titles>
CHEMBL4618_lig22,188228

> <s_m_subgroup_title>
dock_pv

> <s_m_subgroupid>
dock_pv

> <b_m_subgroup_collapsed>
1

$$$$
CHEMBL4618_lig113
                    3D
 Schrodinger Suite 2021-1.
 45 47  0  0  1  0            999 V2000
    9.8090   35.7416   72.8322 N   0  0  0  0  0  0
    8.1211   37.2213   69.8483 N   0  0  0  0  0  0
    8.2925   38.4053   69.1096 C   0  0  0  0  0  0
    8.7783   40.7152   67.5894 C   0  0  0  0  0  0
    9.0179   41.9838   66.7685 C   0  0  0  0  0  0
    8.5119   38.3132   67.7385 C   0  0  0  0  0  0
    8.2998   39.6657   69.7060 C   0  0  0  0  0  0
    8.7710   39.4550   66.9872 C   0  0  0  0  0  0
    8.5155   40.8163   68.9519 C   0  0  0  0  0  0
   10.4253   42.2209   66.2159 C   0  0  0  0  0  0
    8.7033   37.1893   71.1910 C   0  0  0  0  0  0
    8.7402   35.7866   71.8327 C   0  0  0  0  0  0
    9.4491   36.3522   74.1002 C   0  0  0  0  0  0
   10.2039   34.4098   73.2492 C   0  0  0  0  0  0
   10.6870   43.4158   65.5416 C   0  0  0  0  0  0
   11.4541   41.2868   66.3610 C   0  0  0  0  0  0
   11.0592   34.6151   74.5018 C   0  0  0  0  0  0
   10.5490   35.9434   75.0748 C   0  0  0  0  0  0
   11.9614   43.6812   65.0425 C   0  0  0  0  0  0
   12.7303   41.5490   65.8689 C   0  0  0  0  0  0
   12.9809   42.7493   65.2075 C   0  0  0  0  0  0
    8.2948   36.3867   69.3050 H   0  0  0  0  0  0
    8.3121   41.9921   65.9404 H   0  0  0  0  0  0
    8.7500   42.8539   67.3716 H   0  0  0  0  0  0
    8.5219   37.3549   67.2469 H   0  0  0  0  0  0
    8.1222   39.7712   70.7626 H   0  0  0  0  0  0
    8.9782   39.3475   65.9396 H   0  0  0  0  0  0
    8.4867   41.7813   69.4369 H   0  0  0  0  0  0
    8.1429   37.8732   71.8286 H   0  0  0  0  0  0
    9.7153   37.5929   71.1353 H   0  0  0  0  0  0
    8.9200   35.0272   71.0742 H   0  0  0  0  0  0
    7.7860   35.5513   72.3093 H   0  0  0  0  0  0
    8.4521   36.0679   74.4401 H   0  0  0  0  0  0
    9.3995   37.4184   73.9396 H   0  0  0  0  0  0
   10.7346   33.9095   72.4371 H   0  0  0  0  0  0
    9.3215   33.8159   73.4444 H   0  0  0  0  0  0
    9.9041   44.1507   65.4305 H   0  0  0  0  0  0
   11.2743   40.3535   66.8654 H   0  0  0  0  0  0
   12.1211   34.6161   74.2575 H   0  0  0  0  0  0
   10.9212   33.8161   75.2244 H   0  0  0  0  0  0
   10.1452   35.8293   76.0814 H   0  0  0  0  0  0
   11.3255   36.7050   75.1206 H   0  0  0  0  0  0
   12.1660   44.6142   64.5398 H   0  0  0  0  0  0
   13.5162   40.8168   65.9871 H   0  0  0  0  0  0
   13.9666   42.9558   64.8151 H   0  0  0  0  0  0
  1 12  1  0  0  0
  1 13  1  0  0  0
  1 14  1  0  0  0
  2 11  1  0  0  0
  2  3  1  0  0  0
  2 22  1  0  0  0
  3  6  2  0  0  0
  3  7  1  0  0  0
  4  9  1  0  0  0
  4  5  1  0  0  0
  4  8  2  0  0  0
  5 10  1  0  0  0
  5 23  1  0  0  0
  5 24  1  0  0  0
  6  8  1  0  0  0
  6 25  1  0  0  0
  7  9  2  0  0  0
  7 26  1  0  0  0
  8 27  1  0  0  0
  9 28  1  0  0  0
 10 15  2  0  0  0
 10 16  1  0  0  0
 11 12  1  0  0  0
 11 29  1  0  0  0
 11 30  1  0  0  0
 12 31  1  0  0  0
 12 32  1  0  0  0
 13 18  1  0  0  0
 13 33  1  0  0  0
 13 34  1  0  0  0
 14 17  1  0  0  0
 14 35  1  0  0  0
 14 36  1  0  0  0
 15 19  1  0  0  0
 15 37  1  0  0  0
 16 20  2  0  0  0
 16 38  1  0  0  0
 17 18  1  0  0  0
 17 39  1  0  0  0
 17 40  1  0  0  0
 18 41  1  0  0  0
 18 42  1  0  0  0
 19 21  2  0  0  0
 19 43  1  0  0  0
 20 21  1  0  0  0
 20 44  1  0  0  0
 21 45  1  0  0  0
M  END
> <s_m_entry_id>
6870

> <s_m_entry_name>
dock_pv.300

> <s_m_Source_Path>
/home/csk/Desktop/cluster/DUD-E-result/lkha4

> <s_m_Source_File>
dock_pv.maegz

> <i_m_Source_File_Index>
300

> <chembl_id>
CHEMBL163494

> <chembl_pref_name>
None

> <i_lp_mmshare_version>
53161

> <i_f3d_flags>
0

> <r_lp_tautomer_probability>
1

> <s_lp_Force_Field>
OPLS_2005

> <r_lp_Energy>
32.002479

> <b_lp_Chiralities_Consistent>
1

> <s_lp_Variant>
CHEMBL4618_lig113-1

> <s_i_glide_gridfile>
glide-grid_3chp

> <i_i_glide_lignum>
139

> <i_i_glide_rotatable_bonds>
6

> <r_i_docking_score>
-8.89769860678867

> <r_i_glide_ligand_efficiency>
-0.423699933656603

> <r_i_glide_ligand_efficiency_sa>
-1.16895598930998

> <r_i_glide_ligand_efficiency_ln>
-2.19993800103554

> <r_i_glide_gscore>
-8.89769860678867

> <r_i_glide_lipo>
-5.50713970004234

> <r_i_glide_hbond>
0

> <r_i_glide_metal>
0

> <r_i_glide_rewards>
-2.2932597430777

> <r_i_glide_evdw>
-40.3713150024414

> <r_i_glide_ecoul>
-1.51430833339691

> <r_i_glide_erotb>
1.14841283646298

> <r_i_glide_esite>
0

> <r_i_glide_emodel>
-57.8188225161542

> <r_i_glide_energy>
-41.8856233358383

> <r_i_glide_einternal>
11.3243818283081

> <i_i_glide_confnum>
37

> <i_i_glide_posenum>
115

> <r_i_glide_eff_state_penalty>
0

> <s_user_duplicate_titles>
CHEMBL4618_lig113

> <s_m_subgroup_title>
dock_pv

> <s_m_subgroupid>
dock_pv

> <b_m_subgroup_collapsed>
1

$$$$
CHEMBL4618_lig299
                    3D
 Schrodinger Suite 2021-1.
 50 53  0  0  1  0            999 V2000
    9.7227   35.0112   73.0769 C   0  0  0  0  0  0
   10.2974   36.1457   73.6437 C   0  0  0  0  0  0
   10.1184   37.4109   73.0763 C   0  0  0  0  0  0
    8.9183   35.0928   71.9399 C   0  0  0  0  0  0
    8.6996   36.3689   71.4100 C   0  0  0  0  0  0
    9.2942   37.5269   71.9421 C   0  0  0  0  0  0
    8.9218   38.6159   71.2005 N   0  0  0  0  0  0
    8.1327   38.0874   70.2895 C   0  0  0  0  0  0
    7.9304   36.7383   70.3447 O   0  0  0  0  0  0
    7.4308   38.7666   69.3266 O   0  0  0  0  0  0
    8.1213   39.6734   68.5593 C   0  0  0  0  0  0
    8.9356   39.2079   67.5342 C   0  0  0  0  0  0
    9.7206   40.0980   66.8083 C   0  0  0  0  0  0
    9.6858   41.4704   67.0864 C   0  0  0  0  0  0
    8.7824   41.9404   68.0418 C   0  0  0  0  0  0
    8.0042   41.0460   68.7801 C   0  0  0  0  0  0
   10.4841   42.3984   66.4425 O   0  0  0  0  0  0
   11.7929   42.0143   65.9986 C   0  0  0  0  0  0
   12.2889   43.0404   64.9701 C   0  0  0  0  0  0
   13.6237   42.6729   64.2682 C   0  0  0  0  0  0
   14.8123   42.5615   65.1386 N   0  0  0  0  0  0
   15.9602   42.2183   64.2769 C   0  0  0  0  0  0
   17.3027   42.2207   65.0348 C   0  0  0  0  0  0
   17.5635   43.5622   65.7260 C   0  0  0  0  0  0
   16.3767   43.8950   66.6333 C   0  0  0  0  0  0
   15.0316   43.8161   65.8781 C   0  0  0  0  0  0
    9.8936   34.0499   73.5396 H   0  0  0  0  0  0
   10.9015   36.0426   74.5329 H   0  0  0  0  0  0
   10.5787   38.2637   73.5383 H   0  0  0  0  0  0
    8.4449   34.2151   71.5279 H   0  0  0  0  0  0
    8.9911   38.1492   67.3286 H   0  0  0  0  0  0
   10.3497   39.6859   66.0355 H   0  0  0  0  0  0
    8.7084   43.0013   68.2322 H   0  0  0  0  0  0
    7.3304   41.4158   69.5397 H   0  0  0  0  0  0
   11.8282   41.0284   65.5406 H   0  0  0  0  0  0
   12.4683   41.9928   66.8516 H   0  0  0  0  0  0
   12.3388   44.0368   65.4107 H   0  0  0  0  0  0
   11.5271   43.1242   64.1939 H   0  0  0  0  0  0
   13.8074   43.4001   63.4721 H   0  0  0  0  0  0
   13.4876   41.7117   63.7695 H   0  0  0  0  0  0
   16.0281   42.9394   63.4606 H   0  0  0  0  0  0
   15.7824   41.2547   63.7980 H   0  0  0  0  0  0
   18.1178   42.0258   64.3401 H   0  0  0  0  0  0
   17.3271   41.4162   65.7625 H   0  0  0  0  0  0
   18.4913   43.5250   66.3018 H   0  0  0  0  0  0
   17.6914   44.3414   64.9704 H   0  0  0  0  0  0
   16.3615   43.2509   67.5127 H   0  0  0  0  0  0
   16.4973   44.9014   67.0347 H   0  0  0  0  0  0
   14.9946   44.6159   65.1426 H   0  0  0  0  0  0
   14.2102   43.9867   66.5742 H   0  0  0  0  0  0
  1  4  1  0  0  0
  1  2  2  0  0  0
  1 27  1  0  0  0
  2  3  1  0  0  0
  2 28  1  0  0  0
  3  6  2  0  0  0
  3 29  1  0  0  0
  4  5  2  0  0  0
  4 30  1  0  0  0
  5  9  1  0  0  0
  5  6  1  0  0  0
  6  7  1  0  0  0
  7  8  2  0  0  0
  8  9  1  0  0  0
  8 10  1  0  0  0
 10 11  1  0  0  0
 11 16  1  0  0  0
 11 12  2  0  0  0
 12 13  1  0  0  0
 12 31  1  0  0  0
 13 14  2  0  0  0
 13 32  1  0  0  0
 14 15  1  0  0  0
 14 17  1  0  0  0
 15 16  2  0  0  0
 15 33  1  0  0  0
 16 34  1  0  0  0
 17 18  1  0  0  0
 18 19  1  0  0  0
 18 35  1  0  0  0
 18 36  1  0  0  0
 19 20  1  0  0  0
 19 37  1  0  0  0
 19 38  1  0  0  0
 20 21  1  0  0  0
 20 39  1  0  0  0
 20 40  1  0  0  0
 21 22  1  0  0  0
 21 26  1  0  0  0
 22 23  1  0  0  0
 22 41  1  0  0  0
 22 42  1  0  0  0
 23 24  1  0  0  0
 23 43  1  0  0  0
 23 44  1  0  0  0
 24 25  1  0  0  0
 24 45  1  0  0  0
 24 46  1  0  0  0
 25 26  1  0  0  0
 25 47  1  0  0  0
 25 48  1  0  0  0
 26 49  1  0  0  0
 26 50  1  0  0  0
M  END
> <s_m_entry_id>
6871

> <s_m_entry_name>
dock_pv.301

> <s_m_Source_Path>
/home/csk/Desktop/cluster/DUD-E-result/lkha4

> <s_m_Source_File>
dock_pv.maegz

> <i_m_Source_File_Index>
301

> <chembl_id>
CHEMBL517998

> <chembl_pref_name>
None

> <i_lp_mmshare_version>
53161

> <i_f3d_flags>
0

> <r_lp_tautomer_probability>
1

> <s_lp_Force_Field>
OPLS_2005

> <r_lp_Energy>
33.453356

> <b_lp_Chiralities_Consistent>
1

> <s_lp_Variant>
CHEMBL4618_lig299-1

> <s_i_glide_gridfile>
glide-grid_3chp

> <i_i_glide_lignum>
337

> <i_i_glide_rotatable_bonds>
7

> <r_i_docking_score>
-8.8963428510289

> <r_i_glide_ligand_efficiency>
-0.342167032731881

> <r_i_glide_ligand_efficiency_sa>
-1.01366848810594

> <r_i_glide_ligand_efficiency_ln>
-2.08927692728229

> <r_i_glide_gscore>
-8.8963428510289

> <r_i_glide_lipo>
-5.19846866401471

> <r_i_glide_hbond>
0

> <r_i_glide_metal>
0

> <r_i_glide_rewards>
-1.52797709592128

> <r_i_glide_evdw>
-52.0796432495117

> <r_i_glide_ecoul>
-3.25232791900635

> <r_i_glide_erotb>
0.921934259233633

> <r_i_glide_esite>
0

> <r_i_glide_emodel>
-75.7663180657776

> <r_i_glide_energy>
-55.3319711685181

> <r_i_glide_einternal>
14.6025810241699

> <i_i_glide_confnum>
31

> <i_i_glide_posenum>
347

> <r_i_glide_eff_state_penalty>
0

> <s_user_duplicate_titles>
CHEMBL4618_lig299,467584

> <s_m_subgroup_title>
dock_pv

> <s_m_subgroupid>
dock_pv

> <b_m_subgroup_collapsed>
1

$$$$
CHEMBL4618_lig350
                    3D
 Schrodinger Suite 2021-1.
 44 46  0  0  1  0            999 V2000
    9.6075   37.4159   72.6796 C   0  0  0  0  0  0
    9.5389   36.0288   72.5830 C   0  0  0  0  0  0
    8.7965   35.4301   71.5695 C   0  0  0  0  0  0
    8.1229   36.2308   70.6504 C   0  0  0  0  0  0
    8.1775   37.6131   70.7447 C   0  0  0  0  0  0
    8.9196   38.2085   71.7600 C   0  0  0  0  0  0
    7.3306   38.4465   69.8017 C   0  0  0  0  0  0
    8.0833   39.3559   68.8453 C   0  0  0  0  0  0
    8.6399   38.8199   67.6893 C   0  0  0  0  0  0
    9.3212   39.6481   66.8073 C   0  0  0  0  0  0
    9.4541   41.0142   67.0538 C   0  0  0  0  0  0
    8.8125   41.5619   68.1723 C   0  0  0  0  0  0
    8.1474   40.7325   69.0656 C   0  0  0  0  0  0
   10.2368   41.7204   66.1591 O   0  0  0  0  0  0
   10.4469   43.1198   66.3294 C   0  0  0  0  0  0
   11.8289   43.5403   65.7938 C   0  0  1  0  0  0
   12.9905   43.0101   66.6720 C   0  0  0  0  0  0
   14.3763   43.4177   66.1593 C   0  0  0  0  0  0
   14.4946   43.0486   64.6891 C   0  0  0  0  0  0
   13.3965   43.7659   63.8849 C   0  0  0  0  0  0
   12.0536   43.4160   64.3477 N   0  0  1  0  0  0
   10.1715   37.8682   73.4813 H   0  0  0  0  0  0
   10.0570   35.4127   73.3044 H   0  0  0  0  0  0
    8.7296   34.3526   71.5089 H   0  0  0  0  0  0
    7.5258   35.8152   69.8606 H   0  0  0  0  0  0
    8.9206   39.2830   71.8397 H   0  0  0  0  0  0
    6.6878   37.7956   69.2068 H   0  0  0  0  0  0
    6.6589   39.0159   70.4306 H   0  0  0  0  0  0
    8.5769   37.7600   67.4856 H   0  0  0  0  0  0
    9.7921   39.2119   65.9417 H   0  0  0  0  0  0
    8.8285   42.6175   68.3921 H   0  0  0  0  0  0
    7.7155   41.1805   69.9400 H   0  0  0  0  0  0
    9.6488   43.6659   65.8233 H   0  0  0  0  0  0
   10.4300   43.4160   67.3763 H   0  0  0  0  0  0
   11.8595   44.6160   65.8980 H   0  0  0  0  0  0
   12.8861   43.4163   67.6714 H   0  0  0  0  0  0
   12.9365   41.9226   66.7398 H   0  0  0  0  0  0
   14.5095   44.4930   66.2726 H   0  0  0  0  0  0
   15.1825   42.9876   66.7425 H   0  0  0  0  0  0
   15.4828   43.3423   64.3397 H   0  0  0  0  0  0
   14.4353   41.9717   64.5306 H   0  0  0  0  0  0
   13.5084   44.8489   63.9694 H   0  0  0  0  0  0
   13.4981   43.5212   62.8289 H   0  0  0  0  0  0
   11.9010   42.4338   64.1540 H   0  0  0  0  0  0
  1  6  1  0  0  0
  1  2  2  0  0  0
  1 22  1  0  0  0
  2  3  1  0  0  0
  2 23  1  0  0  0
  3  4  2  0  0  0
  3 24  1  0  0  0
  4  5  1  0  0  0
  4 25  1  0  0  0
  5  6  2  0  0  0
  5  7  1  0  0  0
  6 26  1  0  0  0
  7  8  1  0  0  0
  7 27  1  0  0  0
  7 28  1  0  0  0
  8 13  1  0  0  0
  8  9  2  0  0  0
  9 10  1  0  0  0
  9 29  1  0  0  0
 10 11  2  0  0  0
 10 30  1  0  0  0
 11 12  1  0  0  0
 11 14  1  0  0  0
 12 13  2  0  0  0
 12 31  1  0  0  0
 13 32  1  0  0  0
 14 15  1  0  0  0
 15 16  1  0  0  0
 15 33  1  0  0  0
 15 34  1  0  0  0
 16 17  1  0  0  0
 16 21  1  0  0  0
 16 35  1  0  0  0
 17 18  1  0  0  0
 17 36  1  0  0  0
 17 37  1  0  0  0
 18 19  1  0  0  0
 18 38  1  0  0  0
 18 39  1  0  0  0
 19 20  1  0  0  0
 19 40  1  0  0  0
 19 41  1  0  0  0
 20 21  1  0  0  0
 20 42  1  0  0  0
 20 43  1  0  0  0
 21 44  1  0  0  0
M  END
> <s_m_entry_id>
6872

> <s_m_entry_name>
dock_pv.302

> <s_m_Source_Path>
/home/csk/Desktop/cluster/DUD-E-result/lkha4

> <s_m_Source_File>
dock_pv.maegz

> <i_m_Source_File_Index>
302

> <chembl_id>
CHEMBL1098351

> <chembl_pref_name>
None

> <i_lp_mmshare_version>
53161

> <i_f3d_flags>
0

> <r_lp_tautomer_probability>
1

> <s_lp_Force_Field>
OPLS_2005

> <r_lp_Energy>
24.057309

> <b_lp_Chiralities_Consistent>
1

> <s_lp_Variant>
CHEMBL4618_lig350-2

> <s_i_glide_gridfile>
glide-grid_3chp

> <i_i_glide_lignum>
395

> <i_i_glide_rotatable_bonds>
5

> <r_i_docking_score>
-8.89528233991609

> <r_i_glide_ligand_efficiency>
-0.423584873329337

> <r_i_glide_ligand_efficiency_sa>
-1.16863854659166

> <r_i_glide_ligand_efficiency_ln>
-2.19934058393382

> <r_i_glide_gscore>
-8.89528233991609

> <r_i_glide_lipo>
-4.89876560576497

> <r_i_glide_hbond>
-0.00989935517034364

> <r_i_glide_metal>
0

> <r_i_glide_rewards>
-2.76550894026298

> <r_i_glide_evdw>
-34.3972511291504

> <r_i_glide_ecoul>
-4.28456592559814

> <r_i_glide_erotb>
1.14143900657945

> <r_i_glide_esite>
0

> <r_i_glide_emodel>
-54.037255776084

> <r_i_glide_energy>
-38.6818170547485

> <r_i_glide_einternal>
5.97362327575684

> <i_i_glide_confnum>
186

> <i_i_glide_posenum>
375

> <r_i_glide_eff_state_penalty>
0

> <s_user_duplicate_titles>
CHEMBL4618_lig350,CHEMBL4618_lig352,627410

> <s_m_subgroup_title>
dock_pv

> <s_m_subgroupid>
dock_pv

> <b_m_subgroup_collapsed>
1

$$$$
CHEMBL4618_lig80
                    3D
 Schrodinger Suite 2021-1.
 44 46  0  0  1  0            999 V2000
    8.5210   38.8595   67.3561 C   0  0  0  0  0  0
   11.1086   42.7094   65.5400 N   0  0  0  0  0  0
    8.6781   40.1749   67.7826 C   0  0  0  0  0  0
    8.2377   37.8274   68.2636 C   0  0  0  0  0  0
    8.1220   38.0983   69.6265 C   0  0  0  0  0  0
    8.5207   40.4495   69.1400 C   0  0  0  0  0  0
    7.6876   37.0191   70.6232 C   0  0  0  0  0  0
    8.6218   38.6160   66.0370 F   0  0  0  0  0  0
    8.2718   39.4159   70.0405 C   0  0  0  0  0  0
    8.9651   41.1194   66.8170 O   0  0  0  0  0  0
    8.7006   36.5289   71.6652 C   0  0  0  0  0  0
    9.8146   43.2309   65.9988 C   0  0  0  0  0  0
    9.1978   42.4714   67.1898 C   0  0  0  0  0  0
   11.7517   43.5277   64.5240 C   0  0  0  0  0  0
   12.1378   42.5653   66.5550 C   0  0  0  0  0  0
    8.9886   35.1653   71.7832 C   0  0  0  0  0  0
    9.2899   37.4161   72.5658 C   0  0  0  0  0  0
   13.4512   42.3812   65.7922 C   0  0  0  0  0  0
   13.1856   43.0058   64.4211 C   0  0  0  0  0  0
    9.8871   34.7007   72.7396 C   0  0  0  0  0  0
   10.1704   36.9556   73.5401 C   0  0  0  0  0  0
   10.4645   35.5985   73.6286 C   0  0  0  0  0  0
    8.1034   36.8134   67.9286 H   0  0  0  0  0  0
    8.5800   41.4576   69.5189 H   0  0  0  0  0  0
    6.8252   37.4148   71.1638 H   0  0  0  0  0  0
    7.3206   36.1626   70.0580 H   0  0  0  0  0  0
    8.1251   39.6612   71.0772 H   0  0  0  0  0  0
    9.9133   44.2707   66.2803 H   0  0  0  0  0  0
    9.1123   43.2021   65.1658 H   0  0  0  0  0  0
    9.8616   42.5490   68.0520 H   0  0  0  0  0  0
    8.2505   42.9350   67.4702 H   0  0  0  0  0  0
   11.7193   44.5916   64.7651 H   0  0  0  0  0  0
   11.1996   43.4171   63.5909 H   0  0  0  0  0  0
   11.8907   41.6816   67.1400 H   0  0  0  0  0  0
   12.1631   43.4053   67.2518 H   0  0  0  0  0  0
    8.5209   34.4429   71.1398 H   0  0  0  0  0  0
    9.0504   38.4651   72.5416 H   0  0  0  0  0  0
   13.7020   41.3230   65.7022 H   0  0  0  0  0  0
   14.2727   42.8774   66.3092 H   0  0  0  0  0  0
   13.8817   43.8161   64.2042 H   0  0  0  0  0  0
   13.2876   42.2729   63.6188 H   0  0  0  0  0  0
   10.1117   33.6461   72.8131 H   0  0  0  0  0  0
   10.6180   37.6469   74.2370 H   0  0  0  0  0  0
   11.1421   35.2401   74.3901 H   0  0  0  0  0  0
  1  3  1  0  0  0
  1  4  2  0  0  0
  1  8  1  0  0  0
  2 12  1  0  0  0
  2 14  1  0  0  0
  2 15  1  0  0  0
  3  6  2  0  0  0
  3 10  1  0  0  0
  4  5  1  0  0  0
  4 23  1  0  0  0
  5  7  1  0  0  0
  5  9  2  0  0  0
  6  9  1  0  0  0
  6 24  1  0  0  0
  7 11  1  0  0  0
  7 25  1  0  0  0
  7 26  1  0  0  0
  9 27  1  0  0  0
 10 13  1  0  0  0
 11 16  1  0  0  0
 11 17  2  0  0  0
 12 13  1  0  0  0
 12 28  1  0  0  0
 12 29  1  0  0  0
 13 30  1  0  0  0
 13 31  1  0  0  0
 14 19  1  0  0  0
 14 32  1  0  0  0
 14 33  1  0  0  0
 15 18  1  0  0  0
 15 34  1  0  0  0
 15 35  1  0  0  0
 16 20  2  0  0  0
 16 36  1  0  0  0
 17 21  1  0  0  0
 17 37  1  0  0  0
 18 19  1  0  0  0
 18 38  1  0  0  0
 18 39  1  0  0  0
 19 40  1  0  0  0
 19 41  1  0  0  0
 20 22  1  0  0  0
 20 42  1  0  0  0
 21 22  2  0  0  0
 21 43  1  0  0  0
 22 44  1  0  0  0
M  END
> <s_m_entry_id>
6874

> <s_m_entry_name>
dock_pv.304

> <s_m_Source_Path>
/home/csk/Desktop/cluster/DUD-E-result/lkha4

> <s_m_Source_File>
dock_pv.maegz

> <i_m_Source_File_Index>
304

> <chembl_id>
CHEMBL162624

> <chembl_pref_name>
None

> <i_lp_mmshare_version>
53161

> <i_f3d_flags>
0

> <r_lp_tautomer_probability>
1

> <s_lp_Force_Field>
OPLS_2005

> <r_lp_Energy>
37.375151

> <b_lp_Chiralities_Consistent>
1

> <s_lp_Variant>
CHEMBL4618_lig80-1

> <s_i_glide_gridfile>
glide-grid_3chp

> <i_i_glide_lignum>
101

> <i_i_glide_rotatable_bonds>
6

> <r_i_docking_score>
-8.89478420095764

> <r_i_glide_ligand_efficiency>
-0.404308372770802

> <r_i_glide_ligand_efficiency_sa>
-1.1328879610498

> <r_i_glide_ligand_efficiency_ln>
-2.1742097038509

> <r_i_glide_gscore>
-8.89478420095764

> <r_i_glide_lipo>
-5.59057446455722

> <r_i_glide_hbond>
0

> <r_i_glide_metal>
0

> <r_i_glide_rewards>
-2.26784670681818

> <r_i_glide_evdw>
-37.2163429260254

> <r_i_glide_ecoul>
-1.33377647399902

> <r_i_glide_erotb>
1.02452058781888

> <r_i_glide_esite>
0

> <r_i_glide_emodel>
-55.1879092951388

> <r_i_glide_energy>
-38.5501194000244

> <r_i_glide_einternal>
1.93874680995941

> <i_i_glide_confnum>
71

> <i_i_glide_posenum>
116

> <r_i_glide_eff_state_penalty>
0

> <s_user_duplicate_titles>
CHEMBL4618_lig80,271971

> <s_m_subgroup_title>
dock_pv

> <s_m_subgroupid>
dock_pv

> <b_m_subgroup_collapsed>
1

$$$$
CHEMBL4618_lig477
                    3D
 Schrodinger Suite 2021-1.
 59 63  0  0  1  0            999 V2000
    8.4139   38.3425   72.1743 C   0  0  0  0  0  0
    8.0471   37.0865   71.5238 N   0  0  2  0  0  0
    9.2263   36.2736   71.2741 C   0  0  0  0  0  0
    9.1603   35.0316   72.1446 C   0  0  0  0  0  0
   10.4093   34.1336   72.0999 C   0  0  0  0  0  0
   10.5209   34.4056   73.5501 N   0  0  0  0  0  0
    9.4413   35.4125   73.6032 C   0  0  0  0  0  0
   11.5124   34.2160   74.4224 C   0  0  0  0  0  0
   12.3792   33.3566   74.3381 O   0  0  0  0  0  0
   11.4383   35.0432   75.6813 C   0  0  0  0  0  0
    7.1845   37.2034   70.3436 C   0  0  0  0  0  0
    7.7493   38.1085   69.2621 C   0  0  0  0  0  0
    8.3336   37.6530   68.0997 C   0  0  0  0  0  0
    8.9210   38.4736   67.1930 N   0  0  0  0  0  0
    8.9255   39.8099   67.4440 C   0  0  0  0  0  0
    9.6569   40.6637   66.6276 C   0  0  0  0  0  0
    9.5745   42.0511   66.7658 C   0  0  0  0  0  0
   10.2328   42.9100   65.9190 O   0  0  0  0  0  0
   11.5648   42.7562   65.5890 C   0  0  0  0  0  0
   12.1960   43.8160   64.9582 C   0  0  0  0  0  0
   13.5655   43.7570   64.7401 C   0  0  0  0  0  0
   14.2647   42.6099   65.1074 C   0  0  0  0  0  0
   13.5454   41.5288   65.6074 C   0  0  0  0  0  0
   12.2380   41.6198   65.9271 N   0  0  0  0  0  0
   15.7316   42.6357   65.1413 C   0  0  0  0  0  0
   16.4857   43.5083   65.9399 C   0  0  0  0  0  0
   17.7976   43.2236   65.6566 C   0  0  0  0  0  0
   17.7210   42.2160   64.7400 N   0  0  0  0  0  0
   16.4835   41.8160   64.4475 N   0  0  0  0  0  0
    8.7644   42.5970   67.7570 C   0  0  0  0  0  0
    8.1368   41.7753   68.6852 C   0  0  0  0  0  0
    8.2436   40.3745   68.5413 C   0  0  0  0  0  0
    7.7210   39.4685   69.4486 C   0  0  0  0  0  0
    7.5507   38.9768   72.3400 H   0  0  0  0  0  0
    8.8780   38.1642   73.1400 H   0  0  0  0  0  0
    9.1265   38.9040   71.5683 H   0  0  0  0  0  0
   10.1216   36.8354   71.5400 H   0  0  0  0  0  0
    9.3070   35.9922   70.2295 H   0  0  0  0  0  0
    8.2343   34.4889   71.9400 H   0  0  0  0  0  0
   11.2499   34.5388   71.5384 H   0  0  0  0  0  0
   10.2045   33.0814   71.8976 H   0  0  0  0  0  0
    8.6805   35.1909   74.3400 H   0  0  0  0  0  0
    9.8594   36.4077   73.7545 H   0  0  0  0  0  0
   11.7210   36.0825   75.5281 H   0  0  0  0  0  0
   12.1209   34.5836   76.3660 H   0  0  0  0  0  0
   10.4541   35.0162   76.1359 H   0  0  0  0  0  0
    6.9657   36.2154   69.9400 H   0  0  0  0  0  0
    6.2291   37.6145   70.6721 H   0  0  0  0  0  0
    8.4173   36.5940   67.9400 H   0  0  0  0  0  0
   10.2403   40.2078   65.8491 H   0  0  0  0  0  0
   11.6513   44.7138   64.7400 H   0  0  0  0  0  0
   14.0865   44.6159   64.3475 H   0  0  0  0  0  0
   14.0353   40.6160   65.9139 H   0  0  0  0  0  0
   16.1040   44.2640   66.6104 H   0  0  0  0  0  0
   18.7426   43.6506   65.9605 H   0  0  0  0  0  0
   18.5248   41.8751   64.2258 H   0  0  0  0  0  0
    8.6375   43.6659   67.8220 H   0  0  0  0  0  0
    7.5571   42.1942   69.4951 H   0  0  0  0  0  0
    7.3210   39.8160   70.3400 H   0  0  0  0  0  0
  1  2  1  0  0  0
  1 34  1  0  0  0
  1 35  1  0  0  0
  1 36  1  0  0  0
  2  3  1  0  0  0
  2 11  1  0  0  0
  3  4  1  0  0  0
  3 37  1  0  0  0
  3 38  1  0  0  0
  4  5  1  0  0  0
  4  7  1  0  0  0
  4 39  1  0  0  0
  5  6  1  0  0  0
  5 40  1  0  0  0
  5 41  1  0  0  0
  6  7  1  0  0  0
  6  8  1  0  0  0
  7 42  1  0  0  0
  7 43  1  0  0  0
  8  9  2  0  0  0
  8 10  1  0  0  0
 10 44  1  0  0  0
 10 45  1  0  0  0
 10 46  1  0  0  0
 11 12  1  0  0  0
 11 47  1  0  0  0
 11 48  1  0  0  0
 12 13  2  0  0  0
 12 33  1  0  0  0
 13 14  1  0  0  0
 13 49  1  0  0  0
 14 15  2  0  0  0
 15 16  1  0  0  0
 15 32  1  0  0  0
 16 17  2  0  0  0
 16 50  1  0  0  0
 17 18  1  0  0  0
 17 30  1  0  0  0
 18 19  1  0  0  0
 19 20  2  0  0  0
 19 24  1  0  0  0
 20 21  1  0  0  0
 20 51  1  0  0  0
 21 22  2  0  0  0
 21 52  1  0  0  0
 22 23  1  0  0  0
 22 25  1  0  0  0
 23 24  2  0  0  0
 23 53  1  0  0  0
 25 29  2  0  0  0
 25 26  1  0  0  0
 26 27  2  0  0  0
 26 54  1  0  0  0
 27 28  1  0  0  0
 27 55  1  0  0  0
 28 29  1  0  0  0
 28 56  1  0  0  0
 30 31  2  0  0  0
 30 57  1  0  0  0
 31 32  1  0  0  0
 31 58  1  0  0  0
 32 33  2  0  0  0
 33 59  1  0  0  0
M  END
> <s_m_entry_id>
6875

> <s_m_entry_name>
dock_pv.305

> <s_m_Source_Path>
/home/csk/Desktop/cluster/DUD-E-result/lkha4

> <s_m_Source_File>
dock_pv.maegz

> <i_m_Source_File_Index>
305

> <chembl_id>
CHEMBL3892382

> <chembl_pref_name>
None

> <i_lp_mmshare_version>
53161

> <i_f3d_flags>
0

> <r_lp_tautomer_probability>
0.5

> <s_lp_Force_Field>
OPLS_2005

> <r_lp_Energy>
35.566113

> <b_lp_Chiralities_Consistent>
1

> <s_lp_Variant>
CHEMBL4618_lig477-2

> <s_i_glide_gridfile>
glide-grid_3chp

> <i_i_glide_lignum>
570

> <i_i_glide_rotatable_bonds>
8

> <r_i_docking_score>
-8.89362211104619

> <r_i_glide_ligand_efficiency>
-0.269503700334733

> <r_i_glide_ligand_efficiency_sa>
-0.864442369877054

> <r_i_glide_ligand_efficiency_ln>
-1.97789550878586

> <r_i_glide_gscore>
-8.89362211104619

> <r_i_glide_lipo>
-5.37938506528102

> <r_i_glide_hbond>
-0.0545658730491022

> <r_i_glide_metal>
0

> <r_i_glide_rewards>
-1.1396888922011

> <r_i_glide_evdw>
-45.8073387145996

> <r_i_glide_ecoul>
-4.29328870773315

> <r_i_glide_erotb>
0.714377961374986

> <r_i_glide_esite>
-0.1

> <r_i_glide_emodel>
-55.101013549193

> <r_i_glide_energy>
-50.1006274223328

> <r_i_glide_einternal>
15.2552995681763

> <i_i_glide_confnum>
13

> <i_i_glide_posenum>
36

> <r_i_glide_eff_state_penalty>
0

> <s_user_duplicate_titles>
CHEMBL4618_lig477,CHEMBL4618_lig477

> <s_m_subgroup_title>
dock_pv

> <s_m_subgroupid>
dock_pv

> <b_m_subgroup_collapsed>
1

$$$$
CHEMBL4618_lig99
                    3D
 Schrodinger Suite 2021-1.
 48 50  0  0  1  0            999 V2000
   10.9389   41.7575   66.6362 N   0  0  0  0  0  0
    9.3485   35.6714   72.7119 C   0  0  0  0  0  0
    8.2752   36.7340   72.4784 C   0  0  0  0  0  0
   10.2422   35.7445   73.7925 C   0  0  0  0  0  0
    8.2534   37.4291   71.1199 C   0  0  0  0  0  0
    8.1747   38.8100   68.6772 C   0  0  0  0  0  0
    7.7485   36.8145   69.9727 C   0  0  0  0  0  0
    8.6462   38.7557   71.0455 C   0  0  0  0  0  0
    8.6166   39.4409   69.8403 C   0  0  0  0  0  0
    7.7211   37.4980   68.7599 C   0  0  0  0  0  0
   10.3509   36.9248   74.4888 O   0  0  0  0  0  0
    8.1210   39.4094   67.4370 O   0  0  0  0  0  0
   10.1785   40.5201   66.8512 C   0  0  0  0  0  0
    8.6921   40.7025   67.2150 C   0  0  0  0  0  0
   12.2384   41.4901   66.0273 C   0  0  0  0  0  0
   10.3182   42.7241   65.7356 C   0  0  0  0  0  0
    9.3200   34.5108   71.9400 C   0  0  0  0  0  0
   11.0051   34.6159   74.1251 C   0  0  0  0  0  0
   10.6993   36.8458   75.8649 C   0  0  0  0  0  0
   12.7279   42.8594   65.5805 C   0  0  0  0  0  0
   11.4519   43.5199   65.0705 C   0  0  0  0  0  0
   10.1210   33.4151   72.2377 C   0  0  0  0  0  0
   10.9212   33.4590   73.3659 C   0  0  0  0  0  0
    8.3152   37.4844   73.2676 H   0  0  0  0  0  0
    7.3210   36.2416   72.6330 H   0  0  0  0  0  0
    7.3585   35.8160   70.0103 H   0  0  0  0  0  0
    8.9209   39.2791   71.9400 H   0  0  0  0  0  0
    8.9209   40.4726   69.8451 H   0  0  0  0  0  0
    7.3350   37.0168   67.8768 H   0  0  0  0  0  0
   10.2413   39.8756   65.9717 H   0  0  0  0  0  0
   10.6464   39.9814   67.6726 H   0  0  0  0  0  0
    8.5410   41.4054   68.0334 H   0  0  0  0  0  0
    8.1541   41.1398   66.3747 H   0  0  0  0  0  0
   12.1635   40.7815   65.2002 H   0  0  0  0  0  0
   12.9086   41.0162   66.7398 H   0  0  0  0  0  0
    9.6364   43.3745   66.2864 H   0  0  0  0  0  0
    9.7219   42.2164   64.9818 H   0  0  0  0  0  0
    8.6072   34.4201   71.1401 H   0  0  0  0  0  0
   11.6842   34.6142   74.9631 H   0  0  0  0  0  0
   10.6212   37.8160   76.3500 H   0  0  0  0  0  0
   10.0147   36.1636   76.3663 H   0  0  0  0  0  0
   11.7208   36.5058   76.0073 H   0  0  0  0  0  0
   13.4951   42.7849   64.8090 H   0  0  0  0  0  0
   13.1692   43.3994   66.4202 H   0  0  0  0  0  0
   11.4304   44.5765   65.3298 H   0  0  0  0  0  0
   11.3933   43.4239   63.9856 H   0  0  0  0  0  0
   10.0627   32.5137   71.6445 H   0  0  0  0  0  0
   11.5247   32.6160   73.6455 H   0  0  0  0  0  0
  1 13  1  0  0  0
  1 15  1  0  0  0
  1 16  1  0  0  0
  2  3  1  0  0  0
  2  4  1  0  0  0
  2 17  2  0  0  0
  3  5  1  0  0  0
  3 24  1  0  0  0
  3 25  1  0  0  0
  4 11  1  0  0  0
  4 18  2  0  0  0
  5  7  1  0  0  0
  5  8  2  0  0  0
  6 12  1  0  0  0
  6  9  2  0  0  0
  6 10  1  0  0  0
  7 10  2  0  0  0
  7 26  1  0  0  0
  8  9  1  0  0  0
  8 27  1  0  0  0
  9 28  1  0  0  0
 10 29  1  0  0  0
 11 19  1  0  0  0
 12 14  1  0  0  0
 13 14  1  0  0  0
 13 30  1  0  0  0
 13 31  1  0  0  0
 14 32  1  0  0  0
 14 33  1  0  0  0
 15 20  1  0  0  0
 15 34  1  0  0  0
 15 35  1  0  0  0
 16 21  1  0  0  0
 16 36  1  0  0  0
 16 37  1  0  0  0
 17 22  1  0  0  0
 17 38  1  0  0  0
 18 23  1  0  0  0
 18 39  1  0  0  0
 19 40  1  0  0  0
 19 41  1  0  0  0
 19 42  1  0  0  0
 20 21  1  0  0  0
 20 43  1  0  0  0
 20 44  1  0  0  0
 21 45  1  0  0  0
 21 46  1  0  0  0
 22 23  2  0  0  0
 22 47  1  0  0  0
 23 48  1  0  0  0
M  END
> <s_m_entry_id>
6876

> <s_m_entry_name>
dock_pv.306

> <s_m_Source_Path>
/home/csk/Desktop/cluster/DUD-E-result/lkha4

> <s_m_Source_File>
dock_pv.maegz

> <i_m_Source_File_Index>
306

> <chembl_id>
CHEMBL162091

> <chembl_pref_name>
None

> <i_lp_mmshare_version>
53161

> <i_f3d_flags>
0

> <r_lp_tautomer_probability>
1

> <s_lp_Force_Field>
OPLS_2005

> <r_lp_Energy>
40.281982

> <b_lp_Chiralities_Consistent>
1

> <s_lp_Variant>
CHEMBL4618_lig99-1

> <s_i_glide_gridfile>
glide-grid_3chp

> <i_i_glide_lignum>
123

> <i_i_glide_rotatable_bonds>
7

> <r_i_docking_score>
-8.89224861104879

> <r_i_glide_ligand_efficiency>
-0.386619504828208

> <r_i_glide_ligand_efficiency_sa>
-1.09949444239835

> <r_i_glide_ligand_efficiency_ln>
-2.15022634460411

> <r_i_glide_gscore>
-8.89224861104879

> <r_i_glide_lipo>
-5.88582719988002

> <r_i_glide_hbond>
0

> <r_i_glide_metal>
0

> <r_i_glide_rewards>
-1.82678533552433

> <r_i_glide_evdw>
-38.5516700744629

> <r_i_glide_ecoul>
-1.38776850700378

> <r_i_glide_erotb>
0.956112704129277

> <r_i_glide_esite>
0

> <r_i_glide_emodel>
-61.8290330616788

> <r_i_glide_energy>
-39.9394385814667

> <r_i_glide_einternal>
9.45328807830811

> <i_i_glide_confnum>
72

> <i_i_glide_posenum>
280

> <r_i_glide_eff_state_penalty>
0

> <s_user_duplicate_titles>
CHEMBL4618_lig99

> <s_m_subgroup_title>
dock_pv

> <s_m_subgroupid>
dock_pv

> <b_m_subgroup_collapsed>
1

$$$$
CHEMBL4618_lig491
                    3D
 Schrodinger Suite 2021-1.
 58 60  0  0  1  0            999 V2000
   10.0250   41.7041   66.7279 C   0  0  0  0  0  0
   16.3116   42.5174   64.8982 C   0  0  0  0  0  0
   10.8802   42.7321   66.4004 N   0  0  0  0  0  0
    8.3493   37.5418   69.5943 C   0  0  0  0  0  0
    8.3552   38.7231   70.3620 C   0  0  0  0  0  0
   14.8038   42.5976   64.9902 C   0  0  0  0  0  0
    8.5210   36.3113   70.2577 C   0  0  0  0  0  0
   10.1207   40.5440   66.3404 O   0  0  0  0  0  0
   16.8612   41.4161   64.7395 O   0  0  0  0  0  0
    9.0438   42.1728   67.5119 O   0  0  0  0  0  0
    8.1897   39.9610   69.7105 C   0  0  0  0  0  0
    8.8579   36.2457   71.6027 C   0  0  0  0  0  0
   16.9836   43.6550   65.1400 N   0  0  0  0  0  0
    8.5210   38.6160   71.7522 C   0  0  0  0  0  0
    8.2200   37.6476   68.1965 C   0  0  0  0  0  0
   14.0758   43.7913   65.0107 C   0  0  0  0  0  0
   14.0969   41.4160   65.1400 C   0  0  0  0  0  0
   12.1218   42.6128   65.7701 C   0  0  0  0  0  0
    9.0859   34.8930   72.2444 C   0  0  0  0  0  0
   10.4586   34.4859   72.6135 N   0  0  0  0  0  0
    8.0720   40.0538   68.3401 C   0  0  0  0  0  0
    8.8294   37.4080   72.3602 C   0  0  0  0  0  0
    7.8420   41.4338   67.7092 C   0  0  0  0  0  0
   12.7356   43.7877   65.3762 C   0  0  0  0  0  0
   12.7902   41.4031   65.5754 C   0  0  0  0  0  0
    8.1210   38.8867   67.5785 C   0  0  0  0  0  0
   18.3847   43.6180   65.1400 O   0  0  0  0  0  0
   10.8198   35.1322   73.8992 C   0  0  0  0  0  0
   10.6142   33.0166   72.6858 C   0  0  0  0  0  0
   10.2937   32.2333   71.4067 C   0  0  0  0  0  0
   11.8803   34.4221   74.7691 C   0  0  0  0  0  0
   10.5965   43.6546   66.6940 H   0  0  0  0  0  0
    8.4859   35.4161   69.6768 H   0  0  0  0  0  0
    8.1210   40.8562   70.3009 H   0  0  0  0  0  0
   16.6002   44.5792   65.2593 H   0  0  0  0  0  0
    8.4293   39.4977   72.3400 H   0  0  0  0  0  0
    8.2910   36.7585   67.6049 H   0  0  0  0  0  0
   14.5210   44.7278   64.7402 H   0  0  0  0  0  0
   14.5973   40.4921   65.0131 H   0  0  0  0  0  0
    8.5210   35.0160   73.1400 H   0  0  0  0  0  0
    8.5694   34.1561   71.6333 H   0  0  0  0  0  0
    8.9973   37.3766   73.4271 H   0  0  0  0  0  0
    7.1939   42.0157   68.3666 H   0  0  0  0  0  0
    7.3216   41.3843   66.7541 H   0  0  0  0  0  0
   12.1734   44.6951   65.4119 H   0  0  0  0  0  0
   12.3556   40.4413   65.7880 H   0  0  0  0  0  0
    8.0593   38.9355   66.5003 H   0  0  0  0  0  0
   18.6065   43.7234   64.1977 H   0  0  0  0  0  0
   11.1641   36.1414   73.6750 H   0  0  0  0  0  0
    9.9491   35.2549   74.5454 H   0  0  0  0  0  0
   11.6657   32.8039   72.8735 H   0  0  0  0  0  0
   10.0781   32.5964   73.5336 H   0  0  0  0  0  0
   10.5558   31.1825   71.5325 H   0  0  0  0  0  0
    9.2406   32.2607   71.1401 H   0  0  0  0  0  0
   10.8766   32.6161   70.5773 H   0  0  0  0  0  0
   12.1210   35.0215   75.6459 H   0  0  0  0  0  0
   11.5103   33.4683   75.1399 H   0  0  0  0  0  0
   12.8053   34.2161   74.2331 H   0  0  0  0  0  0
  1  3  1  0  0  0
  1  8  2  0  0  0
  1 10  1  0  0  0
  2  6  1  0  0  0
  2  9  2  0  0  0
  2 13  1  0  0  0
  3 18  1  0  0  0
  3 32  1  0  0  0
  4  5  1  0  0  0
  4  7  2  0  0  0
  4 15  1  0  0  0
  5 11  1  0  0  0
  5 14  2  0  0  0
  6 16  1  0  0  0
  6 17  2  0  0  0
  7 12  1  0  0  0
  7 33  1  0  0  0
 10 23  1  0  0  0
 11 21  2  0  0  0
 11 34  1  0  0  0
 12 19  1  0  0  0
 12 22  2  0  0  0
 13 27  1  0  0  0
 13 35  1  0  0  0
 14 22  1  0  0  0
 14 36  1  0  0  0
 15 26  2  0  0  0
 15 37  1  0  0  0
 16 24  2  0  0  0
 16 38  1  0  0  0
 17 25  1  0  0  0
 17 39  1  0  0  0
 18 24  1  0  0  0
 18 25  2  0  0  0
 19 20  1  0  0  0
 19 40  1  0  0  0
 19 41  1  0  0  0
 20 28  1  0  0  0
 20 29  1  0  0  0
 21 23  1  0  0  0
 21 26  1  0  0  0
 22 42  1  0  0  0
 23 43  1  0  0  0
 23 44  1  0  0  0
 24 45  1  0  0  0
 25 46  1  0  0  0
 26 47  1  0  0  0
 27 48  1  0  0  0
 28 31  1  0  0  0
 28 49  1  0  0  0
 28 50  1  0  0  0
 29 30  1  0  0  0
 29 51  1  0  0  0
 29 52  1  0  0  0
 30 53  1  0  0  0
 30 54  1  0  0  0
 30 55  1  0  0  0
 31 56  1  0  0  0
 31 57  1  0  0  0
 31 58  1  0  0  0
M  END
> <s_m_entry_id>
6878

> <s_m_entry_name>
dock_pv.308

> <s_m_Source_Path>
/home/csk/Desktop/cluster/DUD-E-result/lkha4

> <s_m_Source_File>
dock_pv.maegz

> <i_m_Source_File_Index>
308

> <chembl_id>
CHEMBL1213492

> <chembl_pref_name>
GIVINOSTAT

> <i_lp_mmshare_version>
53161

> <i_f3d_flags>
0

> <r_lp_tautomer_probability>
1

> <s_lp_Force_Field>
OPLS_2005

> <r_lp_Energy>
40.490694

> <b_lp_Chiralities_Consistent>
1

> <s_lp_Variant>
CHEMBL4618_lig491-1

> <s_i_glide_gridfile>
glide-grid_3chp

> <i_i_glide_lignum>
591

> <i_i_glide_rotatable_bonds>
12

> <r_i_docking_score>
-8.88633186676719

> <r_i_glide_ligand_efficiency>
-0.286655866669909

> <r_i_glide_ligand_efficiency_sa>
-0.900495192420577

> <r_i_glide_ligand_efficiency_ln>
-2.00414016932172

> <r_i_glide_gscore>
-8.88633186676719

> <r_i_glide_lipo>
-4.69224274941075

> <r_i_glide_hbond>
-0.080287818241555

> <r_i_glide_metal>
0

> <r_i_glide_rewards>
-1.41280391993658

> <r_i_glide_evdw>
-33.2831954956055

> <r_i_glide_ecoul>
-12.2667617797852

> <r_i_glide_erotb>
1.00317666256974

> <r_i_glide_esite>
-0.2

> <r_i_glide_emodel>
-44.6951942416863

> <r_i_glide_energy>
-45.5499572753906

> <r_i_glide_einternal>
22.1318492889404

> <i_i_glide_confnum>
31

> <i_i_glide_posenum>
212

> <r_i_glide_eff_state_penalty>
0

> <s_user_duplicate_titles>
CHEMBL4618_lig491

> <s_m_subgroup_title>
dock_pv

> <s_m_subgroupid>
dock_pv

> <b_m_subgroup_collapsed>
1

$$$$
CHEMBL4618_lig479
                    3D
 Schrodinger Suite 2021-1.
 60 64  0  0  1  0            999 V2000
   17.4922   44.2476   65.7328 C   0  0  0  0  0  0
   17.2241   42.7333   65.6820 C   0  0  2  0  0  0
   18.4074   42.2166   65.1402 O   0  0  0  0  0  0
   16.0227   42.2693   64.7958 C   0  0  0  0  0  0
   16.1683   41.3462   63.9878 O   0  0  0  0  0  0
   14.8493   42.9219   64.9050 N   0  0  0  0  0  0
   14.0554   43.1829   63.6874 C   0  0  0  0  0  0
   12.5746   43.2296   63.9442 C   0  0  0  0  0  0
   12.1875   43.8162   65.2176 N   0  0  0  0  0  0
   10.7293   43.7673   65.3921 C   0  0  0  0  0  0
   10.2197   42.5668   66.1368 C   0  0  0  0  0  0
   10.8156   41.3341   65.9453 C   0  0  0  0  0  0
   10.3884   40.2095   66.4805 N   0  0  0  0  0  0
    9.3394   40.2459   67.3006 C   0  0  0  0  0  0
    8.8835   39.0168   67.7912 C   0  0  0  0  0  0
    7.8577   39.0207   68.7021 C   0  0  0  0  0  0
    7.3772   37.8546   69.2054 O   0  0  0  0  0  0
    7.9232   37.3919   70.3713 C   0  0  0  0  0  0
    8.1251   36.0366   70.4548 C   0  0  0  0  0  0
    8.8030   35.5015   71.5409 C   0  0  0  0  0  0
    9.2747   36.3613   72.5274 C   0  0  0  0  0  0
    9.0002   37.7243   72.3926 C   0  0  0  0  0  0
    8.3446   38.2549   71.3348 N   0  0  0  0  0  0
   10.0883   35.8170   73.6272 C   0  0  0  0  0  0
   10.6248   34.5558   73.8392 C   0  0  0  0  0  0
   11.3212   34.6408   75.0407 C   0  0  0  0  0  0
   11.2762   35.8516   75.5400 N   0  0  0  0  0  0
   10.5079   36.5457   74.7066 N   0  0  0  0  0  0
    7.3211   40.2105   69.1270 C   0  0  0  0  0  0
    7.6964   41.4449   68.6232 C   0  0  0  0  0  0
    8.7126   41.4751   67.6646 C   0  0  0  0  0  0
    9.1494   42.6570   67.0254 C   0  0  0  0  0  0
   12.9833   43.3634   66.3719 C   0  0  0  0  0  0
   14.4742   43.5674   66.1633 C   0  0  0  0  0  0
   16.7382   44.8084   66.2754 H   0  0  0  0  0  0
   17.5462   44.6393   64.7239 H   0  0  0  0  0  0
   18.4394   44.4684   66.2260 H   0  0  0  0  0  0
   17.1233   42.3431   66.6928 H   0  0  0  0  0  0
   18.5315   42.6060   64.2573 H   0  0  0  0  0  0
   14.1210   44.2167   63.4414 H   0  0  0  0  0  0
   14.3268   42.6135   62.8011 H   0  0  0  0  0  0
   12.2957   42.2161   63.9409 H   0  0  0  0  0  0
   12.0732   43.7699   63.1409 H   0  0  0  0  0  0
   10.3758   44.6153   65.9399 H   0  0  0  0  0  0
   10.2148   43.8160   64.4326 H   0  0  0  0  0  0
   11.6794   41.1387   65.3484 H   0  0  0  0  0  0
    9.3219   38.0852   67.4693 H   0  0  0  0  0  0
    7.8273   35.4179   69.6298 H   0  0  0  0  0  0
    8.9798   34.4367   71.5814 H   0  0  0  0  0  0
    9.3220   38.4272   73.1384 H   0  0  0  0  0  0
   10.5222   33.6775   73.2167 H   0  0  0  0  0  0
   11.8507   33.8390   75.5341 H   0  0  0  0  0  0
   10.2564   37.5124   74.8831 H   0  0  0  0  0  0
    6.5213   40.0908   69.8003 H   0  0  0  0  0  0
    7.2021   42.3527   68.9342 H   0  0  0  0  0  0
    8.6621   43.5993   67.2363 H   0  0  0  0  0  0
   12.8978   42.2964   66.5322 H   0  0  0  0  0  0
   12.6365   43.8159   67.2905 H   0  0  0  0  0  0
   15.0014   43.1682   67.0281 H   0  0  0  0  0  0
   14.6544   44.6161   66.0888 H   0  0  0  0  0  0
  1  2  1  0  0  0
  1 35  1  0  0  0
  1 36  1  0  0  0
  1 37  1  0  0  0
  2  3  1  0  0  0
  2  4  1  0  0  0
  2 38  1  0  0  0
  3 39  1  0  0  0
  4  5  2  0  0  0
  4  6  1  0  0  0
  6  7  1  0  0  0
  6 34  1  0  0  0
  7  8  1  0  0  0
  7 40  1  0  0  0
  7 41  1  0  0  0
  8  9  1  0  0  0
  8 42  1  0  0  0
  8 43  1  0  0  0
  9 10  1  0  0  0
  9 33  1  0  0  0
 10 11  1  0  0  0
 10 44  1  0  0  0
 10 45  1  0  0  0
 11 12  2  0  0  0
 11 32  1  0  0  0
 12 13  1  0  0  0
 12 46  1  0  0  0
 13 14  2  0  0  0
 14 15  1  0  0  0
 14 31  1  0  0  0
 15 16  2  0  0  0
 15 47  1  0  0  0
 16 17  1  0  0  0
 16 29  1  0  0  0
 17 18  1  0  0  0
 18 19  2  0  0  0
 18 23  1  0  0  0
 19 20  1  0  0  0
 19 48  1  0  0  0
 20 21  2  0  0  0
 20 49  1  0  0  0
 21 22  1  0  0  0
 21 24  1  0  0  0
 22 23  2  0  0  0
 22 50  1  0  0  0
 24 25  2  0  0  0
 24 28  1  0  0  0
 25 26  1  0  0  0
 25 51  1  0  0  0
 26 27  2  0  0  0
 26 52  1  0  0  0
 27 28  1  0  0  0
 28 53  1  0  0  0
 29 30  2  0  0  0
 29 54  1  0  0  0
 30 31  1  0  0  0
 30 55  1  0  0  0
 31 32  2  0  0  0
 32 56  1  0  0  0
 33 34  1  0  0  0
 33 57  1  0  0  0
 33 58  1  0  0  0
 34 59  1  0  0  0
 34 60  1  0  0  0
M  END
> <s_m_entry_id>
6879

> <s_m_entry_name>
dock_pv.309

> <s_m_Source_Path>
/home/csk/Desktop/cluster/DUD-E-result/lkha4

> <s_m_Source_File>
dock_pv.maegz

> <i_m_Source_File_Index>
309

> <chembl_id>
CHEMBL3917039

> <chembl_pref_name>
None

> <i_lp_mmshare_version>
53161

> <i_f3d_flags>
0

> <r_lp_tautomer_probability>
0.5

> <s_lp_Force_Field>
OPLS_2005

> <r_lp_Energy>
50.920424

> <b_lp_Chiralities_Consistent>
1

> <s_lp_Variant>
CHEMBL4618_lig479-1

> <s_i_glide_gridfile>
glide-grid_3chp

> <i_i_glide_lignum>
573

> <i_i_glide_rotatable_bonds>
8

> <r_i_docking_score>
-8.88336560667155

> <r_i_glide_ligand_efficiency>
-0.261275459019751

> <r_i_glide_ligand_efficiency_sa>
-0.846431059429638

> <r_i_glide_ligand_efficiency_ln>
-1.96258463247906

> <r_i_glide_gscore>
-8.88336560667155

> <r_i_glide_lipo>
-5.05150985955213

> <r_i_glide_hbond>
-0.304

> <r_i_glide_metal>
0

> <r_i_glide_rewards>
-1.39080403367697

> <r_i_glide_evdw>
-25.3530712127686

> <r_i_glide_ecoul>
-9.03999996185303

> <r_i_glide_erotb>
0.669700037039898

> <r_i_glide_esite>
-0.183098195565965

> <r_i_glide_emodel>
-24.8025837594013

> <r_i_glide_energy>
-34.3930711746216

> <r_i_glide_einternal>
21.1894302368164

> <i_i_glide_confnum>
27

> <i_i_glide_posenum>
344

> <r_i_glide_eff_state_penalty>
0

> <s_user_duplicate_titles>
CHEMBL4618_lig479,CHEMBL4618_lig479

> <s_m_subgroup_title>
dock_pv

> <s_m_subgroupid>
dock_pv

> <b_m_subgroup_collapsed>
1

$$$$
CHEMBL4618_lig476
                    3D
 Schrodinger Suite 2021-1.
 63 67  0  0  1  0            999 V2000
    9.5382   36.7189   74.3638 C   0  0  0  0  0  0
    9.7324   35.9212   73.1510 N   0  0  0  0  0  0
    9.2474   36.4931   71.8695 C   0  0  0  0  0  0
    7.7468   36.8155   71.8833 C   0  0  0  0  0  0
    7.1916   37.4157   70.5515 C   0  0  0  0  0  0
    7.9104   38.6385   70.1468 N   0  0  2  0  0  0
    7.4339   39.2694   68.8886 C   0  0  0  0  0  0
    8.3506   40.3037   68.1991 C   0  0  0  0  0  0
    8.2170   41.6833   68.3948 C   0  0  0  0  0  0
    9.0153   42.6159   67.7987 N   0  0  0  0  0  0
   10.0431   42.2002   67.0000 C   0  0  0  0  0  0
   10.9610   43.1252   66.4065 C   0  0  0  0  0  0
   12.1147   42.6881   65.7396 C   0  0  0  0  0  0
   13.0266   43.5761   65.2124 O   0  0  0  0  0  0
   14.3735   43.3110   65.3660 C   0  0  0  0  0  0
   15.1384   42.6160   64.4197 C   0  0  0  0  0  0
   16.5214   42.5198   64.6256 C   0  0  0  0  0  0
   17.0990   43.0680   65.7817 C   0  0  0  0  0  0
   16.2535   43.7073   66.6860 C   0  0  0  0  0  0
   14.9199   43.8160   66.4932 N   0  0  0  0  0  0
   18.5533   43.0169   66.0841 C   0  0  0  0  0  0
   19.2608   42.9222   67.2748 C   0  0  0  0  0  0
   20.6137   42.9042   66.9201 C   0  0  0  0  0  0
   20.7856   43.0166   65.6264 N   0  0  0  0  0  0
   19.5421   43.0907   65.1400 N   0  0  0  0  0  0
   12.2969   41.3321   65.5400 C   0  0  0  0  0  0
   11.3210   40.4426   65.9400 C   0  0  0  0  0  0
   10.2321   40.8198   66.7401 C   0  0  0  0  0  0
    9.3355   39.8772   67.3099 C   0  0  0  0  0  0
    9.3472   38.4471   70.2047 C   0  0  0  0  0  0
    9.8359   37.8737   71.5457 C   0  0  0  0  0  0
   10.4393   34.7609   73.2038 C   0  0  0  0  0  0
   10.5209   33.9916   72.2422 O   0  0  0  0  0  0
   11.2063   34.4489   74.5137 C   0  0  0  0  0  0
   12.1608   33.4160   74.3400 O   0  0  0  0  0  0
   10.3680   37.4159   74.4628 H   0  0  0  0  0  0
    8.6120   37.2826   74.3401 H   0  0  0  0  0  0
    9.4924   36.1257   75.2767 H   0  0  0  0  0  0
    9.4292   35.7788   71.0674 H   0  0  0  0  0  0
    7.3210   35.8687   72.1767 H   0  0  0  0  0  0
    7.4546   37.4859   72.6841 H   0  0  0  0  0  0
    7.2593   36.6760   69.7518 H   0  0  0  0  0  0
    6.1343   37.6549   70.6692 H   0  0  0  0  0  0
    7.1803   38.4947   68.1626 H   0  0  0  0  0  0
    6.5210   39.8160   69.1073 H   0  0  0  0  0  0
    7.4431   42.0747   69.0417 H   0  0  0  0  0  0
   10.7857   44.1817   66.5001 H   0  0  0  0  0  0
   14.6859   42.2437   63.5111 H   0  0  0  0  0  0
   17.1415   42.0710   63.8626 H   0  0  0  0  0  0
   16.6332   44.1465   67.5973 H   0  0  0  0  0  0
   18.8514   42.8438   68.2711 H   0  0  0  0  0  0
   21.4537   42.8095   67.5932 H   0  0  0  0  0  0
   19.3619   43.1877   64.1404 H   0  0  0  0  0  0
   13.1353   40.9556   64.9748 H   0  0  0  0  0  0
   11.4201   39.4163   65.6413 H   0  0  0  0  0  0
    9.4694   38.8248   67.1033 H   0  0  0  0  0  0
    9.6280   37.8206   69.3626 H   0  0  0  0  0  0
    9.7890   39.4160   70.0598 H   0  0  0  0  0  0
    9.5763   38.5741   72.3338 H   0  0  0  0  0  0
   10.9213   37.8161   71.5394 H   0  0  0  0  0  0
   10.5211   34.2160   75.3190 H   0  0  0  0  0  0
   11.7210   35.3413   74.8532 H   0  0  0  0  0  0
   11.7208   32.6010   74.0606 H   0  0  0  0  0  0
  1  2  1  0  0  0
  1 36  1  0  0  0
  1 37  1  0  0  0
  1 38  1  0  0  0
  2  3  1  0  0  0
  2 32  1  0  0  0
  3  4  1  0  0  0
  3 31  1  0  0  0
  3 39  1  0  0  0
  4  5  1  0  0  0
  4 40  1  0  0  0
  4 41  1  0  0  0
  5  6  1  0  0  0
  5 42  1  0  0  0
  5 43  1  0  0  0
  6  7  1  0  0  0
  6 30  1  0  0  0
  7  8  1  0  0  0
  7 44  1  0  0  0
  7 45  1  0  0  0
  8  9  2  0  0  0
  8 29  1  0  0  0
  9 10  1  0  0  0
  9 46  1  0  0  0
 10 11  2  0  0  0
 11 12  1  0  0  0
 11 28  1  0  0  0
 12 13  2  0  0  0
 12 47  1  0  0  0
 13 14  1  0  0  0
 13 26  1  0  0  0
 14 15  1  0  0  0
 15 16  2  0  0  0
 15 20  1  0  0  0
 16 17  1  0  0  0
 16 48  1  0  0  0
 17 18  2  0  0  0
 17 49  1  0  0  0
 18 19  1  0  0  0
 18 21  1  0  0  0
 19 20  2  0  0  0
 19 50  1  0  0  0
 21 22  2  0  0  0
 21 25  1  0  0  0
 22 23  1  0  0  0
 22 51  1  0  0  0
 23 24  2  0  0  0
 23 52  1  0  0  0
 24 25  1  0  0  0
 25 53  1  0  0  0
 26 27  2  0  0  0
 26 54  1  0  0  0
 27 28  1  0  0  0
 27 55  1  0  0  0
 28 29  2  0  0  0
 29 56  1  0  0  0
 30 31  1  0  0  0
 30 57  1  0  0  0
 30 58  1  0  0  0
 31 59  1  0  0  0
 31 60  1  0  0  0
 32 33  2  0  0  0
 32 34  1  0  0  0
 34 35  1  0  0  0
 34 61  1  0  0  0
 34 62  1  0  0  0
 35 63  1  0  0  0
M  END
> <s_m_entry_id>
6880

> <s_m_entry_name>
dock_pv.310

> <s_m_Source_Path>
/home/csk/Desktop/cluster/DUD-E-result/lkha4

> <s_m_Source_File>
dock_pv.maegz

> <i_m_Source_File_Index>
310

> <chembl_id>
CHEMBL3894486

> <chembl_pref_name>
None

> <i_lp_mmshare_version>
53161

> <i_f3d_flags>
0

> <r_lp_tautomer_probability>
0.5

> <s_lp_Force_Field>
OPLS_2005

> <r_lp_Energy>
41.197454

> <b_lp_Chiralities_Consistent>
1

> <s_lp_Variant>
CHEMBL4618_lig476-1

> <s_i_glide_gridfile>
glide-grid_3chp

> <i_i_glide_lignum>
567

> <i_i_glide_rotatable_bonds>
9

> <r_i_docking_score>
-8.86806059874517

> <r_i_glide_ligand_efficiency>
-0.253373159964148

> <r_i_glide_ligand_efficiency_sa>
-0.828800406482523

> <r_i_glide_ligand_efficiency_ln>
-1.94673611742539

> <r_i_glide_gscore>
-8.86806059874517

> <r_i_glide_lipo>
-4.94828893631201

> <r_i_glide_hbond>
-0.152232419324936

> <r_i_glide_metal>
0

> <r_i_glide_rewards>
-1.2279745396521

> <r_i_glide_evdw>
-39.282844543457

> <r_i_glide_ecoul>
-7.99920606613159

> <r_i_glide_erotb>
0.724458433636475

> <r_i_glide_esite>
-0.1

> <r_i_glide_emodel>
-48.3709091060355

> <r_i_glide_energy>
-47.2820506095886

> <r_i_glide_einternal>
15.413387298584

> <i_i_glide_confnum>
7

> <i_i_glide_posenum>
72

> <r_i_glide_eff_state_penalty>
0

> <s_user_duplicate_titles>
CHEMBL4618_lig476

> <s_m_subgroup_title>
dock_pv

> <s_m_subgroupid>
dock_pv

> <b_m_subgroup_collapsed>
1

$$$$
CHEMBL4618_lig453
                    3D
 Schrodinger Suite 2021-1.
 45 49  0  0  1  0            999 V2000
   10.8041   41.0681   66.3463 C   0  0  0  0  0  0
   10.8364   42.4146   65.9708 C   0  0  0  0  0  0
    9.7939   43.2686   66.3400 C   0  0  0  0  0  0
    8.7651   42.8687   67.1983 C   0  0  0  0  0  0
   11.8138   42.8972   65.1322 O   0  0  0  0  0  0
   13.7950   43.4488   66.3316 N   0  0  0  0  0  0
   13.1483   42.7622   65.4358 C   0  0  0  0  0  0
   14.1209   41.8161   64.3400 S   0  0  0  0  0  0
   15.5487   42.5401   65.0617 C   0  0  0  0  0  0
   15.1400   43.4160   66.1044 C   0  0  0  0  0  0
   16.9076   42.4157   64.7400 C   0  0  0  0  0  0
   17.8084   43.1508   65.5112 C   0  0  0  0  0  0
   17.3273   43.9904   66.5148 C   0  0  0  0  0  0
   16.0103   44.1460   66.8127 N   0  0  0  0  0  0
    9.3210   39.3763   67.6925 C   0  0  0  0  0  0
    9.7529   40.6194   67.1618 C   0  0  0  0  0  0
    8.7891   41.5395   67.6238 C   0  0  0  0  0  0
    7.9321   40.9458   68.5126 O   0  0  0  0  0  0
    8.3229   39.6386   68.5945 C   0  0  0  0  0  0
    7.5685   38.7215   69.5224 C   0  0  0  0  0  0
    8.4493   37.8642   70.3336 N   0  0  0  0  0  0
    8.9677   38.5911   71.5022 C   0  0  0  0  0  0
    9.8082   37.6847   72.4317 C   0  0  0  0  0  0
    9.0359   36.4453   72.8963 C   0  0  0  0  0  0
    8.5126   35.7151   71.6624 C   0  0  0  0  0  0
    7.7210   36.6580   70.7344 C   0  0  0  0  0  0
   11.5482   40.3804   65.9734 H   0  0  0  0  0  0
    9.8015   44.2801   65.9721 H   0  0  0  0  0  0
    7.9927   43.5532   67.5247 H   0  0  0  0  0  0
   17.2459   41.8269   63.8985 H   0  0  0  0  0  0
   18.8661   43.1021   65.2931 H   0  0  0  0  0  0
   18.0154   44.5795   67.1017 H   0  0  0  0  0  0
    9.7210   38.3887   67.5400 H   0  0  0  0  0  0
    6.9209   38.1011   68.9037 H   0  0  0  0  0  0
    6.9210   39.2945   70.1748 H   0  0  0  0  0  0
    8.1340   39.0160   72.0648 H   0  0  0  0  0  0
    9.5650   39.4258   71.1400 H   0  0  0  0  0  0
   10.1433   38.2160   73.3171 H   0  0  0  0  0  0
   10.7200   37.4160   71.9069 H   0  0  0  0  0  0
    9.6760   35.7898   73.4886 H   0  0  0  0  0  0
    8.2049   36.7391   73.5394 H   0  0  0  0  0  0
    9.3461   35.2594   71.1400 H   0  0  0  0  0  0
    7.8737   34.8782   71.9400 H   0  0  0  0  0  0
    6.8339   37.0160   71.2570 H   0  0  0  0  0  0
    7.3813   36.1130   69.8531 H   0  0  0  0  0  0
  1 16  2  0  0  0
  1  2  1  0  0  0
  1 27  1  0  0  0
  2  3  2  0  0  0
  2  5  1  0  0  0
  3  4  1  0  0  0
  3 28  1  0  0  0
  4 17  2  0  0  0
  4 29  1  0  0  0
  5  7  1  0  0  0
  6  7  2  0  0  0
  6 10  1  0  0  0
  7  8  1  0  0  0
  8  9  1  0  0  0
  9 10  1  0  0  0
  9 11  2  0  0  0
 10 14  2  0  0  0
 11 12  1  0  0  0
 11 30  1  0  0  0
 12 13  2  0  0  0
 12 31  1  0  0  0
 13 14  1  0  0  0
 13 32  1  0  0  0
 15 16  1  0  0  0
 15 19  2  0  0  0
 15 33  1  0  0  0
 16 17  1  0  0  0
 17 18  1  0  0  0
 18 19  1  0  0  0
 19 20  1  0  0  0
 20 21  1  0  0  0
 20 34  1  0  0  0
 20 35  1  0  0  0
 21 22  1  0  0  0
 21 26  1  0  0  0
 22 23  1  0  0  0
 22 36  1  0  0  0
 22 37  1  0  0  0
 23 24  1  0  0  0
 23 38  1  0  0  0
 23 39  1  0  0  0
 24 25  1  0  0  0
 24 40  1  0  0  0
 24 41  1  0  0  0
 25 26  1  0  0  0
 25 42  1  0  0  0
 25 43  1  0  0  0
 26 44  1  0  0  0
 26 45  1  0  0  0
M  END
> <s_m_entry_id>
6881

> <s_m_entry_name>
dock_pv.311

> <s_m_Source_Path>
/home/csk/Desktop/cluster/DUD-E-result/lkha4

> <s_m_Source_File>
dock_pv.maegz

> <i_m_Source_File_Index>
311

> <chembl_id>
CHEMBL2313561

> <chembl_pref_name>
None

> <i_lp_mmshare_version>
53161

> <i_f3d_flags>
0

> <r_lp_tautomer_probability>
1

> <s_lp_Force_Field>
OPLS_2005

> <r_lp_Energy>
24.475783

> <b_lp_Chiralities_Consistent>
1

> <s_lp_Variant>
CHEMBL4618_lig453-1

> <s_i_glide_gridfile>
glide-grid_3chp

> <i_i_glide_lignum>
529

> <i_i_glide_rotatable_bonds>
4

> <r_i_docking_score>
-8.84929090123006

> <r_i_glide_ligand_efficiency>
-0.340357342355002

> <r_i_glide_ligand_efficiency_sa>
-1.00830728748522

> <r_i_glide_ligand_efficiency_ln>
-2.07822693126208

> <r_i_glide_gscore>
-8.84929090123006

> <r_i_glide_lipo>
-4.69860418359033

> <r_i_glide_hbond>
0

> <r_i_glide_metal>
0

> <r_i_glide_rewards>
-1.817388

> <r_i_glide_evdw>
-48.5849304199219

> <r_i_glide_ecoul>
-3.04320812225342

> <r_i_glide_erotb>
0.576136757368001

> <r_i_glide_esite>
-0.0237077356736261

> <r_i_glide_emodel>
-65.0388485988495

> <r_i_glide_energy>
-51.6281385421753

> <r_i_glide_einternal>
4.62829351425171

> <i_i_glide_confnum>
43

> <i_i_glide_posenum>
219

> <r_i_glide_eff_state_penalty>
0

> <s_user_duplicate_titles>
CHEMBL4618_lig453

> <s_m_subgroup_title>
dock_pv

> <s_m_subgroupid>
dock_pv

> <b_m_subgroup_collapsed>
1

$$$$
CHEMBL4618_lig219
                    3D
 Schrodinger Suite 2021-1.
 45 46  0  0  1  0            999 V2000
    7.9479   38.9276   69.0444 C   0  0  0  0  0  0
    8.2316   38.4207   67.7813 C   0  0  0  0  0  0
    8.9267   39.2075   66.8639 C   0  0  0  0  0  0
    9.3219   40.5058   67.2093 C   0  0  0  0  0  0
    8.9075   41.0433   68.4292 C   0  0  0  0  0  0
    8.2831   40.2334   69.3540 C   0  0  0  0  0  0
   10.1970   41.1793   66.3400 N   0  0  0  0  0  0
   10.8888   42.3168   66.5584 C   0  0  0  0  0  0
   10.8178   43.0160   67.5587 O   0  0  0  0  0  0
   11.8392   42.7635   65.4691 C   0  0  0  0  0  0
   13.1401   41.9153   65.3551 C   0  0  0  0  0  0
   14.2883   42.6768   64.6541 C   0  0  1  0  0  0
   15.4719   41.7913   64.1510 C   0  0  0  0  0  0
   13.7210   43.4109   63.5400 N   0  0  0  0  0  0
   16.4421   41.4160   65.1400 O   0  0  0  0  0  0
    7.3210   38.1610   69.9863 O   0  0  0  0  0  0
    8.1022   37.4807   70.8799 C   0  0  0  0  0  0
    8.2075   36.1130   70.7315 C   0  0  0  0  0  0
    8.9210   35.3468   71.6469 C   0  0  0  0  0  0
    9.5858   35.9765   72.6910 C   0  0  0  0  0  0
    9.5147   37.3582   72.8278 C   0  0  0  0  0  0
    8.7437   38.1112   71.9400 C   0  0  0  0  0  0
   17.2706   42.5041   65.5532 C   0  0  0  0  0  0
    7.9570   37.4078   67.5399 H   0  0  0  0  0  0
    9.2170   38.7730   65.9189 H   0  0  0  0  0  0
    9.1325   42.0468   68.7468 H   0  0  0  0  0  0
    8.1210   40.6160   70.3400 H   0  0  0  0  0  0
   10.3977   40.6981   65.4767 H   0  0  0  0  0  0
   12.1107   43.7987   65.6910 H   0  0  0  0  0  0
   11.3002   42.8155   64.5249 H   0  0  0  0  0  0
   12.9211   40.9957   64.8102 H   0  0  0  0  0  0
   13.4862   41.6015   66.3401 H   0  0  0  0  0  0
   14.6583   43.4393   65.3388 H   0  0  0  0  0  0
   15.9965   42.2730   63.3207 H   0  0  0  0  0  0
   15.0680   40.8743   63.7211 H   0  0  0  0  0  0
   14.4302   44.0653   63.2006 H   0  0  0  0  0  0
   13.5644   42.7703   62.7697 H   0  0  0  0  0  0
    7.7207   35.6617   69.8864 H   0  0  0  0  0  0
    8.9683   34.2728   71.5400 H   0  0  0  0  0  0
   10.1564   35.3914   73.3977 H   0  0  0  0  0  0
   10.0395   37.8168   73.6481 H   0  0  0  0  0  0
    8.6178   39.1731   72.0654 H   0  0  0  0  0  0
   18.0435   42.1569   66.2366 H   0  0  0  0  0  0
   16.7038   43.2725   66.0789 H   0  0  0  0  0  0
   17.7785   42.9703   64.7085 H   0  0  0  0  0  0
  1  6  1  0  0  0
  1  2  2  0  0  0
  1 16  1  0  0  0
  2  3  1  0  0  0
  2 24  1  0  0  0
  3  4  2  0  0  0
  3 25  1  0  0  0
  4  7  1  0  0  0
  4  5  1  0  0  0
  5  6  2  0  0  0
  5 26  1  0  0  0
  6 27  1  0  0  0
  7  8  1  0  0  0
  7 28  1  0  0  0
  8  9  2  0  0  0
  8 10  1  0  0  0
 10 11  1  0  0  0
 10 29  1  0  0  0
 10 30  1  0  0  0
 11 12  1  0  0  0
 11 31  1  0  0  0
 11 32  1  0  0  0
 12 13  1  0  0  0
 12 14  1  0  0  0
 12 33  1  0  0  0
 13 15  1  0  0  0
 13 34  1  0  0  0
 13 35  1  0  0  0
 14 36  1  0  0  0
 14 37  1  0  0  0
 15 23  1  0  0  0
 16 17  1  0  0  0
 17 18  2  0  0  0
 17 22  1  0  0  0
 18 19  1  0  0  0
 18 38  1  0  0  0
 19 20  2  0  0  0
 19 39  1  0  0  0
 20 21  1  0  0  0
 20 40  1  0  0  0
 21 22  2  0  0  0
 21 41  1  0  0  0
 22 42  1  0  0  0
 23 43  1  0  0  0
 23 44  1  0  0  0
 23 45  1  0  0  0
M  END
> <s_m_entry_id>
6882

> <s_m_entry_name>
dock_pv.312

> <s_m_Source_Path>
/home/csk/Desktop/cluster/DUD-E-result/lkha4

> <s_m_Source_File>
dock_pv.maegz

> <i_m_Source_File_Index>
312

> <chembl_id>
CHEMBL477276

> <chembl_pref_name>
None

> <i_lp_mmshare_version>
53161

> <i_f3d_flags>
0

> <r_lp_tautomer_probability>
1

> <s_lp_Force_Field>
OPLS_2005

> <r_lp_Energy>
26.164573

> <b_lp_Chiralities_Consistent>
1

> <s_lp_Variant>
CHEMBL4618_lig219-1

> <s_i_glide_gridfile>
glide-grid_3chp

> <i_i_glide_lignum>
248

> <i_i_glide_rotatable_bonds>
9

> <r_i_docking_score>
-8.84518565237249

> <r_i_glide_ligand_efficiency>
-0.384573289233587

> <r_i_glide_ligand_efficiency_sa>
-1.09367527744123

> <r_i_glide_ligand_efficiency_ln>
-2.13884609445287

> <r_i_glide_gscore>
-8.84518565237249

> <r_i_glide_lipo>
-4.13190611881901

> <r_i_glide_hbond>
-0.608

> <r_i_glide_metal>
0

> <r_i_glide_rewards>
-1.70702077023096

> <r_i_glide_evdw>
-36.3487434387207

> <r_i_glide_ecoul>
-13.9024419784546

> <r_i_glide_erotb>
1.5045447053817

> <r_i_glide_esite>
0

> <r_i_glide_emodel>
-68.5916878015723

> <r_i_glide_energy>
-50.2511854171753

> <r_i_glide_einternal>
11.5139293670654

> <i_i_glide_confnum>
63

> <i_i_glide_posenum>
12

> <r_i_glide_eff_state_penalty>
0

> <s_user_duplicate_titles>
CHEMBL4618_lig219

> <s_m_subgroup_title>
dock_pv

> <s_m_subgroupid>
dock_pv

> <b_m_subgroup_collapsed>
1

$$$$
CHEMBL4618_lig37
                    3D
 Schrodinger Suite 2021-1.
 56 58  0  0  1  0            999 V2000
   16.4034   43.6046   65.5300 C   0  0  2  0  0  0
   17.2486   44.0214   66.7504 C   0  0  0  0  0  0
   14.0386   43.2723   64.7954 N   0  0  2  0  0  0
   14.9059   43.6010   65.9340 C   0  0  0  0  0  0
   17.2508   45.1931   67.1394 O   0  0  0  0  0  0
   17.9578   43.0157   67.3102 O   0  0  0  0  0  0
    8.3884   39.8710   68.4617 C   0  0  0  0  0  0
    7.5782   38.8597   69.2583 C   0  0  0  0  0  0
    9.9053   41.6941   66.9749 C   0  0  0  0  0  0
   16.8089   42.2474   64.9016 C   0  0  0  0  0  0
    9.2411   39.4155   67.4670 C   0  0  0  0  0  0
    8.2314   41.2471   68.6673 C   0  0  0  0  0  0
    8.9788   42.1518   67.9137 C   0  0  0  0  0  0
   10.0064   40.3174   66.7400 C   0  0  0  0  0  0
    8.3201   37.9700   70.2454 C   0  0  0  0  0  0
   12.6036   43.4123   65.0754 C   0  0  0  0  0  0
   10.6702   42.6364   66.3137 O   0  0  0  0  0  0
   14.4006   42.0544   64.0511 C   0  0  0  0  0  0
   11.9770   42.2566   65.8763 C   0  0  0  0  0  0
   15.9033   41.9987   63.6865 C   0  0  0  0  0  0
   18.7505   43.2133   68.4776 C   0  0  0  0  0  0
    8.0058   36.6160   70.3542 C   0  0  0  0  0  0
    9.2199   38.5362   71.1403 C   0  0  0  0  0  0
   17.8962   43.1796   69.7543 C   0  0  0  0  0  0
    8.5208   35.8549   71.4056 C   0  0  0  0  0  0
    9.7473   37.7735   72.1848 C   0  0  0  0  0  0
    9.3796   36.4416   72.3271 C   0  0  0  0  0  0
   16.5773   44.3733   64.7778 H   0  0  0  0  0  0
   14.7073   42.8921   66.7365 H   0  0  0  0  0  0
   14.6276   44.5751   66.3411 H   0  0  0  0  0  0
    6.9207   39.4169   69.9093 H   0  0  0  0  0  0
    6.9524   38.2737   68.5824 H   0  0  0  0  0  0
   17.8436   42.2856   64.5538 H   0  0  0  0  0  0
   16.7184   41.4211   65.5997 H   0  0  0  0  0  0
    9.3203   38.3549   67.2740 H   0  0  0  0  0  0
    7.5342   41.6228   69.4020 H   0  0  0  0  0  0
    8.8566   43.2120   68.0748 H   0  0  0  0  0  0
   10.6656   39.9142   65.9874 H   0  0  0  0  0  0
   12.4227   44.3556   65.5893 H   0  0  0  0  0  0
   12.0822   43.5078   64.1227 H   0  0  0  0  0  0
   13.7996   42.0296   63.1405 H   0  0  0  0  0  0
   14.1278   41.1670   64.6226 H   0  0  0  0  0  0
   11.9508   41.3836   65.2288 H   0  0  0  0  0  0
   12.5878   42.0049   66.7396 H   0  0  0  0  0  0
   16.1120   42.6966   62.8735 H   0  0  0  0  0  0
   16.1213   41.0300   63.2409 H   0  0  0  0  0  0
   19.3105   44.1477   68.4083 H   0  0  0  0  0  0
   19.4911   42.4133   68.5221 H   0  0  0  0  0  0
    7.3209   36.1581   69.6604 H   0  0  0  0  0  0
    9.4466   39.5863   71.0718 H   0  0  0  0  0  0
   18.5183   43.2888   70.6414 H   0  0  0  0  0  0
   17.3558   42.2371   69.8440 H   0  0  0  0  0  0
   17.1628   43.9853   69.7669 H   0  0  0  0  0  0
    8.2351   34.8193   71.5338 H   0  0  0  0  0  0
   10.4133   38.2158   72.9075 H   0  0  0  0  0  0
    9.7679   35.8581   73.1499 H   0  0  0  0  0  0
  1  2  1  0  0  0
  1  4  1  0  0  0
  1 10  1  0  0  0
  1 28  1  0  0  0
  2  5  2  0  0  0
  2  6  1  0  0  0
  3  4  1  0  0  0
  3 16  1  0  0  0
  3 18  1  0  0  0
  4 29  1  0  0  0
  4 30  1  0  0  0
  6 21  1  0  0  0
  7 11  2  0  0  0
  7  8  1  0  0  0
  7 12  1  0  0  0
  8 15  1  0  0  0
  8 31  1  0  0  0
  8 32  1  0  0  0
  9 17  1  0  0  0
  9 13  1  0  0  0
  9 14  2  0  0  0
 10 20  1  0  0  0
 10 33  1  0  0  0
 10 34  1  0  0  0
 11 14  1  0  0  0
 11 35  1  0  0  0
 12 13  2  0  0  0
 12 36  1  0  0  0
 13 37  1  0  0  0
 14 38  1  0  0  0
 15 22  2  0  0  0
 15 23  1  0  0  0
 16 19  1  0  0  0
 16 39  1  0  0  0
 16 40  1  0  0  0
 17 19  1  0  0  0
 18 20  1  0  0  0
 18 41  1  0  0  0
 18 42  1  0  0  0
 19 43  1  0  0  0
 19 44  1  0  0  0
 20 45  1  0  0  0
 20 46  1  0  0  0
 21 24  1  0  0  0
 21 47  1  0  0  0
 21 48  1  0  0  0
 22 25  1  0  0  0
 22 49  1  0  0  0
 23 26  2  0  0  0
 23 50  1  0  0  0
 24 51  1  0  0  0
 24 52  1  0  0  0
 24 53  1  0  0  0
 25 27  2  0  0  0
 25 54  1  0  0  0
 26 27  1  0  0  0
 26 55  1  0  0  0
 27 56  1  0  0  0
M  END
> <s_m_entry_id>
6883

> <s_m_entry_name>
dock_pv.313

> <s_m_Source_Path>
/home/csk/Desktop/cluster/DUD-E-result/lkha4

> <s_m_Source_File>
dock_pv.maegz

> <i_m_Source_File_Index>
313

> <chembl_id>
CHEMBL113813

> <chembl_pref_name>
None

> <i_lp_mmshare_version>
53161

> <i_f3d_flags>
0

> <r_lp_tautomer_probability>
1

> <s_lp_Force_Field>
OPLS_2005

> <r_lp_Energy>
29.202933

> <b_lp_Chiralities_Consistent>
1

> <s_lp_Variant>
CHEMBL4618_lig37-1

> <s_i_glide_gridfile>
glide-grid_3chp

> <i_i_glide_lignum>
50

> <i_i_glide_rotatable_bonds>
9

> <r_i_docking_score>
-8.83926811504024

> <r_i_glide_ligand_efficiency>
-0.327380300557046

> <r_i_glide_ligand_efficiency_sa>
-0.982140900592146

> <r_i_glide_ligand_efficiency_ln>
-2.05763589045733

> <r_i_glide_gscore>
-8.83926811504024

> <r_i_glide_lipo>
-4.9668989426174

> <r_i_glide_hbond>
-0.231212083581976

> <r_i_glide_metal>
0

> <r_i_glide_rewards>
-1.88106724475301

> <r_i_glide_evdw>
-51.1530532836914

> <r_i_glide_ecoul>
-2.28907370567322

> <r_i_glide_erotb>
1.1409238759477

> <r_i_glide_esite>
0

> <r_i_glide_emodel>
-71.2054726166825

> <r_i_glide_energy>
-53.4421269893646

> <r_i_glide_einternal>
9.11250972747803

> <i_i_glide_confnum>
74

> <i_i_glide_posenum>
254

> <r_i_glide_eff_state_penalty>
0

> <s_user_duplicate_titles>
CHEMBL4618_lig37

> <s_m_subgroup_title>
dock_pv

> <s_m_subgroupid>
dock_pv

> <b_m_subgroup_collapsed>
1

$$$$
CHEMBL4618_lig292
                    3D
 Schrodinger Suite 2021-1.
 50 53  0  0  1  0            999 V2000
    9.7220   34.9691   73.0772 C   0  0  0  0  0  0
   10.2523   36.1215   73.6390 C   0  0  0  0  0  0
   10.0387   37.3657   73.0519 C   0  0  0  0  0  0
    8.9207   35.0186   71.9397 C   0  0  0  0  0  0
    8.6739   36.2708   71.3575 C   0  0  0  0  0  0
    9.2349   37.4559   71.9028 C   0  0  0  0  0  0
    8.9209   38.6043   71.2343 N   0  0  0  0  0  0
    8.1310   38.3492   70.2281 C   0  0  0  0  0  0
    7.7211   36.6913   69.9399 S   0  0  0  0  0  0
    7.4985   39.2611   69.4254 O   0  0  0  0  0  0
    8.2433   40.1066   68.6464 C   0  0  0  0  0  0
    8.0437   41.4804   68.7518 C   0  0  0  0  0  0
    8.8147   42.3539   67.9921 C   0  0  0  0  0  0
    9.7823   41.8679   67.1154 C   0  0  0  0  0  0
    9.8965   40.4814   66.9360 C   0  0  0  0  0  0
    9.1387   39.6055   67.7039 C   0  0  0  0  0  0
   10.5863   42.8055   66.4940 O   0  0  0  0  0  0
   11.7574   42.3702   65.8045 C   0  0  0  0  0  0
   12.8775   43.4200   65.9096 C   0  0  0  0  0  0
   14.2150   42.8907   65.5986 N   0  0  0  0  0  0
   15.3112   43.8150   65.9124 C   0  0  0  0  0  0
   16.7079   43.2461   66.2512 C   0  0  0  0  0  0
   14.3111   42.0730   64.3872 C   0  0  0  0  0  0
   17.5422   42.5704   65.1388 C   0  0  0  0  0  0
   15.5297   41.1590   64.3043 C   0  0  0  0  0  0
   16.7934   41.9453   63.9489 C   0  0  0  0  0  0
    9.9185   34.0160   73.5479 H   0  0  0  0  0  0
   10.8537   36.0459   74.5344 H   0  0  0  0  0  0
   10.4789   38.2276   73.5130 H   0  0  0  0  0  0
    8.4894   34.1137   71.5389 H   0  0  0  0  0  0
    7.3128   41.8705   69.4456 H   0  0  0  0  0  0
    8.6770   43.4164   68.1058 H   0  0  0  0  0  0
   10.5802   40.0525   66.2207 H   0  0  0  0  0  0
    9.2583   38.5387   67.5789 H   0  0  0  0  0  0
   11.5009   42.2194   64.7540 H   0  0  0  0  0  0
   12.1569   41.4386   66.2070 H   0  0  0  0  0  0
   12.8749   43.8149   66.9250 H   0  0  0  0  0  0
   12.6562   44.2542   65.2429 H   0  0  0  0  0  0
   15.3798   44.5786   65.1406 H   0  0  0  0  0  0
   15.0195   44.3496   66.8169 H   0  0  0  0  0  0
   16.6572   42.6166   67.1350 H   0  0  0  0  0  0
   17.3035   44.0914   66.5982 H   0  0  0  0  0  0
   14.2577   42.7409   63.5246 H   0  0  0  0  0  0
   13.4565   41.4070   64.2849 H   0  0  0  0  0  0
   18.1837   41.8168   65.5948 H   0  0  0  0  0  0
   18.2389   43.3093   64.7400 H   0  0  0  0  0  0
   15.3213   40.4124   63.5399 H   0  0  0  0  0  0
   15.6466   40.6294   65.2470 H   0  0  0  0  0  0
   16.5208   42.7375   63.2479 H   0  0  0  0  0  0
   17.4729   41.3282   63.3684 H   0  0  0  0  0  0
  1  2  2  0  0  0
  1  4  1  0  0  0
  1 27  1  0  0  0
  2  3  1  0  0  0
  2 28  1  0  0  0
  3  6  2  0  0  0
  3 29  1  0  0  0
  4  5  2  0  0  0
  4 30  1  0  0  0
  5  9  1  0  0  0
  5  6  1  0  0  0
  6  7  1  0  0  0
  7  8  2  0  0  0
  8  9  1  0  0  0
  8 10  1  0  0  0
 10 11  1  0  0  0
 11 16  1  0  0  0
 11 12  2  0  0  0
 12 13  1  0  0  0
 12 31  1  0  0  0
 13 14  2  0  0  0
 13 32  1  0  0  0
 14 15  1  0  0  0
 14 17  1  0  0  0
 15 16  2  0  0  0
 15 33  1  0  0  0
 16 34  1  0  0  0
 17 18  1  0  0  0
 18 19  1  0  0  0
 18 35  1  0  0  0
 18 36  1  0  0  0
 19 20  1  0  0  0
 19 37  1  0  0  0
 19 38  1  0  0  0
 20 21  1  0  0  0
 20 23  1  0  0  0
 21 22  1  0  0  0
 21 39  1  0  0  0
 21 40  1  0  0  0
 22 24  1  0  0  0
 22 41  1  0  0  0
 22 42  1  0  0  0
 23 25  1  0  0  0
 23 43  1  0  0  0
 23 44  1  0  0  0
 24 26  1  0  0  0
 24 45  1  0  0  0
 24 46  1  0  0  0
 25 26  1  0  0  0
 25 47  1  0  0  0
 25 48  1  0  0  0
 26 49  1  0  0  0
 26 50  1  0  0  0
M  END
> <s_m_entry_id>
6884

> <s_m_entry_name>
dock_pv.314

> <s_m_Source_Path>
/home/csk/Desktop/cluster/DUD-E-result/lkha4

> <s_m_Source_File>
dock_pv.maegz

> <i_m_Source_File_Index>
314

> <chembl_id>
CHEMBL520120

> <chembl_pref_name>
None

> <i_lp_mmshare_version>
53161

> <i_f3d_flags>
0

> <r_lp_tautomer_probability>
1

> <s_lp_Force_Field>
OPLS_2005

> <r_lp_Energy>
35.022449

> <b_lp_Chiralities_Consistent>
1

> <s_lp_Variant>
CHEMBL4618_lig292-1

> <s_i_glide_gridfile>
glide-grid_3chp

> <i_i_glide_lignum>
330

> <i_i_glide_rotatable_bonds>
6

> <r_i_docking_score>
-8.82351610964607

> <r_i_glide_ligand_efficiency>
-0.339366004217157

> <r_i_glide_ligand_efficiency_sa>
-1.00537045215258

> <r_i_glide_ligand_efficiency_ln>
-2.07217380603257

> <r_i_glide_gscore>
-8.82351610964607

> <r_i_glide_lipo>
-5.02891817606603

> <r_i_glide_hbond>
0

> <r_i_glide_metal>
0

> <r_i_glide_rewards>
-1.51765982038606

> <r_i_glide_evdw>
-50.455150604248

> <r_i_glide_ecoul>
-3.09175252914429

> <r_i_glide_erotb>
0.709582296390071

> <r_i_glide_esite>
0

> <r_i_glide_emodel>
-68.9613376812139

> <r_i_glide_energy>
-53.5469031333923

> <r_i_glide_einternal>
12.445216178894

> <i_i_glide_confnum>
3

> <i_i_glide_posenum>
381

> <r_i_glide_eff_state_penalty>
0

> <s_user_duplicate_titles>
CHEMBL4618_lig292,467578

> <s_m_subgroup_title>
dock_pv

> <s_m_subgroupid>
dock_pv

> <b_m_subgroup_collapsed>
1

$$$$
CHEMBL4618_lig112
                    3D
 Schrodinger Suite 2021-1.
 45 47  0  0  1  0            999 V2000
   17.8020   42.6161   66.2710 N   0  0  0  0  0  0
    9.2418   42.4755   67.7933 S   0  0  0  0  0  0
    9.7952   42.8438   66.1026 C   0  0  0  0  0  0
   11.2793   42.5948   65.8352 C   0  0  0  0  0  0
   13.9662   42.1060   65.1436 C   0  0  0  0  0  0
    8.7324   40.7889   67.9535 C   0  0  0  0  0  0
   11.9971   43.5199   65.0774 C   0  0  0  0  0  0
   11.9166   41.4234   66.2485 C   0  0  0  0  0  0
   13.2381   41.1803   65.8851 C   0  0  0  0  0  0
   13.3211   43.2794   64.7234 C   0  0  0  0  0  0
   15.3016   41.8041   64.9177 O   0  0  0  0  0  0
   17.6099   42.6946   64.8210 C   0  0  0  0  0  0
   16.1429   42.8305   64.3928 C   0  0  0  0  0  0
   17.3033   43.7496   67.0398 C   0  0  0  0  0  0
   19.2174   42.5827   66.6207 C   0  0  0  0  0  0
    8.9377   39.8456   66.9495 C   0  0  0  0  0  0
    8.1205   40.4072   69.1405 C   0  0  0  0  0  0
   19.2672   42.8506   68.1259 C   0  0  0  0  0  0
   17.9637   43.6029   68.4133 C   0  0  0  0  0  0
    8.5215   38.5350   67.1385 C   0  0  0  0  0  0
    7.7252   39.0879   69.3438 C   0  0  0  0  0  0
    7.9254   38.1518   68.3365 C   0  0  0  0  0  0
    9.5542   43.8908   65.9183 H   0  0  0  0  0  0
    9.1957   42.2723   65.3985 H   0  0  0  0  0  0
   11.5276   44.4295   64.7397 H   0  0  0  0  0  0
   11.3976   40.6865   66.8381 H   0  0  0  0  0  0
   13.7208   40.2687   66.2065 H   0  0  0  0  0  0
   13.8197   44.0174   64.1154 H   0  0  0  0  0  0
   18.1496   43.5641   64.4441 H   0  0  0  0  0  0
   18.0479   41.8171   64.3449 H   0  0  0  0  0  0
   15.8374   43.8153   64.7401 H   0  0  0  0  0  0
   16.0727   42.8163   63.3035 H   0  0  0  0  0  0
   16.2149   43.6940   67.0952 H   0  0  0  0  0  0
   17.5250   44.7043   66.5586 H   0  0  0  0  0  0
   19.8066   43.3036   66.0482 H   0  0  0  0  0  0
   19.6333   41.6102   66.3505 H   0  0  0  0  0  0
    9.4316   40.0982   66.0265 H   0  0  0  0  0  0
    7.9552   41.1361   69.9194 H   0  0  0  0  0  0
   20.1448   43.4425   68.3853 H   0  0  0  0  0  0
   19.3236   41.9165   68.6872 H   0  0  0  0  0  0
   17.3227   43.0396   69.0929 H   0  0  0  0  0  0
   18.1421   44.5753   68.8722 H   0  0  0  0  0  0
    8.6996   37.8164   66.3551 H   0  0  0  0  0  0
    7.2633   38.8012   70.2773 H   0  0  0  0  0  0
    7.6251   37.1252   68.4842 H   0  0  0  0  0  0
  1 12  1  0  0  0
  1 14  1  0  0  0
  1 15  1  0  0  0
  2  3  1  0  0  0
  2  6  1  0  0  0
  3  4  1  0  0  0
  3 23  1  0  0  0
  3 24  1  0  0  0
  4  7  2  0  0  0
  4  8  1  0  0  0
  5 11  1  0  0  0
  5  9  1  0  0  0
  5 10  2  0  0  0
  6 16  2  0  0  0
  6 17  1  0  0  0
  7 10  1  0  0  0
  7 25  1  0  0  0
  8  9  2  0  0  0
  8 26  1  0  0  0
  9 27  1  0  0  0
 10 28  1  0  0  0
 11 13  1  0  0  0
 12 13  1  0  0  0
 12 29  1  0  0  0
 12 30  1  0  0  0
 13 31  1  0  0  0
 13 32  1  0  0  0
 14 19  1  0  0  0
 14 33  1  0  0  0
 14 34  1  0  0  0
 15 18  1  0  0  0
 15 35  1  0  0  0
 15 36  1  0  0  0
 16 20  1  0  0  0
 16 37  1  0  0  0
 17 21  2  0  0  0
 17 38  1  0  0  0
 18 19  1  0  0  0
 18 39  1  0  0  0
 18 40  1  0  0  0
 19 41  1  0  0  0
 19 42  1  0  0  0
 20 22  2  0  0  0
 20 43  1  0  0  0
 21 22  1  0  0  0
 21 44  1  0  0  0
 22 45  1  0  0  0
M  END
> <s_m_entry_id>
6885

> <s_m_entry_name>
dock_pv.315

> <s_m_Source_Path>
/home/csk/Desktop/cluster/DUD-E-result/lkha4

> <s_m_Source_File>
dock_pv.maegz

> <i_m_Source_File_Index>
315

> <chembl_id>
CHEMBL162835

> <chembl_pref_name>
None

> <i_lp_mmshare_version>
53161

> <i_f3d_flags>
0

> <r_lp_tautomer_probability>
1

> <s_lp_Force_Field>
OPLS_2005

> <r_lp_Energy>
33.841833

> <b_lp_Chiralities_Consistent>
1

> <s_lp_Variant>
CHEMBL4618_lig112-1

> <s_i_glide_gridfile>
glide-grid_3chp

> <i_i_glide_lignum>
138

> <i_i_glide_rotatable_bonds>
7

> <r_i_docking_score>
-8.81878994741621

> <r_i_glide_ligand_efficiency>
-0.400854088518919

> <r_i_glide_ligand_efficiency_sa>
-1.12320892072673

> <r_i_glide_ligand_efficiency_ln>
-2.15563393632763

> <r_i_glide_gscore>
-8.81878994741621

> <r_i_glide_lipo>
-4.47059158999842

> <r_i_glide_hbond>
-0.201065814406379

> <r_i_glide_metal>
0

> <r_i_glide_rewards>
-2.1691852026877

> <r_i_glide_evdw>
-38.5631675720215

> <r_i_glide_ecoul>
-7.89355373382568

> <r_i_glide_erotb>
1.13424409835121

> <r_i_glide_esite>
0

> <r_i_glide_emodel>
-70.8547544910689

> <r_i_glide_energy>
-46.4567213058472

> <r_i_glide_einternal>
3.29546475410461

> <i_i_glide_confnum>
38

> <i_i_glide_posenum>
257

> <r_i_glide_eff_state_penalty>
0

> <s_user_duplicate_titles>
CHEMBL4618_lig112,271864

> <s_m_subgroup_title>
dock_pv

> <s_m_subgroupid>
dock_pv

> <b_m_subgroup_collapsed>
1

$$$$
CHEMBL4618_lig401
                    3D
 Schrodinger Suite 2021-1.
 53 57  0  0  1  0            999 V2000
   10.9210   35.0182   74.6056 C   0  0  0  0  0  0
   10.3682   36.2657   74.3070 C   0  0  0  0  0  0
   10.1206   34.0671   72.5143 N   0  0  0  0  0  0
   10.8121   33.9791   73.6806 C   0  0  0  0  0  0
    9.5454   35.2461   72.2522 C   0  0  0  0  0  0
    9.6858   36.3826   73.0852 C   0  0  0  0  0  0
    8.9251   37.7534   72.2812 S   0  0  0  0  0  0
    8.5195   36.7002   70.9423 C   0  0  0  0  0  0
    8.7943   35.4446   71.1401 N   0  0  0  0  0  0
    7.9301   37.1589   69.7766 O   0  0  0  0  0  0
    8.2415   38.3532   69.1421 C   0  0  0  0  0  0
    8.5208   38.3058   67.7749 C   0  0  0  0  0  0
    8.9209   39.4492   67.0797 C   0  0  0  0  0  0
    8.9643   40.6849   67.7359 C   0  0  0  0  0  0
    8.5210   40.7611   69.0467 C   0  0  0  0  0  0
    8.2571   39.6020   69.7615 C   0  0  0  0  0  0
    9.5699   41.9580   67.1384 C   0  0  0  0  0  0
   10.5096   41.7463   65.9394 C   0  0  0  0  0  0
   11.5056   42.8005   65.7691 N   0  0  1  0  0  0
   12.6610   42.6985   66.6440 C   0  0  0  0  0  0
   12.1755   42.7122   64.4847 C   0  0  0  0  0  0
   13.4036   43.5694   64.5217 C   0  0  1  0  0  0
   13.6337   43.6750   65.9933 C   0  0  2  0  0  0
   15.1294   43.5801   66.2368 C   0  0  0  0  0  0
   15.6015   42.9365   65.0250 N   0  0  0  0  0  0
   14.6121   42.8493   63.9480 C   0  0  0  0  0  0
   16.7580   42.2704   64.9427 C   0  0  0  0  0  0
   17.8833   42.5667   65.9378 C   0  0  0  0  0  0
   16.9210   41.4160   64.0830 O   0  0  0  0  0  0
   11.4549   34.8671   75.5333 H   0  0  0  0  0  0
   10.4810   37.1023   74.9807 H   0  0  0  0  0  0
   11.2566   33.0164   73.8925 H   0  0  0  0  0  0
    8.5126   37.3610   67.2610 H   0  0  0  0  0  0
    9.2263   39.3483   66.0484 H   0  0  0  0  0  0
    8.5181   41.7186   69.5406 H   0  0  0  0  0  0
    8.1205   39.7207   70.8162 H   0  0  0  0  0  0
   10.1259   42.4583   67.9343 H   0  0  0  0  0  0
    8.7622   42.6401   66.8640 H   0  0  0  0  0  0
    9.8581   41.8163   65.0769 H   0  0  0  0  0  0
   10.9809   40.7617   65.9429 H   0  0  0  0  0  0
   13.0521   41.6836   66.7401 H   0  0  0  0  0  0
   12.3794   43.0164   67.6430 H   0  0  0  0  0  0
   12.5210   41.6831   64.3402 H   0  0  0  0  0  0
   11.5085   43.0157   63.6769 H   0  0  0  0  0  0
   13.2359   44.5419   64.0535 H   0  0  0  0  0  0
   13.2738   44.6159   66.2854 H   0  0  0  0  0  0
   15.3061   43.0177   67.1402 H   0  0  0  0  0  0
   15.5294   44.5913   66.3133 H   0  0  0  0  0  0
   14.4035   41.8004   63.7330 H   0  0  0  0  0  0
   14.9151   43.3620   63.0399 H   0  0  0  0  0  0
   18.3315   43.5290   65.6890 H   0  0  0  0  0  0
   17.5364   42.6088   66.9699 H   0  0  0  0  0  0
   18.6711   41.8166   65.8714 H   0  0  0  0  0  0
  1  2  2  0  0  0
  1  4  1  0  0  0
  1 30  1  0  0  0
  2  6  1  0  0  0
  2 31  1  0  0  0
  3  5  1  0  0  0
  3  4  2  0  0  0
  4 32  1  0  0  0
  5  6  2  0  0  0
  5  9  1  0  0  0
  6  7  1  0  0  0
  7  8  1  0  0  0
  8  9  2  0  0  0
  8 10  1  0  0  0
 10 11  1  0  0  0
 11 12  2  0  0  0
 11 16  1  0  0  0
 12 13  1  0  0  0
 12 33  1  0  0  0
 13 14  2  0  0  0
 13 34  1  0  0  0
 14 15  1  0  0  0
 14 17  1  0  0  0
 15 16  2  0  0  0
 15 35  1  0  0  0
 16 36  1  0  0  0
 17 18  1  0  0  0
 17 37  1  0  0  0
 17 38  1  0  0  0
 18 19  1  0  0  0
 18 39  1  0  0  0
 18 40  1  0  0  0
 19 20  1  0  0  0
 19 21  1  0  0  0
 20 23  1  0  0  0
 20 41  1  0  0  0
 20 42  1  0  0  0
 21 22  1  0  0  0
 21 43  1  0  0  0
 21 44  1  0  0  0
 22 23  1  0  0  0
 22 26  1  0  0  0
 22 45  1  0  0  0
 23 24  1  0  0  0
 23 46  1  0  0  0
 24 25  1  0  0  0
 24 47  1  0  0  0
 24 48  1  0  0  0
 25 26  1  0  0  0
 25 27  1  0  0  0
 26 49  1  0  0  0
 26 50  1  0  0  0
 27 28  1  0  0  0
 27 29  2  0  0  0
 28 51  1  0  0  0
 28 52  1  0  0  0
 28 53  1  0  0  0
M  END
> <s_m_entry_id>
6886

> <s_m_entry_name>
dock_pv.316

> <s_m_Source_Path>
/home/csk/Desktop/cluster/DUD-E-result/lkha4

> <s_m_Source_File>
dock_pv.maegz

> <i_m_Source_File_Index>
316

> <chembl_id>
CHEMBL2207745

> <chembl_pref_name>
None

> <i_lp_mmshare_version>
53161

> <i_f3d_flags>
0

> <r_lp_tautomer_probability>
1

> <s_lp_Force_Field>
OPLS_2005

> <r_lp_Energy>
60.334476

> <b_lp_Chiralities_Consistent>
1

> <s_lp_Variant>
CHEMBL4618_lig401-1

> <s_i_glide_gridfile>
glide-grid_3chp

> <i_i_glide_lignum>
466

> <i_i_glide_rotatable_bonds>
6

> <r_i_docking_score>
-8.81552295088425

> <r_i_glide_ligand_efficiency>
-0.303983550030491

> <r_i_glide_ligand_efficiency_sa>
-0.933933774442117

> <r_i_glide_ligand_efficiency_ln>
-2.01853121337822

> <r_i_glide_gscore>
-8.81552295088425

> <r_i_glide_lipo>
-5.12659793064436

> <r_i_glide_hbond>
0

> <r_i_glide_metal>
0

> <r_i_glide_rewards>
-1.44212090356533

> <r_i_glide_evdw>
-37.8121070861816

> <r_i_glide_ecoul>
-4.97255229949951

> <r_i_glide_erotb>
0.589684082559454

> <r_i_glide_esite>
-0.2

> <r_i_glide_emodel>
-41.7176427748361

> <r_i_glide_energy>
-42.7846593856812

> <r_i_glide_einternal>
22.0092449188232

> <i_i_glide_confnum>
20

> <i_i_glide_posenum>
175

> <r_i_glide_eff_state_penalty>
0

> <s_user_duplicate_titles>
CHEMBL4618_lig401

> <s_m_subgroup_title>
dock_pv

> <s_m_subgroupid>
dock_pv

> <b_m_subgroup_collapsed>
1

$$$$
CHEMBL4618_lig115
                    3D
 Schrodinger Suite 2021-1.
 44 46  0  0  1  0            999 V2000
    8.4657   38.7714   67.6450 C   0  0  0  0  0  0
   10.7537   42.6376   65.8266 N   0  0  0  0  0  0
    8.5746   40.0568   68.1527 C   0  0  0  0  0  0
    8.2743   37.6682   68.4884 C   0  0  0  0  0  0
    8.2526   37.8371   69.8801 C   0  0  0  0  0  0
    8.5208   40.2201   69.5308 C   0  0  0  0  0  0
    7.8928   36.6892   70.8294 C   0  0  0  0  0  0
    8.5210   38.6160   65.9400 Cl  0  0  0  0  0  0
    8.4020   39.1255   70.3819 C   0  0  0  0  0  0
    8.7067   41.0812   67.2363 O   0  0  0  0  0  0
    8.9016   36.2240   71.8937 C   0  0  0  0  0  0
    9.5283   43.1839   66.4289 C   0  0  0  0  0  0
    8.9918   42.4066   67.6507 C   0  0  0  0  0  0
   11.8531   42.3873   66.7400 C   0  0  0  0  0  0
   11.3411   43.5224   64.8313 C   0  0  0  0  0  0
    9.3510   37.0848   72.8996 C   0  0  0  0  0  0
    9.2896   34.8806   71.9400 C   0  0  0  0  0  0
   12.7918   43.0720   64.6303 C   0  0  0  0  0  0
   13.0840   42.2061   65.8548 C   0  0  0  0  0  0
   10.1774   36.6160   73.9190 C   0  0  0  0  0  0
   10.1211   34.4069   72.9491 C   0  0  0  0  0  0
   10.5516   35.2767   73.9434 C   0  0  0  0  0  0
    8.1414   36.6870   68.0598 H   0  0  0  0  0  0
    8.5197   41.2101   69.9399 H   0  0  0  0  0  0
    7.0007   37.0160   71.3656 H   0  0  0  0  0  0
    7.5787   35.8311   70.2335 H   0  0  0  0  0  0
    8.3110   39.3229   71.4365 H   0  0  0  0  0  0
    9.6834   44.2160   66.7217 H   0  0  0  0  0  0
    8.7562   43.1979   65.6605 H   0  0  0  0  0  0
    9.7212   42.4390   68.4602 H   0  0  0  0  0  0
    8.0782   42.8743   68.0208 H   0  0  0  0  0  0
   11.6145   41.4796   67.2930 H   0  0  0  0  0  0
   11.9708   43.1818   67.4797 H   0  0  0  0  0  0
   11.2922   44.5683   65.1400 H   0  0  0  0  0  0
   10.7621   43.4447   63.9127 H   0  0  0  0  0  0
    9.0423   38.1150   72.9354 H   0  0  0  0  0  0
    8.9210   34.1849   71.2000 H   0  0  0  0  0  0
   13.4600   43.9334   64.5866 H   0  0  0  0  0  0
   12.9211   42.5071   63.7064 H   0  0  0  0  0  0
   13.2122   41.1556   65.5876 H   0  0  0  0  0  0
   13.9902   42.5256   66.3686 H   0  0  0  0  0  0
   10.5196   37.2851   74.6953 H   0  0  0  0  0  0
   10.4072   33.3649   72.9772 H   0  0  0  0  0  0
   11.1818   34.9087   74.7407 H   0  0  0  0  0  0
  1  3  1  0  0  0
  1  4  2  0  0  0
  1  8  1  0  0  0
  2 12  1  0  0  0
  2 14  1  0  0  0
  2 15  1  0  0  0
  3  6  2  0  0  0
  3 10  1  0  0  0
  4  5  1  0  0  0
  4 23  1  0  0  0
  5  7  1  0  0  0
  5  9  2  0  0  0
  6  9  1  0  0  0
  6 24  1  0  0  0
  7 11  1  0  0  0
  7 25  1  0  0  0
  7 26  1  0  0  0
  9 27  1  0  0  0
 10 13  1  0  0  0
 11 16  1  0  0  0
 11 17  2  0  0  0
 12 13  1  0  0  0
 12 28  1  0  0  0
 12 29  1  0  0  0
 13 30  1  0  0  0
 13 31  1  0  0  0
 14 19  1  0  0  0
 14 32  1  0  0  0
 14 33  1  0  0  0
 15 18  1  0  0  0
 15 34  1  0  0  0
 15 35  1  0  0  0
 16 20  2  0  0  0
 16 36  1  0  0  0
 17 21  1  0  0  0
 17 37  1  0  0  0
 18 19  1  0  0  0
 18 38  1  0  0  0
 18 39  1  0  0  0
 19 40  1  0  0  0
 19 41  1  0  0  0
 20 22  1  0  0  0
 20 42  1  0  0  0
 21 22  2  0  0  0
 21 43  1  0  0  0
 22 44  1  0  0  0
M  END
> <s_m_entry_id>
6887

> <s_m_entry_name>
dock_pv.317

> <s_m_Source_Path>
/home/csk/Desktop/cluster/DUD-E-result/lkha4

> <s_m_Source_File>
dock_pv.maegz

> <i_m_Source_File_Index>
317

> <chembl_id>
CHEMBL423811

> <chembl_pref_name>
None

> <i_lp_mmshare_version>
53161

> <i_f3d_flags>
0

> <r_lp_tautomer_probability>
1

> <s_lp_Force_Field>
OPLS_2005

> <r_lp_Energy>
37.05304

> <b_lp_Chiralities_Consistent>
1

> <s_lp_Variant>
CHEMBL4618_lig115-1

> <s_i_glide_gridfile>
glide-grid_3chp

> <i_i_glide_lignum>
141

> <i_i_glide_rotatable_bonds>
6

> <r_i_docking_score>
-8.81194340300905

> <r_i_glide_ligand_efficiency>
-0.400542881954957

> <r_i_glide_ligand_efficiency_sa>
-1.12233690769545

> <r_i_glide_ligand_efficiency_ln>
-2.15396039114074

> <r_i_glide_gscore>
-8.81194340300905

> <r_i_glide_lipo>
-5.45704973304688

> <r_i_glide_hbond>
0

> <r_i_glide_metal>
0

> <r_i_glide_rewards>
-2.15565831818182

> <r_i_glide_evdw>
-38.136173248291

> <r_i_glide_ecoul>
-1.50096642971039

> <r_i_glide_erotb>
0.932718275090753

> <r_i_glide_esite>
0

> <r_i_glide_emodel>
-55.8219396578566

> <r_i_glide_energy>
-39.6371396780014

> <r_i_glide_einternal>
2.79869055747986

> <i_i_glide_confnum>
22

> <i_i_glide_posenum>
106

> <r_i_glide_eff_state_penalty>
0

> <s_user_duplicate_titles>
CHEMBL4618_lig115

> <s_m_subgroup_title>
dock_pv

> <s_m_subgroupid>
dock_pv

> <b_m_subgroup_collapsed>
1

$$$$
CHEMBL4618_lig351
                    3D
 Schrodinger Suite 2021-1.
 42 44  0  0  1  0            999 V2000
   13.7285   41.6390   65.1428 C   0  0  0  0  0  0
   13.9819   42.6155   64.1860 C   0  0  0  0  0  0
   13.1247   43.7020   64.0508 C   0  0  0  0  0  0
   11.9964   43.7883   64.8580 C   0  0  0  0  0  0
   11.7121   42.8113   65.8062 C   0  0  0  0  0  0
   12.6188   41.7572   65.9748 C   0  0  0  0  0  0
   10.5532   42.9920   66.5411 O   0  0  0  0  0  0
    9.8100   41.9776   67.1178 C   0  0  0  0  0  0
    9.8893   40.6344   66.7402 C   0  0  0  0  0  0
    9.1447   39.6652   67.3923 C   0  0  0  0  0  0
    8.3110   40.0183   68.4572 C   0  0  0  0  0  0
    8.1365   41.3687   68.7573 C   0  0  0  0  0  0
    8.8841   42.3410   68.0956 C   0  0  0  0  0  0
    7.6469   39.1081   69.2529 O   0  0  0  0  0  0
    8.0545   37.7368   69.2645 C   0  0  0  0  0  0
    8.1754   37.2392   70.7159 C   0  0  2  0  0  0
    9.2148   38.0646   71.5204 C   0  0  0  0  0  0
    9.4021   37.5550   72.9593 C   0  0  0  0  0  0
    9.6038   36.0361   72.9975 C   0  0  0  0  0  0
    8.5690   35.3015   72.1416 C   0  0  0  0  0  0
    8.5205   35.8162   70.7818 N   0  0  1  0  0  0
   14.3898   40.7940   65.2501 H   0  0  0  0  0  0
   14.8435   42.5351   63.5379 H   0  0  0  0  0  0
   13.3207   44.4613   63.3070 H   0  0  0  0  0  0
   11.3207   44.6158   64.7543 H   0  0  0  0  0  0
   12.4655   41.0159   66.7390 H   0  0  0  0  0  0
   10.5291   40.3100   65.9396 H   0  0  0  0  0  0
    9.2540   38.6451   67.0580 H   0  0  0  0  0  0
    7.4527   41.6610   69.5400 H   0  0  0  0  0  0
    8.7576   43.3815   68.3563 H   0  0  0  0  0  0
    9.0118   37.5489   68.7869 H   0  0  0  0  0  0
    7.3185   37.1533   68.7133 H   0  0  0  0  0  0
    7.1929   37.3401   71.1819 H   0  0  0  0  0  0
    8.9196   39.1148   71.5360 H   0  0  0  0  0  0
   10.1809   38.0164   71.0184 H   0  0  0  0  0  0
    8.5201   37.8134   73.5399 H   0  0  0  0  0  0
   10.2485   38.0495   73.4364 H   0  0  0  0  0  0
    9.5338   35.6839   74.0281 H   0  0  0  0  0  0
   10.5972   35.7477   72.6706 H   0  0  0  0  0  0
    7.5791   35.4170   72.5775 H   0  0  0  0  0  0
    8.8033   34.2372   72.0936 H   0  0  0  0  0  0
    7.8330   35.2523   70.2842 H   0  0  0  0  0  0
  1  6  1  0  0  0
  1  2  2  0  0  0
  1 22  1  0  0  0
  2  3  1  0  0  0
  2 23  1  0  0  0
  3  4  2  0  0  0
  3 24  1  0  0  0
  4  5  1  0  0  0
  4 25  1  0  0  0
  5  6  2  0  0  0
  5  7  1  0  0  0
  6 26  1  0  0  0
  7  8  1  0  0  0
  8 13  1  0  0  0
  8  9  2  0  0  0
  9 10  1  0  0  0
  9 27  1  0  0  0
 10 11  2  0  0  0
 10 28  1  0  0  0
 11 12  1  0  0  0
 11 14  1  0  0  0
 12 13  2  0  0  0
 12 29  1  0  0  0
 13 30  1  0  0  0
 14 15  1  0  0  0
 15 16  1  0  0  0
 15 31  1  0  0  0
 15 32  1  0  0  0
 16 17  1  0  0  0
 16 21  1  0  0  0
 16 33  1  0  0  0
 17 18  1  0  0  0
 17 34  1  0  0  0
 17 35  1  0  0  0
 18 19  1  0  0  0
 18 36  1  0  0  0
 18 37  1  0  0  0
 19 20  1  0  0  0
 19 38  1  0  0  0
 19 39  1  0  0  0
 20 21  1  0  0  0
 20 40  1  0  0  0
 20 41  1  0  0  0
 21 42  1  0  0  0
M  END
> <s_m_entry_id>
6889

> <s_m_entry_name>
dock_pv.319

> <s_m_Source_Path>
/home/csk/Desktop/cluster/DUD-E-result/lkha4

> <s_m_Source_File>
dock_pv.maegz

> <i_m_Source_File_Index>
319

> <chembl_id>
CHEMBL1097151

> <chembl_pref_name>
None

> <i_lp_mmshare_version>
53161

> <i_f3d_flags>
0

> <r_lp_tautomer_probability>
1

> <s_lp_Force_Field>
OPLS_2005

> <r_lp_Energy>
29.470923

> <b_lp_Chiralities_Consistent>
1

> <s_lp_Variant>
CHEMBL4618_lig351-1

> <s_i_glide_gridfile>
glide-grid_3chp

> <i_i_glide_lignum>
396

> <i_i_glide_rotatable_bonds>
5

> <r_i_docking_score>
-8.80277203060051

> <r_i_glide_ligand_efficiency>
-0.419179620504786

> <r_i_glide_ligand_efficiency_sa>
-1.15648478808327

> <r_i_glide_ligand_efficiency_ln>
-2.17646759689023

> <r_i_glide_gscore>
-8.80277203060051

> <r_i_glide_lipo>
-5.08350364582177

> <r_i_glide_hbond>
-0.32

> <r_i_glide_metal>
0

> <r_i_glide_rewards>
-2.03278221100445

> <r_i_glide_evdw>
-38.807258605957

> <r_i_glide_ecoul>
-3.69188261032104

> <r_i_glide_erotb>
1.12765914807172

> <r_i_glide_esite>
0

> <r_i_glide_emodel>
-59.8747933951085

> <r_i_glide_energy>
-42.4991412162781

> <r_i_glide_einternal>
9.81357479095459

> <i_i_glide_confnum>
69

> <i_i_glide_posenum>
101

> <r_i_glide_eff_state_penalty>
0

> <s_user_duplicate_titles>
CHEMBL4618_lig351,CHEMBL4618_lig354,627409,627412

> <s_m_subgroup_title>
dock_pv

> <s_m_subgroupid>
dock_pv

> <b_m_subgroup_collapsed>
1

$$$$
CHEMBL4618_lig518
                    3D
 Schrodinger Suite 2021-1.
 57 58  0  0  1  0            999 V2000
   10.1241   35.9951   74.2781 C   0  0  0  0  0  0
   10.9863   35.0154   74.7596 C   0  0  0  0  0  0
   11.2013   33.8538   74.0185 C   0  0  0  0  0  0
   10.5213   33.6411   72.8225 C   0  0  0  0  0  0
    9.6667   34.6229   72.3399 C   0  0  0  0  0  0
    9.4687   35.8057   73.0593 C   0  0  0  0  0  0
    8.5339   36.8904   72.5454 C   0  0  0  0  0  0
    8.1911   36.6571   71.1733 O   0  0  0  0  0  0
    8.2621   37.6697   70.2392 C   0  0  0  0  0  0
    8.4631   39.0160   70.5479 C   0  0  0  0  0  0
    8.5210   39.9646   69.5398 C   0  0  0  0  0  0
    8.1206   37.3045   68.9010 C   0  0  0  0  0  0
    8.2300   38.2533   67.8856 C   0  0  0  0  0  0
    8.4564   39.5939   68.2006 C   0  0  0  0  0  0
    8.6495   40.6193   67.0793 C   0  0  0  0  0  0
    9.2193   42.0062   67.4955 C   0  0  2  0  0  0
    8.1510   42.7987   68.0876 N   0  0  0  0  0  0
    9.8807   42.7932   66.3394 C   0  0  0  0  0  0
   11.2267   42.3426   65.9399 N   0  0  0  0  0  0
   11.6128   41.0543   66.3399 O   0  0  0  0  0  0
   12.0921   43.0160   65.1400 C   0  0  0  0  0  0
   11.9020   44.1775   64.7946 O   0  0  0  0  0  0
   13.2918   42.2868   64.5107 C   0  0  0  0  0  0
   14.6374   42.7427   65.0738 C   0  0  0  0  0  0
   15.7585   41.7983   64.6046 C   0  0  0  0  0  0
   17.0920   42.5080   64.3528 C   0  0  0  0  0  0
   17.7519   43.1831   65.5532 C   0  0  0  0  0  0
   17.3777   43.0489   66.7165 O   0  0  0  0  0  0
   18.8208   43.9163   65.1400 O   0  0  0  0  0  0
    9.9669   36.8977   74.8522 H   0  0  0  0  0  0
   11.4898   35.1527   75.7064 H   0  0  0  0  0  0
   11.8639   33.0891   74.3997 H   0  0  0  0  0  0
   10.6627   32.7192   72.2766 H   0  0  0  0  0  0
    9.1270   34.4445   71.4222 H   0  0  0  0  0  0
    9.0429   37.8311   72.7390 H   0  0  0  0  0  0
    7.6204   36.8822   73.1383 H   0  0  0  0  0  0
    8.5206   39.3846   71.5578 H   0  0  0  0  0  0
    8.6273   40.9963   69.8241 H   0  0  0  0  0  0
    7.9598   36.2674   68.6502 H   0  0  0  0  0  0
    8.1640   37.9421   66.8538 H   0  0  0  0  0  0
    7.7212   40.7633   66.5309 H   0  0  0  0  0  0
    9.3198   40.1438   66.3659 H   0  0  0  0  0  0
    9.9806   41.8752   68.2651 H   0  0  0  0  0  0
    8.4522   43.7475   68.2708 H   0  0  0  0  0  0
    7.3400   42.8852   67.4897 H   0  0  0  0  0  0
    9.9717   43.8362   66.6330 H   0  0  0  0  0  0
    9.2233   42.7795   65.4702 H   0  0  0  0  0  0
   11.0231   40.4785   65.8450 H   0  0  0  0  0  0
   13.2753   42.4787   63.4361 H   0  0  0  0  0  0
   13.2061   41.2040   64.5963 H   0  0  0  0  0  0
   14.6143   42.7792   66.1646 H   0  0  0  0  0  0
   14.8250   43.7648   64.7402 H   0  0  0  0  0  0
   15.4713   41.3387   63.6547 H   0  0  0  0  0  0
   15.8647   40.9809   65.3111 H   0  0  0  0  0  0
   16.9210   43.2581   63.5818 H   0  0  0  0  0  0
   17.8147   41.8158   63.9394 H   0  0  0  0  0  0
   18.9211   43.8160   64.1776 H   0  0  0  0  0  0
  1  2  1  0  0  0
  1  6  2  0  0  0
  1 30  1  0  0  0
  2  3  2  0  0  0
  2 31  1  0  0  0
  3  4  1  0  0  0
  3 32  1  0  0  0
  4  5  2  0  0  0
  4 33  1  0  0  0
  5  6  1  0  0  0
  5 34  1  0  0  0
  6  7  1  0  0  0
  7  8  1  0  0  0
  7 35  1  0  0  0
  7 36  1  0  0  0
  8  9  1  0  0  0
  9 10  1  0  0  0
  9 12  2  0  0  0
 10 11  2  0  0  0
 10 37  1  0  0  0
 11 14  1  0  0  0
 11 38  1  0  0  0
 12 13  1  0  0  0
 12 39  1  0  0  0
 13 14  2  0  0  0
 13 40  1  0  0  0
 14 15  1  0  0  0
 15 16  1  0  0  0
 15 41  1  0  0  0
 15 42  1  0  0  0
 16 17  1  0  0  0
 16 18  1  0  0  0
 16 43  1  0  0  0
 17 44  1  0  0  0
 17 45  1  0  0  0
 18 19  1  0  0  0
 18 46  1  0  0  0
 18 47  1  0  0  0
 19 20  1  0  0  0
 19 21  1  0  0  0
 20 48  1  0  0  0
 21 22  2  0  0  0
 21 23  1  0  0  0
 23 24  1  0  0  0
 23 49  1  0  0  0
 23 50  1  0  0  0
 24 25  1  0  0  0
 24 51  1  0  0  0
 24 52  1  0  0  0
 25 26  1  0  0  0
 25 53  1  0  0  0
 25 54  1  0  0  0
 26 27  1  0  0  0
 26 55  1  0  0  0
 26 56  1  0  0  0
 27 28  2  0  0  0
 27 29  1  0  0  0
 29 57  1  0  0  0
M  END
> <s_m_entry_id>
6891

> <s_m_entry_name>
dock_pv.321

> <s_m_Source_Path>
/home/csk/Desktop/cluster/DUD-E-result/lkha4

> <s_m_Source_File>
dock_pv.maegz

> <i_m_Source_File_Index>
321

> <chembl_id>
CHEMBL514699

> <chembl_pref_name>
None

> <i_lp_mmshare_version>
53161

> <i_f3d_flags>
0

> <r_lp_tautomer_probability>
1

> <s_lp_Force_Field>
OPLS_2005

> <r_lp_Energy>
31.178767

> <b_lp_Chiralities_Consistent>
1

> <s_lp_Variant>
CHEMBL4618_lig518-1

> <s_i_glide_gridfile>
glide-grid_3chp

> <i_i_glide_lignum>
618

> <i_i_glide_rotatable_bonds>
15

> <r_i_docking_score>
-8.8018698976708

> <r_i_glide_ligand_efficiency>
-0.303512755092097

> <r_i_glide_ligand_efficiency_sa>
-0.932487343233063

> <r_i_glide_ligand_efficiency_ln>
-2.0154050104039

> <r_i_glide_gscore>
-8.8018698976708

> <r_i_glide_lipo>
-4.98254635776184

> <r_i_glide_hbond>
-0.353527449364613

> <r_i_glide_metal>
0

> <r_i_glide_rewards>
-0.151925452014059

> <r_i_glide_evdw>
-56.5983963012695

> <r_i_glide_ecoul>
-13.1540098190308

> <r_i_glide_erotb>
1.5891506493878

> <r_i_glide_esite>
-0.1

> <r_i_glide_emodel>
-91.5133929452241

> <r_i_glide_energy>
-69.7524061203003

> <r_i_glide_einternal>
18.5117015838623

> <i_i_glide_confnum>
145

> <i_i_glide_posenum>
387

> <r_i_glide_eff_state_penalty>
0

> <s_user_duplicate_titles>
CHEMBL4618_lig518,507064

> <s_m_subgroup_title>
dock_pv

> <s_m_subgroupid>
dock_pv

> <b_m_subgroup_collapsed>
1

$$$$
CHEMBL4618_lig473
                    3D
 Schrodinger Suite 2021-1.
 60 64  0  0  1  0            999 V2000
   18.9933   42.2978   66.1164 C   0  0  0  0  0  0
   18.7965   43.6774   66.5567 N   0  0  0  0  0  0
   17.4384   44.2396   66.3591 C   0  0  2  0  0  0
   16.5225   43.8997   67.5406 C   0  0  0  0  0  0
   15.1295   43.6215   66.9479 C   0  0  0  0  0  0
   15.2354   43.8159   65.5400 N   0  0  2  0  0  0
   14.1128   43.5500   64.6217 C   0  0  0  0  0  0
   12.9458   42.7655   65.2280 C   0  0  0  0  0  0
   13.0792   41.3961   65.4082 C   0  0  0  0  0  0
   12.1145   40.6187   65.9400 N   0  0  0  0  0  0
   10.9561   41.1799   66.3648 C   0  0  0  0  0  0
    9.9741   40.3480   66.9597 C   0  0  0  0  0  0
    8.7819   40.8711   67.4413 C   0  0  0  0  0  0
    7.8127   40.0319   67.9591 O   0  0  0  0  0  0
    8.0611   39.0758   68.9248 C   0  0  0  0  0  0
    7.4355   37.8233   68.9076 C   0  0  0  0  0  0
    7.7258   36.9092   69.9349 C   0  0  0  0  0  0
    8.6398   37.2541   70.9399 C   0  0  0  0  0  0
    9.2084   38.5208   70.8606 C   0  0  0  0  0  0
    8.9210   39.4188   69.9009 N   0  0  0  0  0  0
    9.1307   36.3618   72.0357 C   0  0  0  0  0  0
    9.7208   36.7645   73.2468 C   0  0  0  0  0  0
   10.1221   35.6154   73.8922 C   0  0  0  0  0  0
    9.7671   34.6161   73.0335 N   0  0  0  0  0  0
    9.1331   35.0496   71.9398 N   0  0  0  0  0  0
    8.5209   42.2299   67.2665 C   0  0  0  0  0  0
    9.4545   43.0710   66.6507 C   0  0  0  0  0  0
   10.7091   42.5720   66.2144 C   0  0  0  0  0  0
   11.7410   43.3683   65.6255 C   0  0  0  0  0  0
   16.6357   43.6783   65.1702 C   0  0  0  0  0  0
   19.7394   44.3677   67.2542 C   0  0  0  0  0  0
   19.4671   45.4160   67.8469 O   0  0  0  0  0  0
   21.1944   43.8519   67.3607 C   0  0  0  0  0  0
   21.6929   43.4162   66.1038 O   0  0  0  0  0  0
   19.1630   42.2435   65.0410 H   0  0  0  0  0  0
   19.7848   41.7641   66.6422 H   0  0  0  0  0  0
   18.0532   41.8160   66.3394 H   0  0  0  0  0  0
   17.4338   45.3255   66.2493 H   0  0  0  0  0  0
   16.8921   43.0129   68.0596 H   0  0  0  0  0  0
   16.5108   44.7142   68.2659 H   0  0  0  0  0  0
   14.7701   42.6162   67.1244 H   0  0  0  0  0  0
   14.3306   44.2159   67.3661 H   0  0  0  0  0  0
   13.7256   44.5040   64.2582 H   0  0  0  0  0  0
   14.4812   43.0185   63.7409 H   0  0  0  0  0  0
   13.9784   40.8802   65.1057 H   0  0  0  0  0  0
   10.1213   39.2839   67.0274 H   0  0  0  0  0  0
    6.7501   37.5717   68.1134 H   0  0  0  0  0  0
    7.2795   35.9264   69.9379 H   0  0  0  0  0  0
    9.9832   38.8133   71.5399 H   0  0  0  0  0  0
    9.8532   37.7784   73.5923 H   0  0  0  0  0  0
   10.6175   35.4172   74.8332 H   0  0  0  0  0  0
    9.9146   33.6308   73.2063 H   0  0  0  0  0  0
    7.5748   42.6353   67.5976 H   0  0  0  0  0  0
    9.2249   44.1179   66.5141 H   0  0  0  0  0  0
   11.5919   44.4297   65.5063 H   0  0  0  0  0  0
   16.9662   44.2083   64.2994 H   0  0  0  0  0  0
   16.8146   42.6373   64.9082 H   0  0  0  0  0  0
   21.2422   43.0365   68.0838 H   0  0  0  0  0  0
   21.8460   44.6462   67.7256 H   0  0  0  0  0  0
   21.1774   42.6687   65.7883 H   0  0  0  0  0  0
  1  2  1  0  0  0
  1 35  1  0  0  0
  1 36  1  0  0  0
  1 37  1  0  0  0
  2  3  1  0  0  0
  2 31  1  0  0  0
  3  4  1  0  0  0
  3 30  1  0  0  0
  3 38  1  0  0  0
  4  5  1  0  0  0
  4 39  1  0  0  0
  4 40  1  0  0  0
  5  6  1  0  0  0
  5 41  1  0  0  0
  5 42  1  0  0  0
  6  7  1  0  0  0
  6 30  1  0  0  0
  7  8  1  0  0  0
  7 43  1  0  0  0
  7 44  1  0  0  0
  8  9  2  0  0  0
  8 29  1  0  0  0
  9 10  1  0  0  0
  9 45  1  0  0  0
 10 11  2  0  0  0
 11 12  1  0  0  0
 11 28  1  0  0  0
 12 13  2  0  0  0
 12 46  1  0  0  0
 13 14  1  0  0  0
 13 26  1  0  0  0
 14 15  1  0  0  0
 15 16  2  0  0  0
 15 20  1  0  0  0
 16 17  1  0  0  0
 16 47  1  0  0  0
 17 18  2  0  0  0
 17 48  1  0  0  0
 18 19  1  0  0  0
 18 21  1  0  0  0
 19 20  2  0  0  0
 19 49  1  0  0  0
 21 25  2  0  0  0
 21 22  1  0  0  0
 22 23  2  0  0  0
 22 50  1  0  0  0
 23 24  1  0  0  0
 23 51  1  0  0  0
 24 25  1  0  0  0
 24 52  1  0  0  0
 26 27  2  0  0  0
 26 53  1  0  0  0
 27 28  1  0  0  0
 27 54  1  0  0  0
 28 29  2  0  0  0
 29 55  1  0  0  0
 30 56  1  0  0  0
 30 57  1  0  0  0
 31 32  2  0  0  0
 31 33  1  0  0  0
 33 34  1  0  0  0
 33 58  1  0  0  0
 33 59  1  0  0  0
 34 60  1  0  0  0
M  END
> <s_m_entry_id>
6892

> <s_m_entry_name>
dock_pv.322

> <s_m_Source_Path>
/home/csk/Desktop/cluster/DUD-E-result/lkha4

> <s_m_Source_File>
dock_pv.maegz

> <i_m_Source_File_Index>
322

> <chembl_id>
CHEMBL4113365

> <chembl_pref_name>
None

> <i_lp_mmshare_version>
53161

> <i_f3d_flags>
0

> <r_lp_tautomer_probability>
0.5

> <s_lp_Force_Field>
OPLS_2005

> <r_lp_Energy>
54.46759

> <b_lp_Chiralities_Consistent>
1

> <s_lp_Variant>
CHEMBL4618_lig473-2

> <s_i_glide_gridfile>
glide-grid_3chp

> <i_i_glide_lignum>
562

> <i_i_glide_rotatable_bonds>
9

> <r_i_docking_score>
-8.79347476509723

> <r_i_glide_ligand_efficiency>
-0.258631610738154

> <r_i_glide_ligand_efficiency_sa>
-0.837866017345855

> <r_i_glide_ligand_efficiency_ln>
-1.94272522422259

> <r_i_glide_gscore>
-8.79347476509723

> <r_i_glide_lipo>
-5.33843108116043

> <r_i_glide_hbond>
-0.16

> <r_i_glide_metal>
0

> <r_i_glide_rewards>
-1.16861848935972

> <r_i_glide_evdw>
-38.8897323608398

> <r_i_glide_ecoul>
-6.01302576065063

> <r_i_glide_erotb>
0.765371470902741

> <r_i_glide_esite>
-0.0453561833402389

> <r_i_glide_emodel>
-38.5309898228186

> <r_i_glide_energy>
-44.9027581214905

> <r_i_glide_einternal>
16.2422561645508

> <i_i_glide_confnum>
17

> <i_i_glide_posenum>
88

> <r_i_glide_eff_state_penalty>
0

> <s_user_duplicate_titles>
CHEMBL4618_lig473,CHEMBL4618_lig473

> <s_m_subgroup_title>
dock_pv

> <s_m_subgroupid>
dock_pv

> <b_m_subgroup_collapsed>
1

$$$$
CHEMBL4618_lig295
                    3D
 Schrodinger Suite 2021-1.
 47 50  0  0  1  0            999 V2000
    9.7429   34.9505   73.0703 C   0  0  0  0  0  0
   10.2808   36.0943   73.6463 C   0  0  0  0  0  0
   10.0597   37.3496   73.0844 C   0  0  0  0  0  0
    8.9310   35.0174   71.9399 C   0  0  0  0  0  0
    8.6748   36.2792   71.3860 C   0  0  0  0  0  0
    9.2347   37.4538   71.9534 C   0  0  0  0  0  0
    8.9007   38.6155   71.3264 N   0  0  0  0  0  0
    8.1020   38.3803   70.3256 C   0  0  0  0  0  0
    7.7211   36.7259   69.9761 S   0  0  0  0  0  0
    7.4892   39.3172   69.5401 O   0  0  0  0  0  0
    8.2575   39.9958   68.6383 C   0  0  0  0  0  0
    8.9209   39.3007   67.6311 C   0  0  0  0  0  0
    9.7208   39.9931   66.7400 C   0  0  0  0  0  0
    9.8739   41.3693   66.8412 C   0  0  0  0  0  0
    9.1563   42.0759   67.8187 C   0  0  0  0  0  0
    8.3395   41.3856   68.7127 C   0  0  0  0  0  0
   10.7497   41.9277   65.9401 O   0  0  0  0  0  0
   11.1795   43.2629   66.1333 C   0  0  0  0  0  0
   12.2564   43.5806   65.0911 C   0  0  0  0  0  0
   13.5347   42.8940   65.3583 N   0  0  0  0  0  0
   14.6003   43.8866   65.5383 C   0  0  0  0  0  0
   16.0423   43.3452   65.5777 C   0  0  0  0  0  0
   16.3308   42.2974   64.4909 C   0  0  0  0  0  0
   15.2015   41.2622   64.4327 C   0  0  0  0  0  0
   13.8145   41.9103   64.3033 C   0  0  0  0  0  0
    9.9487   33.9898   73.5212 H   0  0  0  0  0  0
   10.8964   36.0032   74.5307 H   0  0  0  0  0  0
   10.5015   38.2160   73.5396 H   0  0  0  0  0  0
    8.5163   34.1176   71.5112 H   0  0  0  0  0  0
    8.8348   38.2273   67.5479 H   0  0  0  0  0  0
   10.2503   39.4506   65.9702 H   0  0  0  0  0  0
    9.2253   43.1491   67.9008 H   0  0  0  0  0  0
    7.7867   41.9186   69.4732 H   0  0  0  0  0  0
   11.5699   43.4140   67.1416 H   0  0  0  0  0  0
   10.3320   43.9348   65.9917 H   0  0  0  0  0  0
   12.3805   44.6591   65.0562 H   0  0  0  0  0  0
   11.8680   43.3285   64.1030 H   0  0  0  0  0  0
   14.3948   44.4259   66.4591 H   0  0  0  0  0  0
   14.5212   44.6159   64.7401 H   0  0  0  0  0  0
   16.2711   43.0087   66.5858 H   0  0  0  0  0  0
   16.7231   44.1847   65.4326 H   0  0  0  0  0  0
   16.4105   42.7903   63.5205 H   0  0  0  0  0  0
   17.2977   41.8232   64.6637 H   0  0  0  0  0  0
   15.3394   40.6144   63.5672 H   0  0  0  0  0  0
   15.1993   40.6163   65.3065 H   0  0  0  0  0  0
   13.0406   41.1433   64.3403 H   0  0  0  0  0  0
   13.7390   42.3900   63.3243 H   0  0  0  0  0  0
  1  2  2  0  0  0
  1  4  1  0  0  0
  1 26  1  0  0  0
  2  3  1  0  0  0
  2 27  1  0  0  0
  3  6  2  0  0  0
  3 28  1  0  0  0
  4  5  2  0  0  0
  4 29  1  0  0  0
  5  9  1  0  0  0
  5  6  1  0  0  0
  6  7  1  0  0  0
  7  8  2  0  0  0
  8  9  1  0  0  0
  8 10  1  0  0  0
 10 11  1  0  0  0
 11 12  2  0  0  0
 11 16  1  0  0  0
 12 13  1  0  0  0
 12 30  1  0  0  0
 13 14  2  0  0  0
 13 31  1  0  0  0
 14 15  1  0  0  0
 14 17  1  0  0  0
 15 16  2  0  0  0
 15 32  1  0  0  0
 16 33  1  0  0  0
 17 18  1  0  0  0
 18 19  1  0  0  0
 18 34  1  0  0  0
 18 35  1  0  0  0
 19 20  1  0  0  0
 19 36  1  0  0  0
 19 37  1  0  0  0
 20 21  1  0  0  0
 20 25  1  0  0  0
 21 22  1  0  0  0
 21 38  1  0  0  0
 21 39  1  0  0  0
 22 23  1  0  0  0
 22 40  1  0  0  0
 22 41  1  0  0  0
 23 24  1  0  0  0
 23 42  1  0  0  0
 23 43  1  0  0  0
 24 25  1  0  0  0
 24 44  1  0  0  0
 24 45  1  0  0  0
 25 46  1  0  0  0
 25 47  1  0  0  0
M  END
> <s_m_entry_id>
6893

> <s_m_entry_name>
dock_pv.323

> <s_m_Source_Path>
/home/csk/Desktop/cluster/DUD-E-result/lkha4

> <s_m_Source_File>
dock_pv.maegz

> <i_m_Source_File_Index>
323

> <chembl_id>
CHEMBL519128

> <chembl_pref_name>
None

> <i_lp_mmshare_version>
53161

> <i_f3d_flags>
0

> <r_lp_tautomer_probability>
1

> <s_lp_Force_Field>
OPLS_2005

> <r_lp_Energy>
31.767269

> <b_lp_Chiralities_Consistent>
1

> <s_lp_Variant>
CHEMBL4618_lig295-1

> <s_i_glide_gridfile>
glide-grid_3chp

> <i_i_glide_lignum>
333

> <i_i_glide_rotatable_bonds>
6

> <r_i_docking_score>
-8.78929815945224

> <r_i_glide_ligand_efficiency>
-0.35157192637809

> <r_i_glide_ligand_efficiency_sa>
-1.0280025478842

> <r_i_glide_ligand_efficiency_ln>
-2.08332705780143

> <r_i_glide_gscore>
-8.78929815945224

> <r_i_glide_lipo>
-5.1775818922828

> <r_i_glide_hbond>
0

> <r_i_glide_metal>
0

> <r_i_glide_rewards>
-1.70239908829236

> <r_i_glide_evdw>
-47.6851577758789

> <r_i_glide_ecoul>
-1.9032496213913

> <r_i_glide_erotb>
0.760428153125564

> <r_i_glide_esite>
0

> <r_i_glide_emodel>
-69.6142672549463

> <r_i_glide_energy>
-49.5884073972702

> <r_i_glide_einternal>
13.6798000335693

> <i_i_glide_confnum>
20

> <i_i_glide_posenum>
105

> <r_i_glide_eff_state_penalty>
0

> <s_user_duplicate_titles>
CHEMBL4618_lig295,467518

> <s_m_subgroup_title>
dock_pv

> <s_m_subgroupid>
dock_pv

> <b_m_subgroup_collapsed>
1

$$$$
CHEMBL4618_lig69
                    3D
 Schrodinger Suite 2021-1.
 46 48  0  0  1  0            999 V2000
    7.7218   38.4417   69.3723 S   0  0  2  0  0  0
    8.3602   39.9071   68.4862 C   0  0  0  0  0  0
   13.3780   42.5933   65.7494 N   0  0  0  0  0  0
    8.8802   38.5325   70.8335 C   0  0  0  0  0  0
    8.1208   37.2437   68.5077 O   0  0  0  0  0  0
    7.8500   41.1758   68.7532 C   0  0  0  0  0  0
    9.3188   39.7304   67.4909 C   0  0  0  0  0  0
    9.2739   42.1050   67.0246 C   0  0  0  0  0  0
    9.0611   37.2448   71.6506 C   0  0  0  0  0  0
    8.3031   42.2670   68.0151 C   0  0  0  0  0  0
    9.7730   40.8228   66.7627 C   0  0  0  0  0  0
    9.6867   43.2402   66.3510 O   0  0  0  0  0  0
   12.1499   42.9544   66.4600 C   0  0  0  0  0  0
   10.8970   43.2331   65.5894 C   0  0  0  0  0  0
   13.7443   43.3951   64.5908 C   0  0  0  0  0  0
   13.4258   41.2234   65.2687 C   0  0  0  0  0  0
    8.5594   36.0011   71.2475 C   0  0  0  0  0  0
    9.8365   37.3004   72.8131 C   0  0  0  0  0  0
   14.6769   41.1694   64.3974 C   0  0  0  0  0  0
   14.8934   42.6159   63.9509 C   0  0  0  0  0  0
    8.9210   34.8475   71.9388 C   0  0  0  0  0  0
   10.1401   36.1575   73.5405 C   0  0  0  0  0  0
    9.7211   34.9258   73.0733 C   0  0  0  0  0  0
    9.8606   38.8338   70.4692 H   0  0  0  0  0  0
    8.5212   39.3271   71.4895 H   0  0  0  0  0  0
    7.1169   41.3207   69.5355 H   0  0  0  0  0  0
    9.7187   38.7473   67.2761 H   0  0  0  0  0  0
    7.9045   43.2519   68.2180 H   0  0  0  0  0  0
   10.5103   40.6511   65.9923 H   0  0  0  0  0  0
   11.9415   42.1639   67.1748 H   0  0  0  0  0  0
   12.3722   43.8159   67.0794 H   0  0  0  0  0  0
   10.9968   44.2231   65.1466 H   0  0  0  0  0  0
   10.8040   42.5570   64.7430 H   0  0  0  0  0  0
   14.0400   44.3905   64.9241 H   0  0  0  0  0  0
   12.9158   43.5582   63.9006 H   0  0  0  0  0  0
   12.5212   40.9155   64.7488 H   0  0  0  0  0  0
   13.4869   40.5606   66.1316 H   0  0  0  0  0  0
    7.9419   35.8815   70.3712 H   0  0  0  0  0  0
   10.2559   38.2162   73.1689 H   0  0  0  0  0  0
   14.5375   40.4898   63.5539 H   0  0  0  0  0  0
   15.5196   40.8229   64.9873 H   0  0  0  0  0  0
   15.8576   43.0027   64.2884 H   0  0  0  0  0  0
   14.8715   42.7018   62.8641 H   0  0  0  0  0  0
    8.5737   33.8900   71.5796 H   0  0  0  0  0  0
   10.7463   36.2221   74.4340 H   0  0  0  0  0  0
    9.9905   34.0249   73.6053 H   0  0  0  0  0  0
  1  2  1  0  0  0
  1  4  1  0  0  0
  1  5  2  0  0  0
  2  6  2  0  0  0
  2  7  1  0  0  0
  3 13  1  0  0  0
  3 15  1  0  0  0
  3 16  1  0  0  0
  4  9  1  0  0  0
  4 24  1  0  0  0
  4 25  1  0  0  0
  6 10  1  0  0  0
  6 26  1  0  0  0
  7 11  2  0  0  0
  7 27  1  0  0  0
  8 11  1  0  0  0
  8 12  1  0  0  0
  8 10  2  0  0  0
  9 17  2  0  0  0
  9 18  1  0  0  0
 10 28  1  0  0  0
 11 29  1  0  0  0
 12 14  1  0  0  0
 13 14  1  0  0  0
 13 30  1  0  0  0
 13 31  1  0  0  0
 14 32  1  0  0  0
 14 33  1  0  0  0
 15 20  1  0  0  0
 15 34  1  0  0  0
 15 35  1  0  0  0
 16 19  1  0  0  0
 16 36  1  0  0  0
 16 37  1  0  0  0
 17 21  1  0  0  0
 17 38  1  0  0  0
 18 22  2  0  0  0
 18 39  1  0  0  0
 19 20  1  0  0  0
 19 40  1  0  0  0
 19 41  1  0  0  0
 20 42  1  0  0  0
 20 43  1  0  0  0
 21 23  2  0  0  0
 21 44  1  0  0  0
 22 23  1  0  0  0
 22 45  1  0  0  0
 23 46  1  0  0  0
M  END
> <s_m_entry_id>
6894

> <s_m_entry_name>
dock_pv.324

> <s_m_Source_Path>
/home/csk/Desktop/cluster/DUD-E-result/lkha4

> <s_m_Source_File>
dock_pv.maegz

> <i_m_Source_File_Index>
324

> <chembl_id>
CHEMBL162900

> <chembl_pref_name>
None

> <i_lp_mmshare_version>
53161

> <i_f3d_flags>
0

> <r_lp_tautomer_probability>
1

> <s_lp_Force_Field>
OPLS_2005

> <r_lp_Energy>
33.734076

> <b_lp_Chiralities_Consistent>
1

> <s_lp_Variant>
CHEMBL4618_lig69-2

> <s_i_glide_gridfile>
glide-grid_3chp

> <i_i_glide_lignum>
88

> <i_i_glide_rotatable_bonds>
7

> <r_i_docking_score>
-8.78766961140968

> <r_i_glide_ligand_efficiency>
-0.382072591800421

> <r_i_glide_ligand_efficiency_sa>
-1.08656362659189

> <r_i_glide_ligand_efficiency_ln>
-2.12493819422144

> <r_i_glide_gscore>
-8.78766961140968

> <r_i_glide_lipo>
-4.95809738563282

> <r_i_glide_hbond>
0

> <r_i_glide_metal>
0

> <r_i_glide_rewards>
-2.048875449203

> <r_i_glide_evdw>
-49.8546981811523

> <r_i_glide_ecoul>
-2.17946481704712

> <r_i_glide_erotb>
1.03895785504082

> <r_i_glide_esite>
0

> <r_i_glide_emodel>
-67.5949199538917

> <r_i_glide_energy>
-52.0341629981995

> <r_i_glide_einternal>
21.7872123718262

> <i_i_glide_confnum>
65

> <i_i_glide_posenum>
188

> <r_i_glide_eff_state_penalty>
0

> <s_user_duplicate_titles>
CHEMBL4618_lig69

> <s_m_subgroup_title>
dock_pv

> <s_m_subgroupid>
dock_pv

> <b_m_subgroup_collapsed>
1

$$$$
CHEMBL4618_lig214
                    3D
 Schrodinger Suite 2021-1.
 55 58  0  0  1  0            999 V2000
    8.7244   40.9320   67.6928 C   0  0  0  0  0  0
    9.7204   40.1811   67.0667 C   0  0  0  0  0  0
   10.7307   40.8044   66.3508 C   0  0  0  0  0  0
   10.7951   42.1993   66.2727 C   0  0  0  0  0  0
    9.7436   42.9458   66.8141 C   0  0  0  0  0  0
    8.7159   42.3164   67.5223 C   0  0  0  0  0  0
   11.8719   42.8896   65.6676 N   0  0  0  0  0  0
   13.0988   42.4026   65.3543 C   0  0  0  0  0  0
   13.4667   41.2467   65.5398 O   0  0  0  0  0  0
   14.1129   43.3687   64.7417 C   0  0  0  0  0  0
   15.3939   43.5222   65.6064 C   0  0  0  0  0  0
   16.7253   43.1162   64.9274 C   0  0  1  0  0  0
   17.9317   43.9848   65.3736 C   0  0  0  0  0  0
   17.0781   41.7233   65.1395 N   0  0  0  0  0  0
   18.2808   43.9120   66.8101 N   0  0  0  0  0  0
    7.7240   40.3399   68.4378 O   0  0  0  0  0  0
    7.9834   39.1810   69.1384 C   0  0  0  0  0  0
    8.5210   39.2558   70.4171 C   0  0  0  0  0  0
    8.7359   38.1158   71.1823 C   0  0  0  0  0  0
    8.4243   36.8750   70.6408 C   0  0  0  0  0  0
    7.9186   36.7855   69.3476 C   0  0  0  0  0  0
    7.6865   37.9321   68.5924 C   0  0  0  0  0  0
   19.1763   43.0164   67.3000 C   0  0  0  0  0  0
   17.7202   44.7067   67.7618 C   0  0  0  0  0  0
   18.2766   44.2206   69.0503 C   0  0  0  0  0  0
   19.1617   43.2142   68.7706 C   0  0  0  0  0  0
   19.8530   42.5558   69.7890 C   0  0  0  0  0  0
   19.6158   42.9369   71.1129 C   0  0  0  0  0  0
   18.7016   43.9594   71.4002 C   0  0  0  0  0  0
   18.0264   44.6155   70.3651 C   0  0  0  0  0  0
   16.9223   45.6312   67.5909 O   0  0  0  0  0  0
   19.8368   42.2087   66.6551 O   0  0  0  0  0  0
    9.7203   39.1029   67.1292 H   0  0  0  0  0  0
   11.4605   40.1661   65.8849 H   0  0  0  0  0  0
    9.7223   44.0202   66.7226 H   0  0  0  0  0  0
    7.9205   42.9059   67.9599 H   0  0  0  0  0  0
   11.7346   43.8798   65.5426 H   0  0  0  0  0  0
   13.6587   44.3450   64.5685 H   0  0  0  0  0  0
   14.3612   42.9944   63.7471 H   0  0  0  0  0  0
   15.3035   43.0471   66.5854 H   0  0  0  0  0  0
   15.4559   44.5804   65.8380 H   0  0  0  0  0  0
   16.6252   43.2414   63.8506 H   0  0  0  0  0  0
   17.6975   45.0170   65.1399 H   0  0  0  0  0  0
   18.7955   43.7463   64.7424 H   0  0  0  0  0  0
   17.8761   41.6701   64.5070 H   0  0  0  0  0  0
   17.5357   41.7243   66.0450 H   0  0  0  0  0  0
    8.7357   40.2160   70.8342 H   0  0  0  0  0  0
    9.1303   38.1954   72.1846 H   0  0  0  0  0  0
    8.5913   35.9746   71.2157 H   0  0  0  0  0  0
    7.7212   35.8160   68.9262 H   0  0  0  0  0  0
    7.2810   37.8576   67.5940 H   0  0  0  0  0  0
   20.5487   41.7558   69.5709 H   0  0  0  0  0  0
   20.1325   42.4309   71.9155 H   0  0  0  0  0  0
   18.5142   44.2373   72.4275 H   0  0  0  0  0  0
   17.3175   45.3987   70.5950 H   0  0  0  0  0  0
  1 16  1  0  0  0
  1  6  1  0  0  0
  1  2  2  0  0  0
  2  3  1  0  0  0
  2 33  1  0  0  0
  3  4  2  0  0  0
  3 34  1  0  0  0
  4  5  1  0  0  0
  4  7  1  0  0  0
  5  6  2  0  0  0
  5 35  1  0  0  0
  6 36  1  0  0  0
  7  8  1  0  0  0
  7 37  1  0  0  0
  8  9  2  0  0  0
  8 10  1  0  0  0
 10 11  1  0  0  0
 10 38  1  0  0  0
 10 39  1  0  0  0
 11 12  1  0  0  0
 11 40  1  0  0  0
 11 41  1  0  0  0
 12 13  1  0  0  0
 12 14  1  0  0  0
 12 42  1  0  0  0
 13 15  1  0  0  0
 13 43  1  0  0  0
 13 44  1  0  0  0
 14 45  1  0  0  0
 14 46  1  0  0  0
 15 23  1  0  0  0
 15 24  1  0  0  0
 16 17  1  0  0  0
 17 18  2  0  0  0
 17 22  1  0  0  0
 18 19  1  0  0  0
 18 47  1  0  0  0
 19 20  2  0  0  0
 19 48  1  0  0  0
 20 21  1  0  0  0
 20 49  1  0  0  0
 21 22  2  0  0  0
 21 50  1  0  0  0
 22 51  1  0  0  0
 23 26  1  0  0  0
 23 32  2  0  0  0
 24 25  1  0  0  0
 24 31  2  0  0  0
 25 26  2  0  0  0
 25 30  1  0  0  0
 26 27  1  0  0  0
 27 28  2  0  0  0
 27 52  1  0  0  0
 28 29  1  0  0  0
 28 53  1  0  0  0
 29 30  2  0  0  0
 29 54  1  0  0  0
 30 55  1  0  0  0
M  END
> <s_m_entry_id>
6895

> <s_m_entry_name>
dock_pv.325

> <s_m_Source_Path>
/home/csk/Desktop/cluster/DUD-E-result/lkha4

> <s_m_Source_File>
dock_pv.maegz

> <i_m_Source_File_Index>
325

> <chembl_id>
CHEMBL518754

> <chembl_pref_name>
None

> <i_lp_mmshare_version>
53161

> <i_f3d_flags>
0

> <r_lp_tautomer_probability>
1

> <s_lp_Force_Field>
OPLS_2005

> <r_lp_Energy>
48.163663

> <b_lp_Chiralities_Consistent>
1

> <s_lp_Variant>
CHEMBL4618_lig214-1

> <s_i_glide_gridfile>
glide-grid_3chp

> <i_i_glide_lignum>
242

> <i_i_glide_rotatable_bonds>
9

> <r_i_docking_score>
-8.78269100468691

> <r_i_glide_ligand_efficiency>
-0.274459093896466

> <r_i_glide_ligand_efficiency_sa>
-0.871353307740351

> <r_i_glide_ligand_efficiency_ln>
-1.96668392306422

> <r_i_glide_gscore>
-8.78269100468691

> <r_i_glide_lipo>
-3.89890104652315

> <r_i_glide_hbond>
-0.573719082557768

> <r_i_glide_metal>
0

> <r_i_glide_rewards>
-0.980015010678887

> <r_i_glide_evdw>
-55.024242401123

> <r_i_glide_ecoul>
-9.60534191131592

> <r_i_glide_erotb>
0.861957541826429

> <r_i_glide_esite>
0

> <r_i_glide_emodel>
-93.0385772313519

> <r_i_glide_energy>
-64.629584312439

> <r_i_glide_einternal>
8.9173059463501

> <i_i_glide_confnum>
19

> <i_i_glide_posenum>
353

> <r_i_glide_eff_state_penalty>
0

> <s_user_duplicate_titles>
CHEMBL4618_lig214,507063

> <s_m_subgroup_title>
dock_pv

> <s_m_subgroupid>
dock_pv

> <b_m_subgroup_collapsed>
1

$$$$
CHEMBL4618_lig68
                    3D
 Schrodinger Suite 2021-1.
 41 43  0  0  1  0            999 V2000
    8.5535   36.7197   71.0105 N   0  0  0  0  0  0
   11.7431   42.8524   65.6139 C   0  0  0  0  0  0
   13.8524   42.0193   65.3247 O   0  0  0  0  0  0
   12.6695   41.8724   65.9720 C   0  0  0  0  0  0
   12.4725   43.6741   64.7437 C   0  0  0  0  0  0
   13.7240   43.1237   64.5597 C   0  0  0  0  0  0
   10.2838   43.0331   66.0308 C   0  0  0  0  0  0
    9.6526   41.9833   66.9472 C   0  0  0  0  0  0
    8.3674   40.0624   68.5390 C   0  0  0  0  0  0
    9.8781   40.6238   66.7400 C   0  0  0  0  0  0
    8.7576   42.3761   67.9457 C   0  0  0  0  0  0
    8.1290   41.4212   68.7411 C   0  0  0  0  0  0
    9.2377   39.6718   67.5157 C   0  0  0  0  0  0
    7.7204   39.1848   69.3824 O   0  0  0  0  0  0
    7.3222   36.9580   70.2590 C   0  0  0  0  0  0
    7.5855   37.8127   69.0134 C   0  0  0  0  0  0
    8.9073   37.7801   71.9437 C   0  0  0  0  0  0
    8.5160   35.5154   71.8187 C   0  0  0  0  0  0
    9.7199   35.6339   72.7441 C   0  0  0  0  0  0
    9.8884   37.1441   72.9355 C   0  0  0  0  0  0
   12.6192   41.0181   66.6277 H   0  0  0  0  0  0
   12.1212   44.5784   64.2771 H   0  0  0  0  0  0
   14.5764   43.4063   63.9598 H   0  0  0  0  0  0
    9.6601   43.0522   65.1401 H   0  0  0  0  0  0
   10.1459   44.0173   66.4674 H   0  0  0  0  0  0
   10.5211   40.2847   65.9412 H   0  0  0  0  0  0
    8.5272   43.4178   68.1018 H   0  0  0  0  0  0
    7.4423   41.7360   69.5136 H   0  0  0  0  0  0
    9.4523   38.6404   67.2948 H   0  0  0  0  0  0
    6.9233   35.9977   69.9401 H   0  0  0  0  0  0
    6.5573   37.4184   70.8878 H   0  0  0  0  0  0
    8.4543   37.3859   68.5161 H   0  0  0  0  0  0
    6.7496   37.7321   68.3179 H   0  0  0  0  0  0
    8.0340   38.1946   72.4489 H   0  0  0  0  0  0
    9.3492   38.6134   71.3957 H   0  0  0  0  0  0
    8.5738   34.6460   71.1629 H   0  0  0  0  0  0
    7.5705   35.4161   72.3425 H   0  0  0  0  0  0
   10.5958   35.1741   72.2877 H   0  0  0  0  0  0
    9.5455   35.1186   73.6892 H   0  0  0  0  0  0
    9.6257   37.4156   73.9545 H   0  0  0  0  0  0
   10.9128   37.4689   72.7537 H   0  0  0  0  0  0
  1 15  1  0  0  0
  1 17  1  0  0  0
  1 18  1  0  0  0
  2  7  1  0  0  0
  2  4  2  0  0  0
  2  5  1  0  0  0
  3  4  1  0  0  0
  3  6  1  0  0  0
  4 21  1  0  0  0
  5  6  2  0  0  0
  5 22  1  0  0  0
  6 23  1  0  0  0
  7  8  1  0  0  0
  7 24  1  0  0  0
  7 25  1  0  0  0
  8 10  1  0  0  0
  8 11  2  0  0  0
  9 14  1  0  0  0
  9 12  2  0  0  0
  9 13  1  0  0  0
 10 13  2  0  0  0
 10 26  1  0  0  0
 11 12  1  0  0  0
 11 27  1  0  0  0
 12 28  1  0  0  0
 13 29  1  0  0  0
 14 16  1  0  0  0
 15 16  1  0  0  0
 15 30  1  0  0  0
 15 31  1  0  0  0
 16 32  1  0  0  0
 16 33  1  0  0  0
 17 20  1  0  0  0
 17 34  1  0  0  0
 17 35  1  0  0  0
 18 19  1  0  0  0
 18 36  1  0  0  0
 18 37  1  0  0  0
 19 20  1  0  0  0
 19 38  1  0  0  0
 19 39  1  0  0  0
 20 40  1  0  0  0
 20 41  1  0  0  0
M  END
> <s_m_entry_id>
6896

> <s_m_entry_name>
dock_pv.326

> <s_m_Source_Path>
/home/csk/Desktop/cluster/DUD-E-result/lkha4

> <s_m_Source_File>
dock_pv.maegz

> <i_m_Source_File_Index>
326

> <chembl_id>
CHEMBL162607

> <chembl_pref_name>
None

> <i_lp_mmshare_version>
53161

> <i_f3d_flags>
0

> <r_lp_tautomer_probability>
1

> <s_lp_Force_Field>
OPLS_2005

> <r_lp_Energy>
31.919098

> <b_lp_Chiralities_Consistent>
1

> <s_lp_Variant>
CHEMBL4618_lig68-1

> <s_i_glide_gridfile>
glide-grid_3chp

> <i_i_glide_lignum>
86

> <i_i_glide_rotatable_bonds>
6

> <r_i_docking_score>
-8.7794748003315

> <r_i_glide_ligand_efficiency>
-0.438973740016575

> <r_i_glide_ligand_efficiency_sa>
-1.19155805193368

> <r_i_glide_ligand_efficiency_ln>
-2.19721297606424

> <r_i_glide_gscore>
-8.7794748003315

> <r_i_glide_lipo>
-5.37414909634504

> <r_i_glide_hbond>
0

> <r_i_glide_metal>
0

> <r_i_glide_rewards>
-2.26078156186533

> <r_i_glide_evdw>
-41.9793167114258

> <r_i_glide_ecoul>
-1.74157452583313

> <r_i_glide_erotb>
1.21565787232513

> <r_i_glide_esite>
0

> <r_i_glide_emodel>
-64.1126359365826

> <r_i_glide_energy>
-43.7208912372589

> <r_i_glide_einternal>
5.20562362670898

> <i_i_glide_confnum>
164

> <i_i_glide_posenum>
260

> <r_i_glide_eff_state_penalty>
0

> <s_user_duplicate_titles>
CHEMBL4618_lig68,270725

> <s_m_subgroup_title>
dock_pv

> <s_m_subgroupid>
dock_pv

> <b_m_subgroup_collapsed>
1

$$$$
CHEMBL4618_lig217
                    3D
 Schrodinger Suite 2021-1.
 44 46  0  0  1  0            999 V2000
   11.1531   42.3733   65.7955 C   0  0  0  0  0  0
   11.5715   43.5895   65.2814 C   0  0  0  0  0  0
   12.9145   43.8191   65.0090 C   0  0  0  0  0  0
   13.8699   42.8398   65.2572 C   0  0  0  0  0  0
   13.4422   41.5741   65.6738 C   0  0  0  0  0  0
   12.0959   41.3565   65.9622 C   0  0  0  0  0  0
   15.2042   43.2736   65.1398 N   0  0  0  0  0  0
   16.3800   42.6175   65.1307 C   0  0  0  0  0  0
   16.5203   41.4004   65.1394 O   0  0  0  0  0  0
   17.6326   43.5038   65.1017 C   0  0  0  0  0  0
   17.9426   44.1733   66.4621 C   0  0  0  0  0  0
   18.5364   43.2034   67.5106 C   0  0  1  0  0  0
   20.0527   43.0781   67.3854 C   0  0  0  0  0  0
   18.1702   43.6690   68.8390 N   0  0  0  0  0  0
    9.7985   42.2165   65.9970 O   0  0  0  0  0  0
    9.3060   41.4387   67.0186 C   0  0  0  0  0  0
    8.6932   42.0766   68.0933 C   0  0  0  0  0  0
    8.1210   41.3215   69.1107 C   0  0  0  0  0  0
    8.1579   39.9300   69.0527 C   0  0  0  0  0  0
    8.7552   39.2840   67.9743 C   0  0  0  0  0  0
    9.3195   40.0408   66.9515 C   0  0  0  0  0  0
   20.9464   43.9252   67.8544 N   0  0  0  0  0  0
   22.2107   43.4206   67.5420 N   0  0  0  0  0  0
   22.0246   42.3095   66.8746 C   0  0  0  0  0  0
   20.6876   42.0470   66.7405 N   0  0  0  0  0  0
   10.8476   44.3737   65.1380 H   0  0  0  0  0  0
   13.2105   44.7969   64.6566 H   0  0  0  0  0  0
   14.1244   40.7597   65.8450 H   0  0  0  0  0  0
   11.7792   40.3913   66.3151 H   0  0  0  0  0  0
   15.2835   44.2512   64.8986 H   0  0  0  0  0  0
   17.4747   44.2652   64.3412 H   0  0  0  0  0  0
   18.4929   42.9305   64.7485 H   0  0  0  0  0  0
   17.0273   44.6373   66.8386 H   0  0  0  0  0  0
   18.6326   45.0039   66.3028 H   0  0  0  0  0  0
   18.0725   42.2221   67.4086 H   0  0  0  0  0  0
   18.4402   42.9912   69.5393 H   0  0  0  0  0  0
   18.6441   44.5350   69.0501 H   0  0  0  0  0  0
    8.6457   43.1560   68.1281 H   0  0  0  0  0  0
    7.6421   41.8159   69.9401 H   0  0  0  0  0  0
    7.7092   39.3507   69.8477 H   0  0  0  0  0  0
    8.7710   38.2055   67.9262 H   0  0  0  0  0  0
    9.7495   39.5403   66.0962 H   0  0  0  0  0  0
   22.7710   41.6396   66.4638 H   0  0  0  0  0  0
   20.2681   41.2631   66.2600 H   0  0  0  0  0  0
  1  6  1  0  0  0
  1  2  2  0  0  0
  1 15  1  0  0  0
  2  3  1  0  0  0
  2 26  1  0  0  0
  3  4  2  0  0  0
  3 27  1  0  0  0
  4  7  1  0  0  0
  4  5  1  0  0  0
  5  6  2  0  0  0
  5 28  1  0  0  0
  6 29  1  0  0  0
  7  8  1  0  0  0
  7 30  1  0  0  0
  8  9  2  0  0  0
  8 10  1  0  0  0
 10 11  1  0  0  0
 10 31  1  0  0  0
 10 32  1  0  0  0
 11 12  1  0  0  0
 11 33  1  0  0  0
 11 34  1  0  0  0
 12 13  1  0  0  0
 12 14  1  0  0  0
 12 35  1  0  0  0
 13 22  2  0  0  0
 13 25  1  0  0  0
 14 36  1  0  0  0
 14 37  1  0  0  0
 15 16  1  0  0  0
 16 17  2  0  0  0
 16 21  1  0  0  0
 17 18  1  0  0  0
 17 38  1  0  0  0
 18 19  2  0  0  0
 18 39  1  0  0  0
 19 20  1  0  0  0
 19 40  1  0  0  0
 20 21  2  0  0  0
 20 41  1  0  0  0
 21 42  1  0  0  0
 22 23  1  0  0  0
 23 24  2  0  0  0
 24 25  1  0  0  0
 24 43  1  0  0  0
 25 44  1  0  0  0
M  END
> <s_m_entry_id>
6897

> <s_m_entry_name>
dock_pv.327

> <s_m_Source_Path>
/home/csk/Desktop/cluster/DUD-E-result/lkha4

> <s_m_Source_File>
dock_pv.maegz

> <i_m_Source_File_Index>
327

> <chembl_id>
CHEMBL479217

> <chembl_pref_name>
None

> <i_lp_mmshare_version>
53161

> <i_f3d_flags>
0

> <r_lp_tautomer_probability>
0.0517155146543963

> <s_lp_Force_Field>
OPLS_2005

> <r_lp_Energy>
21.713311

> <b_lp_Chiralities_Consistent>
1

> <s_lp_Variant>
CHEMBL4618_lig217-2

> <s_i_glide_gridfile>
glide-grid_3chp

> <i_i_glide_lignum>
246

> <i_i_glide_rotatable_bonds>
8

> <r_i_docking_score>
-8.77917510898087

> <r_i_glide_ligand_efficiency>
-0.351167004359235

> <r_i_glide_ligand_efficiency_sa>
-1.02681854871974

> <r_i_glide_ligand_efficiency_ln>
-2.08092759147637

> <r_i_glide_gscore>
-8.77917510898087

> <r_i_glide_lipo>
-3.60510468762238

> <r_i_glide_hbond>
-0.488060825182102

> <r_i_glide_metal>
0

> <r_i_glide_rewards>
-1.48828371849537

> <r_i_glide_evdw>
-44.9087219238281

> <r_i_glide_ecoul>
-12.901083946228

> <r_i_glide_erotb>
1.16223925115735

> <r_i_glide_esite>
-0.179366440712762

> <r_i_glide_emodel>
-89.388080651847

> <r_i_glide_energy>
-57.8098058700562

> <r_i_glide_einternal>
8.85172843933105

> <i_i_glide_confnum>
35

> <i_i_glide_posenum>
378

> <r_i_glide_eff_state_penalty>
0

> <s_user_duplicate_titles>
CHEMBL4618_lig217,CHEMBL4618_lig217,507060

> <s_m_subgroup_title>
dock_pv

> <s_m_subgroupid>
dock_pv

> <b_m_subgroup_collapsed>
1

$$$$
CHEMBL4618_lig105
                    3D
 Schrodinger Suite 2021-1.
 40 42  0  0  1  0            999 V2000
   13.9020   41.8230   65.1670 N   0  0  0  0  0  0
   12.5239   43.8156   64.3473 S   0  0  0  0  0  0
   13.9271   42.8165   64.3298 C   0  0  0  0  0  0
   11.8028   42.7791   65.5547 C   0  0  0  0  0  0
    8.7553   36.6437   71.1394 N   0  0  0  0  0  0
   12.7794   41.8156   65.8577 C   0  0  0  0  0  0
   10.3738   43.0167   66.0454 C   0  0  0  0  0  0
    9.7356   41.9671   66.9580 C   0  0  0  0  0  0
    8.4605   40.0109   68.5273 C   0  0  0  0  0  0
    9.9674   40.6141   66.7396 C   0  0  0  0  0  0
    8.8293   42.3418   67.9549 C   0  0  0  0  0  0
    8.2074   41.3681   68.7400 C   0  0  0  0  0  0
    9.3207   39.6492   67.4878 C   0  0  0  0  0  0
    7.8435   39.0967   69.3628 O   0  0  0  0  0  0
    7.6036   36.8110   70.2517 C   0  0  0  0  0  0
    7.9309   37.7027   69.0483 C   0  0  0  0  0  0
    8.6793   35.4365   71.9390 C   0  0  0  0  0  0
    8.9448   37.7107   72.1080 C   0  0  0  0  0  0
    9.8978   37.1185   73.1540 C   0  0  0  0  0  0
    9.7619   35.6003   72.9997 C   0  0  0  0  0  0
   14.7443   43.0128   63.6480 H   0  0  0  0  0  0
   12.6581   41.0248   66.5839 H   0  0  0  0  0  0
    9.7130   43.0926   65.1825 H   0  0  0  0  0  0
   10.3019   43.9835   66.5278 H   0  0  0  0  0  0
   10.6150   40.2873   65.9396 H   0  0  0  0  0  0
    8.5957   43.3839   68.1202 H   0  0  0  0  0  0
    7.5223   41.6698   69.5200 H   0  0  0  0  0  0
    9.5277   38.6262   67.2250 H   0  0  0  0  0  0
    7.3209   35.8274   69.8726 H   0  0  0  0  0  0
    6.7423   37.2053   70.7915 H   0  0  0  0  0  0
    8.9205   37.4013   68.7153 H   0  0  0  0  0  0
    7.2357   37.4913   68.2336 H   0  0  0  0  0  0
    8.8465   34.5673   71.3006 H   0  0  0  0  0  0
    7.6796   35.3024   72.3401 H   0  0  0  0  0  0
    8.0040   38.0455   72.5445 H   0  0  0  0  0  0
    9.3564   38.5830   71.5992 H   0  0  0  0  0  0
    9.6076   37.4121   74.1578 H   0  0  0  0  0  0
   10.9204   37.4561   73.0015 H   0  0  0  0  0  0
   10.6937   35.1373   72.6744 H   0  0  0  0  0  0
    9.4729   35.1183   73.9337 H   0  0  0  0  0  0
  1  3  2  0  0  0
  1  6  1  0  0  0
  2  3  1  0  0  0
  2  4  1  0  0  0
  3 21  1  0  0  0
  4  6  2  0  0  0
  4  7  1  0  0  0
  5 15  1  0  0  0
  5 17  1  0  0  0
  5 18  1  0  0  0
  6 22  1  0  0  0
  7  8  1  0  0  0
  7 23  1  0  0  0
  7 24  1  0  0  0
  8 10  1  0  0  0
  8 11  2  0  0  0
  9 12  2  0  0  0
  9 14  1  0  0  0
  9 13  1  0  0  0
 10 13  2  0  0  0
 10 25  1  0  0  0
 11 12  1  0  0  0
 11 26  1  0  0  0
 12 27  1  0  0  0
 13 28  1  0  0  0
 14 16  1  0  0  0
 15 16  1  0  0  0
 15 29  1  0  0  0
 15 30  1  0  0  0
 16 31  1  0  0  0
 16 32  1  0  0  0
 17 20  1  0  0  0
 17 33  1  0  0  0
 17 34  1  0  0  0
 18 19  1  0  0  0
 18 35  1  0  0  0
 18 36  1  0  0  0
 19 20  1  0  0  0
 19 37  1  0  0  0
 19 38  1  0  0  0
 20 39  1  0  0  0
 20 40  1  0  0  0
M  END
> <s_m_entry_id>
6898

> <s_m_entry_name>
dock_pv.328

> <s_m_Source_Path>
/home/csk/Desktop/cluster/DUD-E-result/lkha4

> <s_m_Source_File>
dock_pv.maegz

> <i_m_Source_File_Index>
328

> <chembl_id>
CHEMBL349672

> <chembl_pref_name>
None

> <i_lp_mmshare_version>
53161

> <i_f3d_flags>
0

> <r_lp_tautomer_probability>
1

> <s_lp_Force_Field>
OPLS_2005

> <r_lp_Energy>
31.95206

> <b_lp_Chiralities_Consistent>
1

> <s_lp_Variant>
CHEMBL4618_lig105-1

> <s_i_glide_gridfile>
glide-grid_3chp

> <i_i_glide_lignum>
129

> <i_i_glide_rotatable_bonds>
6

> <r_i_docking_score>
-8.75820261508417

> <r_i_glide_ligand_efficiency>
-0.437910130754209

> <r_i_glide_ligand_efficiency_sa>
-1.18867097221762

> <r_i_glide_ligand_efficiency_ln>
-2.19188924970046

> <r_i_glide_gscore>
-8.75820261508417

> <r_i_glide_lipo>
-5.19949430460202

> <r_i_glide_hbond>
0

> <r_i_glide_metal>
0

> <r_i_glide_rewards>
-2.09976568780236

> <r_i_glide_evdw>
-41.5625267028809

> <r_i_glide_ecoul>
-3.16243982315063

> <r_i_glide_erotb>
1.09354968593685

> <r_i_glide_esite>
0

> <r_i_glide_emodel>
-65.7980547909728

> <r_i_glide_energy>
-44.7249665260315

> <r_i_glide_einternal>
4.93191766738892

> <i_i_glide_confnum>
35

> <i_i_glide_posenum>
23

> <r_i_glide_eff_state_penalty>
0

> <s_user_duplicate_titles>
CHEMBL4618_lig105,270726

> <s_m_subgroup_title>
dock_pv

> <s_m_subgroupid>
dock_pv

> <b_m_subgroup_collapsed>
1

$$$$
CHEMBL4618_lig55
                    3D
 Schrodinger Suite 2021-1.
 45 47  0  0  1  0            999 V2000
   12.8220   42.6121   65.2026 N   0  0  0  0  0  0
    8.7348   38.4512   69.5476 C   0  0  0  0  0  0
    8.7250   38.4257   70.8981 C   0  0  0  0  0  0
    8.6822   39.6420   68.6774 C   0  0  0  0  0  0
    8.9459   37.2036   71.6983 C   0  0  0  0  0  0
    9.1291   41.9664   67.1659 C   0  0  0  0  0  0
    8.1835   40.8769   69.0881 C   0  0  0  0  0  0
    9.3242   39.5651   67.4489 C   0  0  0  0  0  0
    9.6034   40.7222   66.7406 C   0  0  0  0  0  0
    8.3756   42.0275   68.3320 C   0  0  0  0  0  0
    9.3919   43.1558   66.5152 O   0  0  0  0  0  0
   11.8467   42.9502   66.2358 C   0  0  0  0  0  0
   10.4763   43.2341   65.5904 C   0  0  0  0  0  0
   13.3752   41.2723   65.3351 C   0  0  0  0  0  0
   13.9819   43.4852   65.1270 C   0  0  0  0  0  0
    8.5209   35.9480   71.2581 C   0  0  0  0  0  0
    9.7229   37.2796   72.8568 C   0  0  0  0  0  0
   14.9155   42.7305   64.1836 C   0  0  0  0  0  0
   14.6384   41.2590   64.4693 C   0  0  0  0  0  0
    8.9198   34.8003   71.9400 C   0  0  0  0  0  0
   10.1030   36.1375   73.5509 C   0  0  0  0  0  0
    9.7227   34.8958   73.0699 C   0  0  0  0  0  0
    8.8475   37.5105   69.0255 H   0  0  0  0  0  0
    8.5836   39.3428   71.4527 H   0  0  0  0  0  0
    7.7215   40.9706   70.0353 H   0  0  0  0  0  0
    9.7192   38.6265   67.0867 H   0  0  0  0  0  0
   10.2038   40.6385   65.8515 H   0  0  0  0  0  0
    7.9968   42.9761   68.6857 H   0  0  0  0  0  0
   12.1679   43.8205   66.7971 H   0  0  0  0  0  0
   11.7782   42.1641   66.9849 H   0  0  0  0  0  0
   10.2874   42.5827   64.7388 H   0  0  0  0  0  0
   10.4877   44.2388   65.1790 H   0  0  0  0  0  0
   13.5754   41.0281   66.3768 H   0  0  0  0  0  0
   12.6432   40.5292   65.0197 H   0  0  0  0  0  0
   13.6660   44.4515   64.7279 H   0  0  0  0  0  0
   14.4185   43.6986   66.1059 H   0  0  0  0  0  0
    7.9241   35.8474   70.3605 H   0  0  0  0  0  0
   10.0856   38.2164   73.2267 H   0  0  0  0  0  0
   14.6751   42.9848   63.1506 H   0  0  0  0  0  0
   15.9613   43.0034   64.3317 H   0  0  0  0  0  0
   15.4743   40.8258   65.0095 H   0  0  0  0  0  0
   14.4805   40.7069   63.5416 H   0  0  0  0  0  0
    8.6021   33.8334   71.5785 H   0  0  0  0  0  0
   10.7153   36.2124   74.4370 H   0  0  0  0  0  0
   10.0369   33.9986   73.5829 H   0  0  0  0  0  0
  1 12  1  0  0  0
  1 14  1  0  0  0
  1 15  1  0  0  0
  2  4  1  0  0  0
  2  3  2  0  0  0
  2 23  1  0  0  0
  3  5  1  0  0  0
  3 24  1  0  0  0
  4  7  1  0  0  0
  4  8  2  0  0  0
  5 16  1  0  0  0
  5 17  2  0  0  0
  6 11  1  0  0  0
  6  9  2  0  0  0
  6 10  1  0  0  0
  7 10  2  0  0  0
  7 25  1  0  0  0
  8  9  1  0  0  0
  8 26  1  0  0  0
  9 27  1  0  0  0
 10 28  1  0  0  0
 11 13  1  0  0  0
 12 13  1  0  0  0
 12 29  1  0  0  0
 12 30  1  0  0  0
 13 31  1  0  0  0
 13 32  1  0  0  0
 14 19  1  0  0  0
 14 33  1  0  0  0
 14 34  1  0  0  0
 15 18  1  0  0  0
 15 35  1  0  0  0
 15 36  1  0  0  0
 16 20  2  0  0  0
 16 37  1  0  0  0
 17 21  1  0  0  0
 17 38  1  0  0  0
 18 19  1  0  0  0
 18 39  1  0  0  0
 18 40  1  0  0  0
 19 41  1  0  0  0
 19 42  1  0  0  0
 20 22  1  0  0  0
 20 43  1  0  0  0
 21 22  2  0  0  0
 21 44  1  0  0  0
 22 45  1  0  0  0
M  END
> <s_m_entry_id>
6899

> <s_m_entry_name>
dock_pv.329

> <s_m_Source_Path>
/home/csk/Desktop/cluster/DUD-E-result/lkha4

> <s_m_Source_File>
dock_pv.maegz

> <i_m_Source_File_Index>
329

> <chembl_id>
CHEMBL163250

> <chembl_pref_name>
None

> <i_lp_mmshare_version>
53161

> <i_f3d_flags>
0

> <r_lp_tautomer_probability>
1

> <s_lp_Force_Field>
OPLS_2005

> <r_lp_Energy>
40.66527

> <b_lp_Chiralities_Consistent>
1

> <s_lp_Variant>
CHEMBL4618_lig55-1

> <s_i_glide_gridfile>
glide-grid_3chp

> <i_i_glide_lignum>
72

> <i_i_glide_rotatable_bonds>
6

> <r_i_docking_score>
-8.74919824247935

> <r_i_glide_ligand_efficiency>
-0.397690829203607

> <r_i_glide_ligand_efficiency_sa>
-1.1143453437213

> <r_i_glide_ligand_efficiency_ln>
-2.13862318522194

> <r_i_glide_gscore>
-8.74919824247935

> <r_i_glide_lipo>
-5.21398616791332

> <r_i_glide_hbond>
0

> <r_i_glide_metal>
0

> <r_i_glide_rewards>
-2.28467384430063

> <r_i_glide_evdw>
-39.9984664916992

> <r_i_glide_ecoul>
-2.07937455177307

> <r_i_glide_erotb>
1.06129127708553

> <r_i_glide_esite>
0

> <r_i_glide_emodel>
-45.6866539125037

> <r_i_glide_energy>
-42.0778410434723

> <r_i_glide_einternal>
15.1347150802612

> <i_i_glide_confnum>
22

> <i_i_glide_posenum>
56

> <r_i_glide_eff_state_penalty>
0

> <s_user_duplicate_titles>
CHEMBL4618_lig55

> <s_m_subgroup_title>
dock_pv

> <s_m_subgroupid>
dock_pv

> <b_m_subgroup_collapsed>
1

$$$$
CHEMBL4618_lig364
                    3D
 Schrodinger Suite 2021-1.
 54 56  0  0  1  0            999 V2000
    8.8512   38.1557   71.2735 C   0  0  0  0  0  0
    8.5210   36.8658   70.8796 C   0  0  0  0  0  0
    7.9620   36.6406   69.6235 C   0  0  0  0  0  0
    7.7210   37.7039   68.7587 C   0  0  0  0  0  0
    8.0448   38.9963   69.1547 C   0  0  0  0  0  0
    8.6162   39.2142   70.4041 C   0  0  0  0  0  0
    7.7210   40.0529   68.3400 O   0  0  0  0  0  0
    8.6888   40.8152   67.7381 C   0  0  0  0  0  0
    9.8708   40.2536   67.2644 C   0  0  0  0  0  0
   10.8675   41.0667   66.7400 C   0  0  0  0  0  0
   10.6795   42.4480   66.6687 C   0  0  0  0  0  0
    9.4256   42.9765   66.9719 C   0  0  0  0  0  0
    8.4413   42.1719   67.5399 C   0  0  0  0  0  0
   11.6678   43.3348   66.3022 O   0  0  0  0  0  0
   13.0500   43.0226   66.5461 C   0  0  0  0  0  0
   13.8996   43.7122   65.4551 C   0  0  2  0  0  0
   13.3531   43.3454   64.0582 C   0  0  0  0  0  0
   13.8046   41.9470   63.6700 C   0  0  0  0  0  0
   15.3397   41.9567   63.5692 C   0  0  0  0  0  0
   15.9820   42.3379   64.8938 C   0  0  0  0  0  0
   15.3723   43.5094   65.5400 N   0  0  2  0  0  0
    8.8655   35.5480   71.9400 Cl  0  0  0  0  0  0
   15.9976   43.8796   66.8066 C   0  0  0  0  0  0
   17.4016   44.4886   66.6415 C   0  0  0  0  0  0
   18.1124   44.7314   67.9913 C   0  0  0  0  0  0
   17.4966   45.8518   68.8287 C   0  0  0  0  0  0
   16.5062   45.4160   69.6562 O   0  0  0  0  0  0
   17.8736   47.0160   68.7401 O   0  0  0  0  0  0
    9.2801   38.3283   72.2488 H   0  0  0  0  0  0
    7.7210   35.6442   69.3047 H   0  0  0  0  0  0
    7.2714   37.5315   67.7920 H   0  0  0  0  0  0
    8.8384   40.2160   70.7137 H   0  0  0  0  0  0
   10.0260   39.1896   67.3354 H   0  0  0  0  0  0
   11.7789   40.6160   66.3924 H   0  0  0  0  0  0
    9.2318   44.0255   66.8108 H   0  0  0  0  0  0
    7.4956   42.6030   67.8398 H   0  0  0  0  0  0
   13.2992   41.9653   66.5728 H   0  0  0  0  0  0
   13.3025   43.4160   67.5298 H   0  0  0  0  0  0
   13.7210   44.7737   65.5197 H   0  0  0  0  0  0
   13.7210   44.0404   63.3057 H   0  0  0  0  0  0
   12.2673   43.4153   64.0032 H   0  0  0  0  0  0
   13.3210   41.6938   62.7400 H   0  0  0  0  0  0
   13.4690   41.2006   64.3908 H   0  0  0  0  0  0
   15.6943   42.6160   62.7743 H   0  0  0  0  0  0
   15.7210   40.9741   63.2932 H   0  0  0  0  0  0
   17.0433   42.5197   64.7255 H   0  0  0  0  0  0
   15.9133   41.4717   65.5400 H   0  0  0  0  0  0
   16.0900   43.0160   67.4589 H   0  0  0  0  0  0
   15.3648   44.5893   67.3385 H   0  0  0  0  0  0
   17.3314   45.4161   66.0765 H   0  0  0  0  0  0
   18.0374   43.8337   66.0466 H   0  0  0  0  0  0
   19.1455   45.0166   67.7890 H   0  0  0  0  0  0
   18.1778   43.8113   68.5744 H   0  0  0  0  0  0
   16.2677   44.4900   69.5400 H   0  0  0  0  0  0
  1  2  2  0  0  0
  1  6  1  0  0  0
  1 29  1  0  0  0
  2  3  1  0  0  0
  2 22  1  0  0  0
  3  4  2  0  0  0
  3 30  1  0  0  0
  4  5  1  0  0  0
  4 31  1  0  0  0
  5  7  1  0  0  0
  5  6  2  0  0  0
  6 32  1  0  0  0
  7  8  1  0  0  0
  8  9  2  0  0  0
  8 13  1  0  0  0
  9 10  1  0  0  0
  9 33  1  0  0  0
 10 11  2  0  0  0
 10 34  1  0  0  0
 11 14  1  0  0  0
 11 12  1  0  0  0
 12 13  2  0  0  0
 12 35  1  0  0  0
 13 36  1  0  0  0
 14 15  1  0  0  0
 15 16  1  0  0  0
 15 37  1  0  0  0
 15 38  1  0  0  0
 16 17  1  0  0  0
 16 21  1  0  0  0
 16 39  1  0  0  0
 17 18  1  0  0  0
 17 40  1  0  0  0
 17 41  1  0  0  0
 18 19  1  0  0  0
 18 42  1  0  0  0
 18 43  1  0  0  0
 19 20  1  0  0  0
 19 44  1  0  0  0
 19 45  1  0  0  0
 20 21  1  0  0  0
 20 46  1  0  0  0
 20 47  1  0  0  0
 21 23  1  0  0  0
 23 24  1  0  0  0
 23 48  1  0  0  0
 23 49  1  0  0  0
 24 25  1  0  0  0
 24 50  1  0  0  0
 24 51  1  0  0  0
 25 26  1  0  0  0
 25 52  1  0  0  0
 25 53  1  0  0  0
 26 27  1  0  0  0
 26 28  2  0  0  0
 27 54  1  0  0  0
M  END
> <s_m_entry_id>
6900

> <s_m_entry_name>
dock_pv.330

> <s_m_Source_Path>
/home/csk/Desktop/cluster/DUD-E-result/lkha4

> <s_m_Source_File>
dock_pv.maegz

> <i_m_Source_File_Index>
330

> <chembl_id>
CHEMBL1098790

> <chembl_pref_name>
None

> <i_lp_mmshare_version>
53161

> <i_f3d_flags>
0

> <r_lp_tautomer_probability>
1

> <s_lp_Force_Field>
OPLS_2005

> <r_lp_Energy>
36.688922

> <b_lp_Chiralities_Consistent>
1

> <s_lp_Variant>
CHEMBL4618_lig364-1

> <s_i_glide_gridfile>
glide-grid_3chp

> <i_i_glide_lignum>
410

> <i_i_glide_rotatable_bonds>
10

> <r_i_docking_score>
-8.72825646949647

> <r_i_glide_ligand_efficiency>
-0.31172344533916

> <r_i_glide_ligand_efficiency_sa>
-0.946575975340584

> <r_i_glide_ligand_efficiency_ln>
-2.01473786590548

> <r_i_glide_gscore>
-8.72825646949647

> <r_i_glide_lipo>
-4.99552109265377

> <r_i_glide_hbond>
-0.32355672002287

> <r_i_glide_metal>
0

> <r_i_glide_rewards>
-1.16439617990001

> <r_i_glide_evdw>
-47.7211532592773

> <r_i_glide_ecoul>
-5.8311333656311

> <r_i_glide_erotb>
1.08340947482979

> <r_i_glide_esite>
-0.0674642839410798

> <r_i_glide_emodel>
-73.2487789908713

> <r_i_glide_energy>
-53.5522866249084

> <r_i_glide_einternal>
4.96406507492065

> <i_i_glide_confnum>
104

> <i_i_glide_posenum>
348

> <r_i_glide_eff_state_penalty>
0

> <s_user_duplicate_titles>
CHEMBL4618_lig364,627541

> <s_m_subgroup_title>
dock_pv

> <s_m_subgroupid>
dock_pv

> <b_m_subgroup_collapsed>
1

$$$$
CHEMBL4618_lig125
                    3D
 Schrodinger Suite 2021-1.
 45 48  0  0  1  0            999 V2000
   17.3010   41.8160   64.5210 N   0  0  0  0  0  0
   17.3486   42.7218   65.5439 C   0  0  0  0  0  0
   16.0939   41.9200   64.0311 C   0  0  0  0  0  0
   15.2819   42.7816   64.7279 N   0  0  0  0  0  0
   16.0741   43.3070   65.7234 C   0  0  0  0  0  0
   18.3847   43.1328   66.4096 C   0  0  0  0  0  0
   20.8384   42.2452   66.3400 N   0  0  0  0  0  0
   19.7497   42.6345   66.3627 C   0  0  0  0  0  0
   18.1661   44.0462   67.3893 N   0  0  0  0  0  0
   15.8306   44.2160   66.7400 C   0  0  0  0  0  0
   16.9210   44.5564   67.5408 C   0  0  0  0  0  0
    8.8073   41.2462   67.9409 C   0  0  0  0  0  0
    7.8456   40.7211   69.0078 C   0  0  0  0  0  0
   10.6840   42.3139   66.1411 C   0  0  0  0  0  0
   13.8980   43.1375   64.4201 C   0  0  0  0  0  0
    8.6131   42.5166   67.3918 C   0  0  0  0  0  0
    9.8991   40.4875   67.5242 C   0  0  0  0  0  0
   10.8248   41.0160   66.6394 C   0  0  0  0  0  0
    9.5413   43.0354   66.4862 C   0  0  0  0  0  0
    8.0627   39.2830   69.4897 C   0  0  0  0  0  0
   11.6299   42.9128   65.3238 O   0  0  0  0  0  0
   12.9372   42.3256   65.2931 C   0  0  0  0  0  0
    7.7555   38.2222   68.6394 C   0  0  0  0  0  0
    8.5210   39.0160   70.7848 C   0  0  0  0  0  0
    7.9005   36.9196   69.0939 C   0  0  0  0  0  0
    8.6185   37.7115   71.2529 C   0  0  0  0  0  0
    8.2967   36.6628   70.4020 C   0  0  0  0  0  0
   15.7210   41.4363   63.1400 H   0  0  0  0  0  0
   14.8474   44.6160   66.8950 H   0  0  0  0  0  0
   16.7923   45.2461   68.3624 H   0  0  0  0  0  0
    7.8926   41.4026   69.8568 H   0  0  0  0  0  0
    6.8242   40.8116   68.6397 H   0  0  0  0  0  0
   13.7738   44.2086   64.5870 H   0  0  0  0  0  0
   13.7122   42.9579   63.3592 H   0  0  0  0  0  0
    7.7620   43.1166   67.6859 H   0  0  0  0  0  0
   10.0711   39.4921   67.9042 H   0  0  0  0  0  0
   11.6499   40.3942   66.3400 H   0  0  0  0  0  0
    9.3969   44.0314   66.0952 H   0  0  0  0  0  0
   12.9052   41.3132   64.8875 H   0  0  0  0  0  0
   13.3187   42.2641   66.3157 H   0  0  0  0  0  0
    7.4224   38.4032   67.6278 H   0  0  0  0  0  0
    8.7425   39.8160   71.4657 H   0  0  0  0  0  0
    7.7210   36.0952   68.4242 H   0  0  0  0  0  0
    8.9377   37.5170   72.2663 H   0  0  0  0  0  0
    8.3817   35.6414   70.7444 H   0  0  0  0  0  0
  1  2  1  0  0  0
  1  3  2  0  0  0
  2  5  2  0  0  0
  2  6  1  0  0  0
  3  4  1  0  0  0
  3 28  1  0  0  0
  4 15  1  0  0  0
  4  5  1  0  0  0
  5 10  1  0  0  0
  6  8  1  0  0  0
  6  9  2  0  0  0
  7  8  3  0  0  0
  9 11  1  0  0  0
 10 11  2  0  0  0
 10 29  1  0  0  0
 11 30  1  0  0  0
 12 16  2  0  0  0
 12 13  1  0  0  0
 12 17  1  0  0  0
 13 20  1  0  0  0
 13 31  1  0  0  0
 13 32  1  0  0  0
 14 21  1  0  0  0
 14 18  1  0  0  0
 14 19  2  0  0  0
 15 22  1  0  0  0
 15 33  1  0  0  0
 15 34  1  0  0  0
 16 19  1  0  0  0
 16 35  1  0  0  0
 17 18  2  0  0  0
 17 36  1  0  0  0
 18 37  1  0  0  0
 19 38  1  0  0  0
 20 23  2  0  0  0
 20 24  1  0  0  0
 21 22  1  0  0  0
 22 39  1  0  0  0
 22 40  1  0  0  0
 23 25  1  0  0  0
 23 41  1  0  0  0
 24 26  2  0  0  0
 24 42  1  0  0  0
 25 27  2  0  0  0
 25 43  1  0  0  0
 26 27  1  0  0  0
 26 44  1  0  0  0
 27 45  1  0  0  0
M  END
> <s_m_entry_id>
6901

> <s_m_entry_name>
dock_pv.331

> <s_m_Source_Path>
/home/csk/Desktop/cluster/DUD-E-result/lkha4

> <s_m_Source_File>
dock_pv.maegz

> <i_m_Source_File_Index>
331

> <chembl_id>
CHEMBL14387

> <chembl_pref_name>
None

> <i_lp_mmshare_version>
53161

> <i_f3d_flags>
0

> <r_lp_tautomer_probability>
1

> <s_lp_Force_Field>
OPLS_2005

> <r_lp_Energy>
19.913313

> <b_lp_Chiralities_Consistent>
1

> <s_lp_Variant>
CHEMBL4618_lig125-1

> <s_i_glide_gridfile>
glide-grid_3chp

> <i_i_glide_lignum>
151

> <i_i_glide_rotatable_bonds>
6

> <r_i_docking_score>
-8.7269868330435

> <r_i_glide_ligand_efficiency>
-0.323221734557167

> <r_i_glide_ligand_efficiency_sa>
-0.969665202606214

> <r_i_glide_ligand_efficiency_ln>
-2.03149865911009

> <r_i_glide_gscore>
-8.7269868330435

> <r_i_glide_lipo>
-4.6047811360856

> <r_i_glide_hbond>
0

> <r_i_glide_metal>
0

> <r_i_glide_rewards>
-1.87648278393451

> <r_i_glide_evdw>
-49.3878974914551

> <r_i_glide_ecoul>
-3.26085090637207

> <r_i_glide_erotb>
0.912799597505167

> <r_i_glide_esite>
-0.2

> <r_i_glide_emodel>
-74.2922795013851

> <r_i_glide_energy>
-52.6487483978271

> <r_i_glide_einternal>
9.52021408081055

> <i_i_glide_confnum>
43

> <i_i_glide_posenum>
259

> <r_i_glide_eff_state_penalty>
0

> <s_user_duplicate_titles>
CHEMBL4618_lig125,14816

> <s_m_subgroup_title>
dock_pv

> <s_m_subgroupid>
dock_pv

> <b_m_subgroup_collapsed>
1

$$$$
CHEMBL4618_lig283
                    3D
 Schrodinger Suite 2021-1.
 58 62  0  0  1  0            999 V2000
   10.2438   36.9111   73.3814 C   0  0  0  0  0  0
    9.0431   36.2224   73.5039 C   0  0  0  0  0  0
    7.9949   36.4465   72.6091 C   0  0  0  0  0  0
   10.4545   37.8159   72.3394 C   0  0  0  0  0  0
    9.3865   38.0443   71.4669 C   0  0  0  0  0  0
    8.1588   37.3828   71.5741 C   0  0  0  0  0  0
    7.3207   37.8177   70.5807 N   0  0  0  0  0  0
    8.0555   38.7017   69.9380 C   0  0  0  0  0  0
    9.3208   38.9012   70.4114 O   0  0  0  0  0  0
    7.6237   39.4565   68.8687 O   0  0  0  0  0  0
    8.5136   40.2785   68.2138 C   0  0  0  0  0  0
    8.6260   41.6307   68.5355 C   0  0  0  0  0  0
    9.6321   42.3995   67.9402 C   0  0  0  0  0  0
   10.5218   41.8548   67.0128 C   0  0  0  0  0  0
   10.3216   40.5228   66.6382 C   0  0  0  0  0  0
    9.3214   39.7446   67.2187 C   0  0  0  0  0  0
   11.5843   42.6415   66.5697 O   0  0  0  0  0  0
   12.2041   42.3369   65.3093 C   0  0  0  0  0  0
   13.4597   43.1607   64.9343 C   0  0  0  0  0  0
   14.7186   42.7200   65.5825 N   0  0  1  0  0  0
   15.7168   42.2632   64.5994 C   0  0  0  0  0  0
   17.1338   42.0117   65.2025 C   0  0  0  0  0  0
   17.7424   43.1707   66.0451 C   0  0  0  0  0  0
   16.6267   43.6399   67.0086 C   0  0  0  0  0  0
   15.2534   43.8496   66.3437 C   0  0  0  0  0  0
   17.9499   44.2177   65.1399 O   0  0  0  0  0  0
   19.0831   42.8026   66.7316 C   0  0  0  0  0  0
   19.2103   42.6174   68.1196 C   0  0  0  0  0  0
   20.4322   42.2524   68.6817 C   0  0  0  0  0  0
   21.5451   42.0761   67.8652 C   0  0  0  0  0  0
   21.4481   42.2706   66.4925 C   0  0  0  0  0  0
   20.2243   42.6303   65.9345 C   0  0  0  0  0  0
   11.0316   36.7244   74.0967 H   0  0  0  0  0  0
    8.9245   35.5151   74.3128 H   0  0  0  0  0  0
    7.0813   35.9007   72.7400 H   0  0  0  0  0  0
   11.3928   38.3335   72.2203 H   0  0  0  0  0  0
    7.9773   42.0638   69.2834 H   0  0  0  0  0  0
    9.7675   43.4149   68.2507 H   0  0  0  0  0  0
   10.9723   40.0284   65.9386 H   0  0  0  0  0  0
    9.2249   38.7032   66.9456 H   0  0  0  0  0  0
   11.4514   42.6161   64.5715 H   0  0  0  0  0  0
   12.4521   41.2820   65.1972 H   0  0  0  0  0  0
   13.2321   44.2090   65.1445 H   0  0  0  0  0  0
   13.5678   43.1294   63.8472 H   0  0  0  0  0  0
   15.8147   43.0135   63.8124 H   0  0  0  0  0  0
   15.3315   41.3713   64.1027 H   0  0  0  0  0  0
   17.8130   41.8157   64.3726 H   0  0  0  0  0  0
   17.1531   41.0817   65.7583 H   0  0  0  0  0  0
   16.5213   43.0034   67.8763 H   0  0  0  0  0  0
   16.9346   44.5778   67.4722 H   0  0  0  0  0  0
   15.3820   44.6158   65.5949 H   0  0  0  0  0  0
   14.5270   44.2098   67.0733 H   0  0  0  0  0  0
   18.1403   43.8666   64.2565 H   0  0  0  0  0  0
   18.3758   42.7320   68.7926 H   0  0  0  0  0  0
   20.5127   42.0941   69.7477 H   0  0  0  0  0  0
   22.4910   41.7770   68.2946 H   0  0  0  0  0  0
   22.3144   42.1196   65.8625 H   0  0  0  0  0  0
   20.1626   42.7564   64.8625 H   0  0  0  0  0  0
  1  4  1  0  0  0
  1  2  2  0  0  0
  1 33  1  0  0  0
  2  3  1  0  0  0
  2 34  1  0  0  0
  3  6  2  0  0  0
  3 35  1  0  0  0
  4  5  2  0  0  0
  4 36  1  0  0  0
  5  9  1  0  0  0
  5  6  1  0  0  0
  6  7  1  0  0  0
  7  8  2  0  0  0
  8  9  1  0  0  0
  8 10  1  0  0  0
 10 11  1  0  0  0
 11 16  1  0  0  0
 11 12  2  0  0  0
 12 13  1  0  0  0
 12 37  1  0  0  0
 13 14  2  0  0  0
 13 38  1  0  0  0
 14 17  1  0  0  0
 14 15  1  0  0  0
 15 16  2  0  0  0
 15 39  1  0  0  0
 16 40  1  0  0  0
 17 18  1  0  0  0
 18 19  1  0  0  0
 18 41  1  0  0  0
 18 42  1  0  0  0
 19 20  1  0  0  0
 19 43  1  0  0  0
 19 44  1  0  0  0
 20 21  1  0  0  0
 20 25  1  0  0  0
 21 22  1  0  0  0
 21 45  1  0  0  0
 21 46  1  0  0  0
 22 23  1  0  0  0
 22 47  1  0  0  0
 22 48  1  0  0  0
 23 24  1  0  0  0
 23 26  1  0  0  0
 23 27  1  0  0  0
 24 25  1  0  0  0
 24 49  1  0  0  0
 24 50  1  0  0  0
 25 51  1  0  0  0
 25 52  1  0  0  0
 26 53  1  0  0  0
 27 28  2  0  0  0
 27 32  1  0  0  0
 28 29  1  0  0  0
 28 54  1  0  0  0
 29 30  2  0  0  0
 29 55  1  0  0  0
 30 31  1  0  0  0
 30 56  1  0  0  0
 31 32  2  0  0  0
 31 57  1  0  0  0
 32 58  1  0  0  0
M  END
> <s_m_entry_id>
6902

> <s_m_entry_name>
dock_pv.332

> <s_m_Source_Path>
/home/csk/Desktop/cluster/DUD-E-result/lkha4

> <s_m_Source_File>
dock_pv.maegz

> <i_m_Source_File_Index>
332

> <chembl_id>
CHEMBL518156

> <chembl_pref_name>
None

> <i_lp_mmshare_version>
53161

> <i_f3d_flags>
0

> <r_lp_tautomer_probability>
1

> <s_lp_Force_Field>
OPLS_2005

> <r_lp_Energy>
42.853995

> <b_lp_Chiralities_Consistent>
1

> <s_lp_Variant>
CHEMBL4618_lig283-1

> <s_i_glide_gridfile>
glide-grid_3chp

> <i_i_glide_lignum>
321

> <i_i_glide_rotatable_bonds>
8

> <r_i_docking_score>
-8.72416919013736

> <r_i_glide_ligand_efficiency>
-0.272630287191793

> <r_i_glide_ligand_efficiency_sa>
-0.865547208373369

> <r_i_glide_ligand_efficiency_ln>
-1.95357929354216

> <r_i_glide_gscore>
-8.72416919013736

> <r_i_glide_lipo>
-5.00115252094079

> <r_i_glide_hbond>
-0.230035638919692

> <r_i_glide_metal>
0

> <r_i_glide_rewards>
-1.00911369789289

> <r_i_glide_evdw>
-47.2089004516602

> <r_i_glide_ecoul>
-5.82917785644531

> <r_i_glide_erotb>
0.750954368665815

> <r_i_glide_esite>
0

> <r_i_glide_emodel>
-71.5052165831181

> <r_i_glide_energy>
-53.0380783081055

> <r_i_glide_einternal>
7.41872644424438

> <i_i_glide_confnum>
3

> <i_i_glide_posenum>
53

> <r_i_glide_eff_state_penalty>
0

> <s_user_duplicate_titles>
CHEMBL4618_lig283,466731

> <s_m_subgroup_title>
dock_pv

> <s_m_subgroupid>
dock_pv

> <b_m_subgroup_collapsed>
1

$$$$
CHEMBL4618_lig133
                    3D
 Schrodinger Suite 2021-1.
 44 47  0  0  1  0            999 V2000
   15.7400   43.4808   66.0762 C   0  0  0  0  0  0
   15.7945   44.3200   67.1398 N   0  0  0  0  0  0
   14.7007   43.0316   65.3038 N   0  0  0  0  0  0
   17.0513   43.0603   65.8124 C   0  0  0  0  0  0
   17.8821   43.6041   66.7343 N   0  0  0  0  0  0
   17.0633   44.3120   67.4721 C   0  0  0  0  0  0
   14.9457   42.2162   64.2482 C   0  0  0  0  0  0
   16.2479   41.8161   63.9400 C   0  0  0  0  0  0
   17.3210   42.2161   64.7399 C   0  0  0  0  0  0
    8.4545   40.1284   68.3404 C   0  0  0  0  0  0
    7.4865   39.1797   69.0368 C   0  0  0  0  0  0
   10.2368   41.8702   67.0408 C   0  0  0  0  0  0
   13.2968   43.4500   65.5657 C   0  0  0  0  0  0
    9.3210   39.6426   67.3690 C   0  0  0  0  0  0
    8.4140   41.5022   68.5986 C   0  0  0  0  0  0
    9.2910   42.3621   67.9397 C   0  0  0  0  0  0
   10.2173   40.5042   66.7400 C   0  0  0  0  0  0
    8.0720   38.2122   70.0709 C   0  0  0  0  0  0
   11.1441   42.7679   66.4991 O   0  0  0  0  0  0
   12.3858   42.2736   65.9867 C   0  0  0  0  0  0
    8.0735   36.8313   69.8532 C   0  0  0  0  0  0
    8.5289   38.6960   71.2940 C   0  0  0  0  0  0
    8.5208   35.9656   70.8554 C   0  0  0  0  0  0
    8.9958   37.8257   72.2776 C   0  0  0  0  0  0
    8.9822   36.4607   72.0628 C   0  0  0  0  0  0
   17.4203   44.8715   68.3251 H   0  0  0  0  0  0
   14.0994   41.9506   63.6286 H   0  0  0  0  0  0
   16.4304   41.2696   63.0236 H   0  0  0  0  0  0
   18.3415   41.9744   64.4886 H   0  0  0  0  0  0
    6.7649   39.8160   69.5401 H   0  0  0  0  0  0
    6.9222   38.6198   68.2883 H   0  0  0  0  0  0
   13.3257   44.2145   66.3399 H   0  0  0  0  0  0
   12.9423   43.9347   64.6551 H   0  0  0  0  0  0
    9.3211   38.5903   67.1221 H   0  0  0  0  0  0
    7.7086   41.9097   69.3093 H   0  0  0  0  0  0
    9.2562   43.4160   68.1531 H   0  0  0  0  0  0
   10.8992   40.0839   66.0167 H   0  0  0  0  0  0
   12.2087   41.6174   65.1399 H   0  0  0  0  0  0
   12.8890   41.6711   66.7400 H   0  0  0  0  0  0
    7.7209   36.4228   68.9183 H   0  0  0  0  0  0
    8.5211   39.7585   71.4862 H   0  0  0  0  0  0
    8.5210   34.8988   70.7232 H   0  0  0  0  0  0
    9.3674   38.2159   73.2075 H   0  0  0  0  0  0
    9.3311   35.7855   72.8304 H   0  0  0  0  0  0
  1  2  2  0  0  0
  1  3  1  0  0  0
  1  4  1  0  0  0
  2  6  1  0  0  0
  3  7  1  0  0  0
  3 13  1  0  0  0
  4  5  1  0  0  0
  4  9  2  0  0  0
  5  6  2  0  0  0
  6 26  1  0  0  0
  7  8  2  0  0  0
  7 27  1  0  0  0
  8  9  1  0  0  0
  8 28  1  0  0  0
  9 29  1  0  0  0
 10 14  2  0  0  0
 10 11  1  0  0  0
 10 15  1  0  0  0
 11 18  1  0  0  0
 11 30  1  0  0  0
 11 31  1  0  0  0
 12 19  1  0  0  0
 12 16  1  0  0  0
 12 17  2  0  0  0
 13 20  1  0  0  0
 13 32  1  0  0  0
 13 33  1  0  0  0
 14 17  1  0  0  0
 14 34  1  0  0  0
 15 16  2  0  0  0
 15 35  1  0  0  0
 16 36  1  0  0  0
 17 37  1  0  0  0
 18 21  2  0  0  0
 18 22  1  0  0  0
 19 20  1  0  0  0
 20 38  1  0  0  0
 20 39  1  0  0  0
 21 23  1  0  0  0
 21 40  1  0  0  0
 22 24  2  0  0  0
 22 41  1  0  0  0
 23 25  2  0  0  0
 23 42  1  0  0  0
 24 25  1  0  0  0
 24 43  1  0  0  0
 25 44  1  0  0  0
M  END
> <s_m_entry_id>
6903

> <s_m_entry_name>
dock_pv.333

> <s_m_Source_Path>
/home/csk/Desktop/cluster/DUD-E-result/lkha4

> <s_m_Source_File>
dock_pv.maegz

> <i_m_Source_File_Index>
333

> <chembl_id>
CHEMBL14739

> <chembl_pref_name>
None

> <i_lp_mmshare_version>
53161

> <i_f3d_flags>
0

> <r_lp_tautomer_probability>
1

> <s_lp_Force_Field>
OPLS_2005

> <r_lp_Energy>
26.324562

> <b_lp_Chiralities_Consistent>
1

> <s_lp_Variant>
CHEMBL4618_lig133-1

> <s_i_glide_gridfile>
glide-grid_3chp

> <i_i_glide_lignum>
159

> <i_i_glide_rotatable_bonds>
6

> <r_i_docking_score>
-8.72172021741078

> <r_i_glide_ligand_efficiency>
-0.348868808696431

> <r_i_glide_ligand_efficiency_sa>
-1.02009858384303

> <r_i_glide_ligand_efficiency_ln>
-2.0673090603901

> <r_i_glide_gscore>
-8.72172021741078

> <r_i_glide_lipo>
-4.58317953043649

> <r_i_glide_hbond>
0

> <r_i_glide_metal>
0

> <r_i_glide_rewards>
-2.01865383897553

> <r_i_glide_evdw>
-41.8095779418945

> <r_i_glide_ecoul>
-5.25501251220703

> <r_i_glide_erotb>
0.866087884204416

> <r_i_glide_esite>
-0.107243958277396

> <r_i_glide_emodel>
-66.24208738904

> <r_i_glide_energy>
-47.0645904541016

> <r_i_glide_einternal>
3.57899069786072

> <i_i_glide_confnum>
13

> <i_i_glide_posenum>
270

> <r_i_glide_eff_state_penalty>
0

> <s_user_duplicate_titles>
CHEMBL4618_lig133,14736

> <s_m_subgroup_title>
dock_pv

> <s_m_subgroupid>
dock_pv

> <b_m_subgroup_collapsed>
1

$$$$
CHEMBL4618_lig69
                    3D
 Schrodinger Suite 2021-1.
 46 48  0  0  1  0            999 V2000
    9.6524   42.7471   65.9398 S   0  0  1  0  0  0
   11.4491   42.5951   65.7021 C   0  0  0  0  0  0
   17.9499   42.6162   66.5356 N   0  0  0  0  0  0
    9.4693   42.2951   67.7342 C   0  0  0  0  0  0
    9.3210   44.2159   65.7020 O   0  0  0  0  0  0
   12.0411   41.3678   65.9451 C   0  0  0  0  0  0
   12.1950   43.6311   65.1415 C   0  0  0  0  0  0
   14.1606   42.2013   65.1389 C   0  0  0  0  0  0
    8.8744   40.8928   67.9473 C   0  0  0  0  0  0
   13.3722   41.1728   65.6426 C   0  0  0  0  0  0
   13.5479   43.4343   64.8586 C   0  0  0  0  0  0
   15.5111   41.9156   64.9917 O   0  0  0  0  0  0
   17.8357   42.7324   65.0821 C   0  0  0  0  0  0
   16.3968   42.9632   64.5940 C   0  0  0  0  0  0
   17.4695   43.7604   67.3005 C   0  0  0  0  0  0
   19.3397   42.4984   66.9643 C   0  0  0  0  0  0
    8.1983   40.6125   69.1393 C   0  0  0  0  0  0
    9.0208   39.8654   67.0072 C   0  0  0  0  0  0
   19.3217   42.7519   68.4740 C   0  0  0  0  0  0
   18.0362   43.5515   68.7044 C   0  0  0  0  0  0
    7.7236   39.3269   69.4010 C   0  0  0  0  0  0
    8.5209   38.5955   67.2547 C   0  0  0  0  0  0
    7.8842   38.3211   68.4567 C   0  0  0  0  0  0
   10.4257   42.3928   68.2432 H   0  0  0  0  0  0
    8.7979   43.0346   68.1722 H   0  0  0  0  0  0
   11.4851   40.5454   66.3531 H   0  0  0  0  0  0
   11.7300   44.5801   64.9223 H   0  0  0  0  0  0
   13.8068   40.2161   65.8693 H   0  0  0  0  0  0
   14.1019   44.2507   64.4241 H   0  0  0  0  0  0
   18.4660   43.5546   64.7396 H   0  0  0  0  0  0
   18.2184   41.8239   64.6208 H   0  0  0  0  0  0
   16.0947   43.9299   64.9898 H   0  0  0  0  0  0
   16.3864   43.0158   63.5051 H   0  0  0  0  0  0
   16.3786   43.7639   67.2969 H   0  0  0  0  0  0
   17.7689   44.7105   66.8539 H   0  0  0  0  0  0
   19.9983   43.1916   66.4360 H   0  0  0  0  0  0
   19.7204   41.5082   66.7076 H   0  0  0  0  0  0
    8.0559   41.3854   69.8790 H   0  0  0  0  0  0
    9.5153   40.0163   66.0634 H   0  0  0  0  0  0
   20.2059   43.3087   68.7849 H   0  0  0  0  0  0
   19.3108   41.8154   69.0325 H   0  0  0  0  0  0
   17.3265   43.0017   69.3256 H   0  0  0  0  0  0
   18.2273   44.5039   69.1988 H   0  0  0  0  0  0
    7.2336   39.1012   70.3358 H   0  0  0  0  0  0
    8.6566   37.8174   66.5207 H   0  0  0  0  0  0
    7.5148   37.3258   68.6571 H   0  0  0  0  0  0
  1  2  1  0  0  0
  1  4  1  0  0  0
  1  5  2  0  0  0
  2  6  2  0  0  0
  2  7  1  0  0  0
  3 13  1  0  0  0
  3 15  1  0  0  0
  3 16  1  0  0  0
  4  9  1  0  0  0
  4 24  1  0  0  0
  4 25  1  0  0  0
  6 10  1  0  0  0
  6 26  1  0  0  0
  7 11  2  0  0  0
  7 27  1  0  0  0
  8 11  1  0  0  0
  8 12  1  0  0  0
  8 10  2  0  0  0
  9 17  2  0  0  0
  9 18  1  0  0  0
 10 28  1  0  0  0
 11 29  1  0  0  0
 12 14  1  0  0  0
 13 14  1  0  0  0
 13 30  1  0  0  0
 13 31  1  0  0  0
 14 32  1  0  0  0
 14 33  1  0  0  0
 15 20  1  0  0  0
 15 34  1  0  0  0
 15 35  1  0  0  0
 16 19  1  0  0  0
 16 36  1  0  0  0
 16 37  1  0  0  0
 17 21  1  0  0  0
 17 38  1  0  0  0
 18 22  2  0  0  0
 18 39  1  0  0  0
 19 20  1  0  0  0
 19 40  1  0  0  0
 19 41  1  0  0  0
 20 42  1  0  0  0
 20 43  1  0  0  0
 21 23  2  0  0  0
 21 44  1  0  0  0
 22 23  1  0  0  0
 22 45  1  0  0  0
 23 46  1  0  0  0
M  END
> <s_m_entry_id>
6904

> <s_m_entry_name>
dock_pv.334

> <s_m_Source_Path>
/home/csk/Desktop/cluster/DUD-E-result/lkha4

> <s_m_Source_File>
dock_pv.maegz

> <i_m_Source_File_Index>
334

> <chembl_id>
CHEMBL162900

> <chembl_pref_name>
None

> <i_lp_mmshare_version>
53161

> <i_f3d_flags>
0

> <r_lp_tautomer_probability>
1

> <s_lp_Force_Field>
OPLS_2005

> <r_lp_Energy>
33.307973

> <b_lp_Chiralities_Consistent>
1

> <s_lp_Variant>
CHEMBL4618_lig69-1

> <s_i_glide_gridfile>
glide-grid_3chp

> <i_i_glide_lignum>
87

> <i_i_glide_rotatable_bonds>
7

> <r_i_docking_score>
-8.71792599639615

> <r_i_glide_ligand_efficiency>
-0.379040260712876

> <r_i_glide_ligand_efficiency_sa>
-1.07794008034905

> <r_i_glide_ligand_efficiency_ln>
-2.10807355571103

> <r_i_glide_gscore>
-8.71792599639615

> <r_i_glide_lipo>
-3.90512865515056

> <r_i_glide_hbond>
-0.45743764984547

> <r_i_glide_metal>
0

> <r_i_glide_rewards>
-2.0626777320641

> <r_i_glide_evdw>
-38.6953163146973

> <r_i_glide_ecoul>
-9.31249332427979

> <r_i_glide_erotb>
1.03895785504082

> <r_i_glide_esite>
0

> <r_i_glide_emodel>
-67.987734571606

> <r_i_glide_energy>
-48.0078096389771

> <r_i_glide_einternal>
9.09611415863037

> <i_i_glide_confnum>
11

> <i_i_glide_posenum>
219

> <r_i_glide_eff_state_penalty>
0

> <s_user_duplicate_titles>
CHEMBL4618_lig69

> <s_m_subgroup_title>
dock_pv

> <s_m_subgroupid>
dock_pv

> <b_m_subgroup_collapsed>
1

$$$$
CHEMBL4618_lig408
                    3D
 Schrodinger Suite 2021-1.
 57 61  0  0  1  0            999 V2000
    8.5210   35.9790   71.4624 C   0  0  0  0  0  0
    8.1210   36.2169   70.1463 C   0  0  0  0  0  0
    8.9116   38.3430   71.8194 N   0  0  0  0  0  0
    8.8975   37.0580   72.2559 C   0  0  0  0  0  0
    8.5288   38.5720   70.5587 C   0  0  0  0  0  0
    8.1211   37.5360   69.6895 C   0  0  0  0  0  0
    7.7210   38.2159   68.1201 S   0  0  0  0  0  0
    8.1469   39.7873   68.7683 C   0  0  0  0  0  0
    8.5211   39.8155   70.0099 N   0  0  0  0  0  0
    8.1164   40.8855   67.9386 O   0  0  0  0  0  0
    9.2654   41.2682   67.2847 C   0  0  0  0  0  0
    9.5601   42.6213   67.1156 C   0  0  0  0  0  0
   10.7410   43.0160   66.4729 C   0  0  0  0  0  0
   11.6481   42.0681   66.0013 C   0  0  0  0  0  0
   11.3073   40.7215   66.1299 C   0  0  0  0  0  0
   10.1263   40.3252   66.7401 C   0  0  0  0  0  0
   12.8279   42.4939   65.4093 O   0  0  0  0  0  0
   13.7421   41.4949   64.9292 C   0  0  0  0  0  0
   15.0148   42.0835   64.3029 C   0  0  0  0  0  0
   16.1208   42.2546   65.2530 N   0  0  1  0  0  0
   17.3309   42.5969   64.5098 C   0  0  0  0  0  0
   18.5593   42.6943   65.4348 C   0  0  0  0  0  0
   18.3722   43.6268   66.6495 C   0  0  0  0  0  0
   16.9566   43.4791   67.2543 C   0  0  0  0  0  0
   15.8294   43.3314   66.2104 C   0  0  0  0  0  0
   19.4548   43.5803   67.6443 N   0  0  0  0  0  0
   19.7126   44.6162   68.4748 C   0  0  0  0  0  0
   20.8249   44.1527   69.4105 C   0  0  0  0  0  0
   21.0023   42.6670   69.1708 C   0  0  0  0  0  0
   20.2977   42.4013   67.8585 C   0  0  0  0  0  0
   19.1760   45.7254   68.5118 O   0  0  0  0  0  0
    8.5288   34.9721   71.8540 H   0  0  0  0  0  0
    7.8385   35.4233   69.4844 H   0  0  0  0  0  0
    9.2005   36.9052   73.2825 H   0  0  0  0  0  0
    8.8777   43.3700   67.4938 H   0  0  0  0  0  0
   10.9713   44.0611   66.3400 H   0  0  0  0  0  0
   11.9218   39.9470   65.6999 H   0  0  0  0  0  0
    9.9039   39.2726   66.7877 H   0  0  0  0  0  0
   13.2684   40.8950   64.1547 H   0  0  0  0  0  0
   14.0094   40.8069   65.7324 H   0  0  0  0  0  0
   14.7857   43.0161   63.7850 H   0  0  0  0  0  0
   15.3370   41.3806   63.5398 H   0  0  0  0  0  0
   17.1857   43.5158   63.9407 H   0  0  0  0  0  0
   17.5228   41.8163   63.7712 H   0  0  0  0  0  0
   19.4083   43.0324   64.8389 H   0  0  0  0  0  0
   18.7949   41.6872   65.7643 H   0  0  0  0  0  0
   18.3612   44.6266   66.2092 H   0  0  0  0  0  0
   16.9211   42.6169   67.9179 H   0  0  0  0  0  0
   16.7300   44.3472   67.8752 H   0  0  0  0  0  0
   15.6538   44.2660   65.6763 H   0  0  0  0  0  0
   14.9016   43.1072   66.7381 H   0  0  0  0  0  0
   21.7325   44.6933   69.1392 H   0  0  0  0  0  0
   20.5759   44.3686   70.4495 H   0  0  0  0  0  0
   22.0479   42.3503   69.1506 H   0  0  0  0  0  0
   20.5080   42.1059   69.9671 H   0  0  0  0  0  0
   19.7208   41.4781   67.9032 H   0  0  0  0  0  0
   21.0156   42.3005   67.0422 H   0  0  0  0  0  0
  1  2  2  0  0  0
  1  4  1  0  0  0
  1 32  1  0  0  0
  2  6  1  0  0  0
  2 33  1  0  0  0
  3  5  1  0  0  0
  3  4  2  0  0  0
  4 34  1  0  0  0
  5  6  2  0  0  0
  5  9  1  0  0  0
  6  7  1  0  0  0
  7  8  1  0  0  0
  8  9  2  0  0  0
  8 10  1  0  0  0
 10 11  1  0  0  0
 11 12  2  0  0  0
 11 16  1  0  0  0
 12 13  1  0  0  0
 12 35  1  0  0  0
 13 14  2  0  0  0
 13 36  1  0  0  0
 14 15  1  0  0  0
 14 17  1  0  0  0
 15 16  2  0  0  0
 15 37  1  0  0  0
 16 38  1  0  0  0
 17 18  1  0  0  0
 18 19  1  0  0  0
 18 39  1  0  0  0
 18 40  1  0  0  0
 19 20  1  0  0  0
 19 41  1  0  0  0
 19 42  1  0  0  0
 20 21  1  0  0  0
 20 25  1  0  0  0
 21 22  1  0  0  0
 21 43  1  0  0  0
 21 44  1  0  0  0
 22 23  1  0  0  0
 22 45  1  0  0  0
 22 46  1  0  0  0
 23 24  1  0  0  0
 23 26  1  0  0  0
 23 47  1  0  0  0
 24 25  1  0  0  0
 24 48  1  0  0  0
 24 49  1  0  0  0
 25 50  1  0  0  0
 25 51  1  0  0  0
 26 27  1  0  0  0
 26 30  1  0  0  0
 27 28  1  0  0  0
 27 31  2  0  0  0
 28 29  1  0  0  0
 28 52  1  0  0  0
 28 53  1  0  0  0
 29 30  1  0  0  0
 29 54  1  0  0  0
 29 55  1  0  0  0
 30 56  1  0  0  0
 30 57  1  0  0  0
M  END
> <s_m_entry_id>
6906

> <s_m_entry_name>
dock_pv.336

> <s_m_Source_Path>
/home/csk/Desktop/cluster/DUD-E-result/lkha4

> <s_m_Source_File>
dock_pv.maegz

> <i_m_Source_File_Index>
336

> <chembl_id>
CHEMBL2207738

> <chembl_pref_name>
None

> <i_lp_mmshare_version>
53161

> <i_f3d_flags>
0

> <r_lp_tautomer_probability>
1

> <s_lp_Force_Field>
OPLS_2005

> <r_lp_Energy>
46.444901

> <b_lp_Chiralities_Consistent>
1

> <s_lp_Variant>
CHEMBL4618_lig408-1

> <s_i_glide_gridfile>
glide-grid_3chp

> <i_i_glide_lignum>
475

> <i_i_glide_rotatable_bonds>
7

> <r_i_docking_score>
-8.7109540173563

> <r_i_glide_ligand_efficiency>
-0.280998516688913

> <r_i_glide_ligand_efficiency_sa>
-0.882723302666811

> <r_i_glide_ligand_efficiency_ln>
-1.96458708959395

> <r_i_glide_gscore>
-8.7109540173563

> <r_i_glide_lipo>
-3.785303603525

> <r_i_glide_hbond>
-0.48

> <r_i_glide_metal>
0

> <r_i_glide_rewards>
-0.977354555225778

> <r_i_glide_evdw>
-41.8084831237793

> <r_i_glide_ecoul>
-13.6477003097534

> <r_i_glide_erotb>
0.726157095998874

> <r_i_glide_esite>
-0.0568737519524174

> <r_i_glide_emodel>
-79.7380663466966

> <r_i_glide_energy>
-55.4561834335327

> <r_i_glide_einternal>
8.50769519805908

> <i_i_glide_confnum>
1

> <i_i_glide_posenum>
22

> <r_i_glide_eff_state_penalty>
0

> <s_user_duplicate_titles>
CHEMBL4618_lig408

> <s_m_subgroup_title>
dock_pv

> <s_m_subgroupid>
dock_pv

> <b_m_subgroup_collapsed>
1

$$$$
CHEMBL4618_lig192
                    3D
 Schrodinger Suite 2021-1.
 48 49  0  0  1  0            999 V2000
    8.4793   40.2573   68.5037 C   0  0  0  0  0  0
    9.2553   39.5444   67.5915 C   0  0  0  0  0  0
   10.1208   40.2194   66.7400 C   0  0  0  0  0  0
   10.2005   41.6065   66.7813 C   0  0  0  0  0  0
    9.3507   42.3294   67.6313 C   0  0  0  0  0  0
    8.4858   41.6514   68.4892 C   0  0  0  0  0  0
   11.1802   42.2160   65.9802 N   0  0  0  0  0  0
   10.9911   43.3103   65.2243 C   0  0  0  0  0  0
    9.9006   43.8689   65.1400 O   0  0  0  0  0  0
   12.1498   43.8537   64.3684 C   0  0  0  0  0  0
   13.3483   42.9525   64.0214 C   0  0  0  0  0  0
   14.3517   42.6523   65.1521 C   0  0  1  0  0  0
   15.6329   42.0006   64.6149 C   0  0  0  0  0  0
   14.7762   43.8159   65.9400 N   0  0  0  0  0  0
   16.1745   42.6160   63.5399 O   0  0  0  0  0  0
   16.1210   41.0160   65.1400 O   0  0  0  0  0  0
    7.7272   39.5861   69.4350 O   0  0  0  0  0  0
    8.4940   38.8777   70.4196 C   0  0  0  0  0  0
    7.8624   37.5065   70.7576 C   0  0  2  0  0  0
    8.6803   36.6983   71.7834 C   0  0  0  0  0  0
    7.7210   36.8211   69.5249 O   0  0  0  0  0  0
    8.9210   35.3342   71.5935 C   0  0  0  0  0  0
    9.7210   34.6160   72.4756 C   0  0  0  0  0  0
   10.2436   35.2428   73.5996 C   0  0  0  0  0  0
    9.9789   36.5866   73.8341 C   0  0  0  0  0  0
    9.2022   37.3062   72.9279 C   0  0  0  0  0  0
    9.2218   38.4642   67.5804 H   0  0  0  0  0  0
   10.7358   39.6620   66.0492 H   0  0  0  0  0  0
    9.3806   43.4088   67.6532 H   0  0  0  0  0  0
    7.8521   42.2026   69.1689 H   0  0  0  0  0  0
   12.0362   41.7001   65.8524 H   0  0  0  0  0  0
   12.4834   44.8197   64.7400 H   0  0  0  0  0  0
   11.7210   44.0683   63.3998 H   0  0  0  0  0  0
   13.8570   43.4436   63.1905 H   0  0  0  0  0  0
   13.0022   42.0177   63.5864 H   0  0  0  0  0  0
   13.8976   41.9224   65.8236 H   0  0  0  0  0  0
   14.8264   44.6193   65.3296 H   0  0  0  0  0  0
   14.0692   44.0507   66.6253 H   0  0  0  0  0  0
   15.8887   43.5344   63.3981 H   0  0  0  0  0  0
    9.5331   38.7218   70.1171 H   0  0  0  0  0  0
    8.5211   39.5104   71.3056 H   0  0  0  0  0  0
    6.8638   37.6701   71.1657 H   0  0  0  0  0  0
    7.2863   35.9808   69.6939 H   0  0  0  0  0  0
    8.5210   34.8185   70.7400 H   0  0  0  0  0  0
    9.9168   33.5680   72.3003 H   0  0  0  0  0  0
   10.8470   34.6810   74.2983 H   0  0  0  0  0  0
   10.3715   37.0649   74.7192 H   0  0  0  0  0  0
    9.0034   38.3415   73.1381 H   0  0  0  0  0  0
  1  2  2  0  0  0
  1 17  1  0  0  0
  1  6  1  0  0  0
  2  3  1  0  0  0
  2 27  1  0  0  0
  3  4  2  0  0  0
  3 28  1  0  0  0
  4  7  1  0  0  0
  4  5  1  0  0  0
  5  6  2  0  0  0
  5 29  1  0  0  0
  6 30  1  0  0  0
  7  8  1  0  0  0
  7 31  1  0  0  0
  8  9  2  0  0  0
  8 10  1  0  0  0
 10 11  1  0  0  0
 10 32  1  0  0  0
 10 33  1  0  0  0
 11 12  1  0  0  0
 11 34  1  0  0  0
 11 35  1  0  0  0
 12 13  1  0  0  0
 12 14  1  0  0  0
 12 36  1  0  0  0
 13 15  1  0  0  0
 13 16  2  0  0  0
 14 37  1  0  0  0
 14 38  1  0  0  0
 15 39  1  0  0  0
 17 18  1  0  0  0
 18 19  1  0  0  0
 18 40  1  0  0  0
 18 41  1  0  0  0
 19 20  1  0  0  0
 19 21  1  0  0  0
 19 42  1  0  0  0
 20 22  2  0  0  0
 20 26  1  0  0  0
 21 43  1  0  0  0
 22 23  1  0  0  0
 22 44  1  0  0  0
 23 24  2  0  0  0
 23 45  1  0  0  0
 24 25  1  0  0  0
 24 46  1  0  0  0
 25 26  2  0  0  0
 25 47  1  0  0  0
 26 48  1  0  0  0
M  END
> <s_m_entry_id>
6907

> <s_m_entry_name>
dock_pv.337

> <s_m_Source_Path>
/home/csk/Desktop/cluster/DUD-E-result/lkha4

> <s_m_Source_File>
dock_pv.maegz

> <i_m_Source_File_Index>
337

> <chembl_id>
CHEMBL477514

> <chembl_pref_name>
None

> <i_lp_mmshare_version>
53161

> <i_f3d_flags>
0

> <r_lp_tautomer_probability>
1

> <s_lp_Force_Field>
OPLS_2005

> <r_lp_Energy>
20.580414

> <b_lp_Chiralities_Consistent>
1

> <s_lp_Variant>
CHEMBL4618_lig192-1

> <s_i_glide_gridfile>
glide-grid_3chp

> <i_i_glide_lignum>
219

> <i_i_glide_rotatable_bonds>
12

> <r_i_docking_score>
-8.68992716035103

> <r_i_glide_ligand_efficiency>
-0.334227967705809

> <r_i_glide_ligand_efficiency_sa>
-0.990149039204911

> <r_i_glide_ligand_efficiency_ln>
-2.04080087963172

> <r_i_glide_gscore>
-8.68992716035103

> <r_i_glide_lipo>
-4.77779158813462

> <r_i_glide_hbond>
-0.424561436613809

> <r_i_glide_metal>
0

> <r_i_glide_rewards>
0.362520994168338

> <r_i_glide_evdw>
-38.9230155944824

> <r_i_glide_ecoul>
-20.9743747711182

> <r_i_glide_erotb>
1.3422118656209

> <r_i_glide_esite>
-0.1

> <r_i_glide_emodel>
-82.1096181396492

> <r_i_glide_energy>
-59.8973903656006

> <r_i_glide_einternal>
21.5237674713135

> <i_i_glide_confnum>
43

> <i_i_glide_posenum>
187

> <r_i_glide_eff_state_penalty>
0

> <s_user_duplicate_titles>
CHEMBL4618_lig192,507017

> <s_m_subgroup_title>
dock_pv

> <s_m_subgroupid>
dock_pv

> <b_m_subgroup_collapsed>
1

$$$$
CHEMBL4618_lig100
                    3D
 Schrodinger Suite 2021-1.
 50 53  0  0  1  0            999 V2000
    8.4964   37.4907   70.6968 C   0  0  0  0  0  0
    8.5710   37.7275   71.9451 N   0  0  0  0  0  0
   16.9041   42.2724   65.5541 N   0  0  0  0  0  0
    8.4798   38.4727   69.5992 C   0  0  0  0  0  0
    8.4549   36.1733   70.3656 O   0  0  0  0  0  0
    8.7933   41.4884   66.7381 O   0  0  0  0  0  0
    8.4511   38.1260   68.2416 C   0  0  0  0  0  0
    8.5210   39.8167   69.9401 C   0  0  0  0  0  0
    8.5961   40.4710   67.6422 C   0  0  0  0  0  0
   10.0823   41.8361   66.3626 C   0  0  0  0  0  0
   12.6731   42.5689   65.5091 C   0  0  0  0  0  0
    8.5214   39.1238   67.2625 C   0  0  0  0  0  0
    8.5210   40.8147   68.9791 C   0  0  0  0  0  0
   10.3458   43.1374   65.9400 C   0  0  0  0  0  0
   11.1248   40.9112   66.3402 C   0  0  0  0  0  0
   12.4092   41.2680   65.9399 C   0  0  0  0  0  0
   11.6322   43.4979   65.5237 C   0  0  0  0  0  0
   13.9221   42.9844   65.0832 O   0  0  0  0  0  0
   16.2202   42.4108   64.2612 C   0  0  0  0  0  0
    8.5855   36.4659   72.6166 C   0  0  0  0  0  0
   14.6999   42.0979   64.2624 C   0  0  0  0  0  0
   16.4568   43.2868   66.5121 C   0  0  0  0  0  0
   18.3156   42.6422   65.4355 C   0  0  0  0  0  0
    8.5652   35.3958   71.5394 C   0  0  0  0  0  0
   17.5306   43.3322   67.5974 C   0  0  0  0  0  0
   18.8080   42.9793   66.8441 C   0  0  0  0  0  0
    8.4241   37.0884   67.9401 H   0  0  0  0  0  0
    8.5212   40.1139   70.9769 H   0  0  0  0  0  0
    8.5607   38.8533   66.2169 H   0  0  0  0  0  0
    8.5507   41.8547   69.2698 H   0  0  0  0  0  0
    9.5493   43.8675   65.9420 H   0  0  0  0  0  0
   10.9210   39.8873   66.6054 H   0  0  0  0  0  0
   13.1784   40.5124   65.9405 H   0  0  0  0  0  0
   11.8271   44.5094   65.2011 H   0  0  0  0  0  0
   16.3942   43.4160   63.9087 H   0  0  0  0  0  0
   16.7073   41.7753   63.5201 H   0  0  0  0  0  0
    9.4847   36.4028   73.2321 H   0  0  0  0  0  0
    7.7202   36.4020   73.2760 H   0  0  0  0  0  0
   14.3221   42.2161   63.2463 H   0  0  0  0  0  0
   14.5780   41.0446   64.5035 H   0  0  0  0  0  0
   15.4842   43.0160   66.9185 H   0  0  0  0  0  0
   16.3025   44.2615   66.0425 H   0  0  0  0  0  0
   18.4824   43.4707   64.7417 H   0  0  0  0  0  0
   18.8795   41.8160   65.0240 H   0  0  0  0  0  0
    7.7215   34.7149   71.6394 H   0  0  0  0  0  0
    9.4883   34.8154   71.5400 H   0  0  0  0  0  0
   17.3203   42.6169   68.3938 H   0  0  0  0  0  0
   17.5804   44.3187   68.0589 H   0  0  0  0  0  0
   19.5071   43.8158   66.8183 H   0  0  0  0  0  0
   19.3234   42.1335   67.3000 H   0  0  0  0  0  0
  1  2  2  0  0  0
  1  4  1  0  0  0
  1  5  1  0  0  0
  2 20  1  0  0  0
  3 19  1  0  0  0
  3 22  1  0  0  0
  3 23  1  0  0  0
  4  7  1  0  0  0
  4  8  2  0  0  0
  5 24  1  0  0  0
  6  9  1  0  0  0
  6 10  1  0  0  0
  7 12  2  0  0  0
  7 27  1  0  0  0
  8 13  1  0  0  0
  8 28  1  0  0  0
  9 13  2  0  0  0
  9 12  1  0  0  0
 10 14  1  0  0  0
 10 15  2  0  0  0
 11 16  2  0  0  0
 11 18  1  0  0  0
 11 17  1  0  0  0
 12 29  1  0  0  0
 13 30  1  0  0  0
 14 17  2  0  0  0
 14 31  1  0  0  0
 15 16  1  0  0  0
 15 32  1  0  0  0
 16 33  1  0  0  0
 17 34  1  0  0  0
 18 21  1  0  0  0
 19 21  1  0  0  0
 19 35  1  0  0  0
 19 36  1  0  0  0
 20 24  1  0  0  0
 20 37  1  0  0  0
 20 38  1  0  0  0
 21 39  1  0  0  0
 21 40  1  0  0  0
 22 25  1  0  0  0
 22 41  1  0  0  0
 22 42  1  0  0  0
 23 26  1  0  0  0
 23 43  1  0  0  0
 23 44  1  0  0  0
 24 45  1  0  0  0
 24 46  1  0  0  0
 25 26  1  0  0  0
 25 47  1  0  0  0
 25 48  1  0  0  0
 26 49  1  0  0  0
 26 50  1  0  0  0
M  END
> <s_m_entry_id>
6908

> <s_m_entry_name>
dock_pv.338

> <s_m_Source_Path>
/home/csk/Desktop/cluster/DUD-E-result/lkha4

> <s_m_Source_File>
dock_pv.maegz

> <i_m_Source_File_Index>
338

> <chembl_id>
CHEMBL162322

> <chembl_pref_name>
None

> <i_lp_mmshare_version>
53161

> <i_f3d_flags>
0

> <r_lp_tautomer_probability>
1

> <s_lp_Force_Field>
OPLS_2005

> <r_lp_Energy>
47.898698

> <b_lp_Chiralities_Consistent>
1

> <s_lp_Variant>
CHEMBL4618_lig100-1

> <s_i_glide_gridfile>
glide-grid_3chp

> <i_i_glide_lignum>
124

> <i_i_glide_rotatable_bonds>
7

> <r_i_docking_score>
-8.68888630755004

> <r_i_glide_ligand_efficiency>
-0.334187934905771

> <r_i_glide_ligand_efficiency_sa>
-0.99003044219232

> <r_i_glide_ligand_efficiency_ln>
-2.04055643876673

> <r_i_glide_gscore>
-8.68888630755004

> <r_i_glide_lipo>
-4.25608789249189

> <r_i_glide_hbond>
-0.32

> <r_i_glide_metal>
0

> <r_i_glide_rewards>
-1.47314987056559

> <r_i_glide_evdw>
-44.3983192443848

> <r_i_glide_ecoul>
-8.94444561004639

> <r_i_glide_erotb>
0.921934259233633

> <r_i_glide_esite>
0

> <r_i_glide_emodel>
-72.0040740480313

> <r_i_glide_energy>
-53.3427648544312

> <r_i_glide_einternal>
9.31321620941162

> <i_i_glide_confnum>
12

> <i_i_glide_posenum>
24

> <r_i_glide_eff_state_penalty>
0

> <s_user_duplicate_titles>
CHEMBL4618_lig100,271541

> <s_m_subgroup_title>
dock_pv

> <s_m_subgroupid>
dock_pv

> <b_m_subgroup_collapsed>
1

$$$$
CHEMBL4618_lig37
                    3D
 Schrodinger Suite 2021-1.
 56 58  0  0  1  0            999 V2000
   17.5494   43.8693   67.0855 C   0  0  1  0  0  0
   17.6789   45.0612   68.0636 C   0  0  0  0  0  0
   16.0060   42.5807   65.5400 N   0  0  1  0  0  0
   16.1495   43.7558   66.4163 C   0  0  0  0  0  0
   18.7307   45.6929   68.2122 O   0  0  0  0  0  0
   16.5210   45.3540   68.6841 O   0  0  0  0  0  0
    9.0312   41.2725   67.6800 C   0  0  0  0  0  0
    7.9968   40.8196   68.7191 C   0  0  0  0  0  0
   11.1509   42.1963   66.0701 C   0  0  0  0  0  0
   18.6696   43.8654   66.0286 C   0  0  0  0  0  0
    9.0993   42.6162   67.3001 C   0  0  0  0  0  0
    9.9570   40.3815   67.1402 C   0  0  0  0  0  0
   10.9948   40.8400   66.3401 C   0  0  0  0  0  0
   10.1448   43.0635   66.4855 C   0  0  0  0  0  0
    8.1225   39.3893   69.2622 C   0  0  0  0  0  0
   14.6861   42.6169   64.8694 C   0  0  0  0  0  0
   12.2567   42.6902   65.3974 O   0  0  0  0  0  0
   17.0751   42.5578   64.5285 C   0  0  0  0  0  0
   13.5355   42.1657   65.8003 C   0  0  0  0  0  0
   18.4882   42.6192   65.1592 C   0  0  0  0  0  0
   16.4525   46.2123   69.8118 C   0  0  0  0  0  0
    7.8000   38.3006   68.4526 C   0  0  0  0  0  0
    8.5210   39.1591   70.5830 C   0  0  0  0  0  0
   16.7396   45.4161   71.0953 C   0  0  0  0  0  0
    7.8832   37.0158   68.9721 C   0  0  0  0  0  0
    8.5434   37.8783   71.1186 C   0  0  0  0  0  0
    8.2116   36.8043   70.3065 C   0  0  0  0  0  0
   17.6938   42.9940   67.7191 H   0  0  0  0  0  0
   15.3453   43.8166   67.1443 H   0  0  0  0  0  0
   15.9962   44.6173   65.7771 H   0  0  0  0  0  0
    8.0602   41.5199   69.5516 H   0  0  0  0  0  0
    6.9861   40.9656   68.3399 H   0  0  0  0  0  0
   18.6344   44.7601   65.4035 H   0  0  0  0  0  0
   19.6563   43.8193   66.4936 H   0  0  0  0  0  0
    8.3736   43.3265   67.6727 H   0  0  0  0  0  0
    9.9209   39.3286   67.3645 H   0  0  0  0  0  0
   11.6907   40.1228   65.9398 H   0  0  0  0  0  0
   10.2114   44.1100   66.2350 H   0  0  0  0  0  0
   14.4764   43.6089   64.4636 H   0  0  0  0  0  0
   14.6895   41.9454   64.0071 H   0  0  0  0  0  0
   16.9212   43.4159   63.8747 H   0  0  0  0  0  0
   16.9848   41.6874   63.8805 H   0  0  0  0  0  0
   13.5533   41.0769   65.8054 H   0  0  0  0  0  0
   13.7169   42.4755   66.8283 H   0  0  0  0  0  0
   19.2532   42.6161   64.3835 H   0  0  0  0  0  0
   18.6772   41.7298   65.7552 H   0  0  0  0  0  0
   15.4429   46.6222   69.8610 H   0  0  0  0  0  0
   17.1328   47.0566   69.6998 H   0  0  0  0  0  0
    7.5204   38.4440   67.4192 H   0  0  0  0  0  0
    8.7503   39.9815   71.2303 H   0  0  0  0  0  0
   16.5257   46.0080   71.9856 H   0  0  0  0  0  0
   17.7819   45.1013   71.1415 H   0  0  0  0  0  0
   16.1213   44.5195   71.1459 H   0  0  0  0  0  0
    7.7210   36.1608   68.3399 H   0  0  0  0  0  0
    8.8169   37.7206   72.1521 H   0  0  0  0  0  0
    8.2461   35.7971   70.6986 H   0  0  0  0  0  0
  1  2  1  0  0  0
  1  4  1  0  0  0
  1 10  1  0  0  0
  1 28  1  0  0  0
  2  5  2  0  0  0
  2  6  1  0  0  0
  3  4  1  0  0  0
  3 16  1  0  0  0
  3 18  1  0  0  0
  4 29  1  0  0  0
  4 30  1  0  0  0
  6 21  1  0  0  0
  7 11  2  0  0  0
  7  8  1  0  0  0
  7 12  1  0  0  0
  8 15  1  0  0  0
  8 31  1  0  0  0
  8 32  1  0  0  0
  9 17  1  0  0  0
  9 13  1  0  0  0
  9 14  2  0  0  0
 10 20  1  0  0  0
 10 33  1  0  0  0
 10 34  1  0  0  0
 11 14  1  0  0  0
 11 35  1  0  0  0
 12 13  2  0  0  0
 12 36  1  0  0  0
 13 37  1  0  0  0
 14 38  1  0  0  0
 15 22  2  0  0  0
 15 23  1  0  0  0
 16 19  1  0  0  0
 16 39  1  0  0  0
 16 40  1  0  0  0
 17 19  1  0  0  0
 18 20  1  0  0  0
 18 41  1  0  0  0
 18 42  1  0  0  0
 19 43  1  0  0  0
 19 44  1  0  0  0
 20 45  1  0  0  0
 20 46  1  0  0  0
 21 24  1  0  0  0
 21 47  1  0  0  0
 21 48  1  0  0  0
 22 25  1  0  0  0
 22 49  1  0  0  0
 23 26  2  0  0  0
 23 50  1  0  0  0
 24 51  1  0  0  0
 24 52  1  0  0  0
 24 53  1  0  0  0
 25 27  2  0  0  0
 25 54  1  0  0  0
 26 27  1  0  0  0
 26 55  1  0  0  0
 27 56  1  0  0  0
M  END
> <s_m_entry_id>
6909

> <s_m_entry_name>
dock_pv.339

> <s_m_Source_Path>
/home/csk/Desktop/cluster/DUD-E-result/lkha4

> <s_m_Source_File>
dock_pv.maegz

> <i_m_Source_File_Index>
339

> <chembl_id>
CHEMBL113813

> <chembl_pref_name>
None

> <i_lp_mmshare_version>
53161

> <i_f3d_flags>
0

> <r_lp_tautomer_probability>
1

> <s_lp_Force_Field>
OPLS_2005

> <r_lp_Energy>
24.686788

> <b_lp_Chiralities_Consistent>
1

> <s_lp_Variant>
CHEMBL4618_lig37-2

> <s_i_glide_gridfile>
glide-grid_3chp

> <i_i_glide_lignum>
51

> <i_i_glide_rotatable_bonds>
9

> <r_i_docking_score>
-8.670857621556

> <r_i_glide_ligand_efficiency>
-0.321142874872445

> <r_i_glide_ligand_efficiency_sa>
-0.963428623558899

> <r_i_glide_ligand_efficiency_ln>
-2.01843270403818

> <r_i_glide_gscore>
-8.670857621556

> <r_i_glide_lipo>
-4.47947327257355

> <r_i_glide_hbond>
-0.391307957318618

> <r_i_glide_metal>
0

> <r_i_glide_rewards>
-1.29950660477208

> <r_i_glide_evdw>
-44.9271697998047

> <r_i_glide_ecoul>
-9.22784900665283

> <r_i_glide_erotb>
1.1409238759477

> <r_i_glide_esite>
-0.0109578218512993

> <r_i_glide_emodel>
-73.9329993965695

> <r_i_glide_energy>
-54.1550188064575

> <r_i_glide_einternal>
11.8160285949707

> <i_i_glide_confnum>
20

> <i_i_glide_posenum>
205

> <r_i_glide_eff_state_penalty>
0

> <s_user_duplicate_titles>
CHEMBL4618_lig37

> <s_m_subgroup_title>
dock_pv

> <s_m_subgroupid>
dock_pv

> <b_m_subgroup_collapsed>
1

$$$$
CHEMBL4618_lig340
                    3D
 Schrodinger Suite 2021-1.
 43 45  0  0  1  0            999 V2000
   10.1990   43.4914   65.5975 C   0  0  0  0  0  0
    8.9210   42.8984   65.9400 N   0  0  1  0  0  0
   11.1733   43.0160   66.6687 C   0  0  0  0  0  0
   10.2837   42.5467   67.8215 C   0  0  0  0  0  0
    8.8507   42.8439   67.3797 C   0  0  2  0  0  0
    7.8026   41.8655   67.9400 C   0  0  0  0  0  0
    8.1224   40.5370   67.5049 O   0  0  0  0  0  0
    8.1724   39.4983   68.4079 C   0  0  0  0  0  0
    8.5210   39.6642   69.7444 C   0  0  0  0  0  0
    8.5296   38.6006   70.6279 C   0  0  0  0  0  0
    8.1910   37.3276   70.1745 C   0  0  0  0  0  0
    7.9169   37.1373   68.8210 C   0  0  0  0  0  0
    7.9066   38.2160   67.9403 C   0  0  0  0  0  0
    8.1212   36.2160   71.0229 N   0  0  0  0  0  0
    8.1965   36.3213   72.4809 C   0  0  0  0  0  0
    9.4298   35.6494   73.0813 C   0  0  0  0  0  0
    9.9308   36.1213   74.2991 C   0  0  0  0  0  0
   10.9209   35.4106   74.9739 C   0  0  0  0  0  0
   11.3956   34.2160   74.4370 C   0  0  0  0  0  0
   10.9208   33.7472   73.2168 C   0  0  0  0  0  0
    9.9475   34.4687   72.5334 C   0  0  0  0  0  0
   10.5170   43.1366   64.6167 H   0  0  0  0  0  0
   10.1380   44.5768   65.5400 H   0  0  0  0  0  0
    8.1327   43.4160   65.5557 H   0  0  0  0  0  0
   11.7803   42.1906   66.2935 H   0  0  0  0  0  0
   11.8557   43.8128   66.9596 H   0  0  0  0  0  0
   10.4379   41.4832   67.9986 H   0  0  0  0  0  0
   10.5210   43.1164   68.7185 H   0  0  0  0  0  0
    8.5374   43.8158   67.7639 H   0  0  0  0  0  0
    7.7040   41.9968   69.0164 H   0  0  0  0  0  0
    6.8202   42.1165   67.5400 H   0  0  0  0  0  0
    8.8046   40.6160   70.1208 H   0  0  0  0  0  0
    8.8040   38.8007   71.6498 H   0  0  0  0  0  0
    7.7210   36.1478   68.4428 H   0  0  0  0  0  0
    7.6792   38.0699   66.8956 H   0  0  0  0  0  0
    7.7544   35.3489   70.6402 H   0  0  0  0  0  0
    8.1142   37.3419   72.8478 H   0  0  0  0  0  0
    7.3210   35.8160   72.8775 H   0  0  0  0  0  0
    9.5244   37.0160   74.7479 H   0  0  0  0  0  0
   11.2886   35.7593   75.9286 H   0  0  0  0  0  0
   12.1290   33.6393   74.9802 H   0  0  0  0  0  0
   11.2885   32.8148   72.8131 H   0  0  0  0  0  0
    9.5471   34.0681   71.6138 H   0  0  0  0  0  0
  1  2  1  0  0  0
  1  3  1  0  0  0
  1 22  1  0  0  0
  1 23  1  0  0  0
  2  5  1  0  0  0
  2 24  1  0  0  0
  3  4  1  0  0  0
  3 25  1  0  0  0
  3 26  1  0  0  0
  4  5  1  0  0  0
  4 27  1  0  0  0
  4 28  1  0  0  0
  5  6  1  0  0  0
  5 29  1  0  0  0
  6  7  1  0  0  0
  6 30  1  0  0  0
  6 31  1  0  0  0
  7  8  1  0  0  0
  8  9  2  0  0  0
  8 13  1  0  0  0
  9 10  1  0  0  0
  9 32  1  0  0  0
 10 11  2  0  0  0
 10 33  1  0  0  0
 11 14  1  0  0  0
 11 12  1  0  0  0
 12 13  2  0  0  0
 12 34  1  0  0  0
 13 35  1  0  0  0
 14 15  1  0  0  0
 14 36  1  0  0  0
 15 16  1  0  0  0
 15 37  1  0  0  0
 15 38  1  0  0  0
 16 21  2  0  0  0
 16 17  1  0  0  0
 17 18  2  0  0  0
 17 39  1  0  0  0
 18 19  1  0  0  0
 18 40  1  0  0  0
 19 20  2  0  0  0
 19 41  1  0  0  0
 20 21  1  0  0  0
 20 42  1  0  0  0
 21 43  1  0  0  0
M  END
> <s_m_entry_id>
6910

> <s_m_entry_name>
dock_pv.340

> <s_m_Source_Path>
/home/csk/Desktop/cluster/DUD-E-result/lkha4

> <s_m_Source_File>
dock_pv.maegz

> <i_m_Source_File_Index>
340

> <chembl_id>
CHEMBL570775

> <chembl_pref_name>
None

> <i_lp_mmshare_version>
53161

> <i_f3d_flags>
0

> <r_lp_tautomer_probability>
1

> <s_lp_Force_Field>
OPLS_2005

> <r_lp_Energy>
36.614338

> <b_lp_Chiralities_Consistent>
1

> <s_lp_Variant>
CHEMBL4618_lig340-1

> <s_i_glide_gridfile>
glide-grid_3chp

> <i_i_glide_lignum>
384

> <i_i_glide_rotatable_bonds>
6

> <r_i_docking_score>
-8.65609502835622

> <r_i_glide_ligand_efficiency>
-0.412195001350296

> <r_i_glide_ligand_efficiency_sa>
-1.13721475345469

> <r_i_glide_ligand_efficiency_ln>
-2.14020200447412

> <r_i_glide_gscore>
-8.65609502835622

> <r_i_glide_lipo>
-5.16422377277508

> <r_i_glide_hbond>
-0.608

> <r_i_glide_metal>
0

> <r_i_glide_rewards>
-2.92299244744151

> <r_i_glide_evdw>
-33.8395347595215

> <r_i_glide_ecoul>
-6.61144208908081

> <r_i_glide_erotb>
2.72281424319856

> <r_i_glide_esite>
0

> <r_i_glide_emodel>
-60.6769666068148

> <r_i_glide_energy>
-40.4509768486023

> <r_i_glide_einternal>
7.33736944198608

> <i_i_glide_confnum>
58

> <i_i_glide_posenum>
343

> <r_i_glide_eff_state_penalty>
0

> <s_user_duplicate_titles>
CHEMBL4618_lig340

> <s_m_subgroup_title>
dock_pv

> <s_m_subgroupid>
dock_pv

> <b_m_subgroup_collapsed>
1

$$$$
CHEMBL4618_lig371
                    3D
 Schrodinger Suite 2021-1.
 56 59  0  0  1  0            999 V2000
   16.4716   43.1118   65.9672 C   0  0  0  0  0  0
   16.9624   42.2991   64.9511 C   0  0  0  0  0  0
   16.1216   41.8460   63.9399 C   0  0  0  0  0  0
   14.7781   42.2134   63.9475 C   0  0  0  0  0  0
   14.2772   43.0270   64.9595 C   0  0  0  0  0  0
   15.1244   43.4688   65.9760 C   0  0  0  0  0  0
   12.8636   43.5792   64.8319 C   0  0  0  0  0  0
   11.7256   42.8898   65.5753 C   0  0  0  0  0  0
   10.4814   43.5198   65.5881 C   0  0  0  0  0  0
    9.3980   42.9554   66.2453 C   0  0  0  0  0  0
    9.5465   41.7360   66.8856 C   0  0  0  0  0  0
   10.7846   41.0930   66.8740 C   0  0  0  0  0  0
   11.8778   41.6670   66.2298 C   0  0  0  0  0  0
    8.4407   41.1785   67.4762 O   0  0  0  0  0  0
    8.5190   40.9087   68.8745 C   0  0  0  0  0  0
    8.7062   39.3960   69.1331 C   0  0  1  0  0  0
    8.6633   39.0261   70.6506 C   0  0  0  0  0  0
    8.7877   37.5768   70.9095 N   0  0  2  0  0  0
    7.7271   36.9064   70.1386 C   0  0  0  0  0  0
    7.9332   37.2069   68.6364 C   0  0  0  0  0  0
    7.7209   38.6168   68.3832 N   0  0  2  0  0  0
    8.7004   37.2879   72.3556 C   0  0  0  0  0  0
    9.5711   36.1197   72.8526 C   0  0  0  0  0  0
    9.7219   34.9368   72.1196 C   0  0  0  0  0  0
   10.4733   33.8765   72.6290 C   0  0  0  0  0  0
   11.0481   33.9798   73.8931 C   0  0  0  0  0  0
   10.8722   35.1290   74.6549 C   0  0  0  0  0  0
   10.1180   36.1823   74.1419 C   0  0  0  0  0  0
   17.1362   43.4840   66.7327 H   0  0  0  0  0  0
   18.0203   42.0758   64.9123 H   0  0  0  0  0  0
   16.5139   41.2991   63.0941 H   0  0  0  0  0  0
   14.1254   41.9155   63.1412 H   0  0  0  0  0  0
   14.7492   44.1295   66.7432 H   0  0  0  0  0  0
   12.8882   44.6165   65.1455 H   0  0  0  0  0  0
   12.5924   43.6161   63.7748 H   0  0  0  0  0  0
   10.3582   44.4888   65.1400 H   0  0  0  0  0  0
    8.4459   43.4649   66.2713 H   0  0  0  0  0  0
   10.9003   40.1504   67.3700 H   0  0  0  0  0  0
   12.8260   41.1507   66.2324 H   0  0  0  0  0  0
    9.2805   41.5200   69.3547 H   0  0  0  0  0  0
    7.5722   41.2323   69.3080 H   0  0  0  0  0  0
    9.6891   39.1158   68.7559 H   0  0  0  0  0  0
    9.5074   39.5046   71.1399 H   0  0  0  0  0  0
    7.7470   39.3990   71.0950 H   0  0  0  0  0  0
    7.7207   35.8300   70.2941 H   0  0  0  0  0  0
    6.7444   37.2641   70.4536 H   0  0  0  0  0  0
    8.9316   36.9760   68.3123 H   0  0  0  0  0  0
    7.3210   36.6157   67.9720 H   0  0  0  0  0  0
    7.8441   38.8162   67.3985 H   0  0  0  0  0  0
    8.9975   38.1662   72.9303 H   0  0  0  0  0  0
    7.6655   37.0959   72.6482 H   0  0  0  0  0  0
    9.2796   34.8350   71.1418 H   0  0  0  0  0  0
   10.5989   32.9721   72.0527 H   0  0  0  0  0  0
   11.6187   33.1514   74.2915 H   0  0  0  0  0  0
   11.2917   35.1913   75.6490 H   0  0  0  0  0  0
    9.9594   37.0413   74.7680 H   0  0  0  0  0  0
  1  2  2  0  0  0
  1  6  1  0  0  0
  1 29  1  0  0  0
  2  3  1  0  0  0
  2 30  1  0  0  0
  3  4  2  0  0  0
  3 31  1  0  0  0
  4  5  1  0  0  0
  4 32  1  0  0  0
  5  7  1  0  0  0
  5  6  2  0  0  0
  6 33  1  0  0  0
  7  8  1  0  0  0
  7 34  1  0  0  0
  7 35  1  0  0  0
  8  9  2  0  0  0
  8 13  1  0  0  0
  9 10  1  0  0  0
  9 36  1  0  0  0
 10 11  2  0  0  0
 10 37  1  0  0  0
 11 14  1  0  0  0
 11 12  1  0  0  0
 12 13  2  0  0  0
 12 38  1  0  0  0
 13 39  1  0  0  0
 14 15  1  0  0  0
 15 16  1  0  0  0
 15 40  1  0  0  0
 15 41  1  0  0  0
 16 17  1  0  0  0
 16 21  1  0  0  0
 16 42  1  0  0  0
 17 18  1  0  0  0
 17 43  1  0  0  0
 17 44  1  0  0  0
 18 19  1  0  0  0
 18 22  1  0  0  0
 19 20  1  0  0  0
 19 45  1  0  0  0
 19 46  1  0  0  0
 20 21  1  0  0  0
 20 47  1  0  0  0
 20 48  1  0  0  0
 21 49  1  0  0  0
 22 23  1  0  0  0
 22 50  1  0  0  0
 22 51  1  0  0  0
 23 24  2  0  0  0
 23 28  1  0  0  0
 24 25  1  0  0  0
 24 52  1  0  0  0
 25 26  2  0  0  0
 25 53  1  0  0  0
 26 27  1  0  0  0
 26 54  1  0  0  0
 27 28  2  0  0  0
 27 55  1  0  0  0
 28 56  1  0  0  0
M  END
> <s_m_entry_id>
6911

> <s_m_entry_name>
dock_pv.341

> <s_m_Source_Path>
/home/csk/Desktop/cluster/DUD-E-result/lkha4

> <s_m_Source_File>
dock_pv.maegz

> <i_m_Source_File_Index>
341

> <chembl_id>
CHEMBL1098819

> <chembl_pref_name>
None

> <i_lp_mmshare_version>
53161

> <i_f3d_flags>
0

> <r_lp_tautomer_probability>
1

> <s_lp_Force_Field>
OPLS_2005

> <r_lp_Energy>
41.049811

> <b_lp_Chiralities_Consistent>
1

> <s_lp_Variant>
CHEMBL4618_lig371-2

> <s_i_glide_gridfile>
glide-grid_3chp

> <i_i_glide_lignum>
418

> <i_i_glide_rotatable_bonds>
7

> <r_i_docking_score>
-8.65596380449134

> <r_i_glide_ligand_efficiency>
-0.309141564446119

> <r_i_glide_ligand_efficiency_sa>
-0.938735864302789

> <r_i_glide_ligand_efficiency_ln>
-1.99805059621741

> <r_i_glide_gscore>
-8.65596380449134

> <r_i_glide_lipo>
-5.83970933445915

> <r_i_glide_hbond>
0

> <r_i_glide_metal>
0

> <r_i_glide_rewards>
-0.609738140684908

> <r_i_glide_evdw>
-52.5524101257324

> <r_i_glide_ecoul>
-3.68853855133057

> <r_i_glide_erotb>
0.974384959638929

> <r_i_glide_esite>
0

> <r_i_glide_emodel>
-70.9211332642608

> <r_i_glide_energy>
-56.240948677063

> <r_i_glide_einternal>
9.83573150634766

> <i_i_glide_confnum>
23

> <i_i_glide_posenum>
392

> <r_i_glide_eff_state_penalty>
0

> <s_user_duplicate_titles>
CHEMBL4618_lig371,627630

> <s_m_subgroup_title>
dock_pv

> <s_m_subgroupid>
dock_pv

> <b_m_subgroup_collapsed>
1

$$$$
CHEMBL4618_lig360
                    3D
 Schrodinger Suite 2021-1.
 44 46  0  0  1  0            999 V2000
    8.9082   35.4259   71.5404 C   0  0  0  0  0  0
    9.6001   36.0303   72.5875 C   0  0  0  0  0  0
    9.5798   37.4154   72.7314 C   0  0  0  0  0  0
    8.8532   38.1952   71.8294 C   0  0  0  0  0  0
    8.1755   37.5948   70.7742 C   0  0  0  0  0  0
    8.2054   36.2161   70.6327 C   0  0  0  0  0  0
    7.3211   38.4179   69.8280 C   0  0  0  0  0  0
    8.0716   39.3187   68.8615 C   0  0  0  0  0  0
    8.6316   38.7875   67.7019 C   0  0  0  0  0  0
    9.3198   39.6220   66.8249 C   0  0  0  0  0  0
    9.4548   40.9805   67.1086 C   0  0  0  0  0  0
    8.8077   41.5242   68.2177 C   0  0  0  0  0  0
    8.1230   40.6938   69.0877 C   0  0  0  0  0  0
   10.2308   41.7339   66.2628 O   0  0  0  0  0  0
   10.9157   42.8500   66.8278 C   0  0  0  0  0  0
   12.2219   43.0912   66.0562 C   0  0  2  0  0  0
   11.9224   43.7015   64.6767 C   0  0  0  0  0  0
   13.2013   43.9655   63.8842 C   0  0  0  0  0  0
   13.9854   42.6556   63.7605 C   0  0  0  0  0  0
   14.2637   42.0419   65.1397 C   0  0  0  0  0  0
   13.0491   41.8850   65.9400 N   0  0  2  0  0  0
   10.4964   35.0585   73.6983 Cl  0  0  0  0  0  0
    8.9167   34.3505   71.4310 H   0  0  0  0  0  0
   10.1212   37.8803   73.5401 H   0  0  0  0  0  0
    8.7917   39.2653   71.9398 H   0  0  0  0  0  0
    7.6706   35.7773   69.8084 H   0  0  0  0  0  0
    6.6747   37.7612   69.2450 H   0  0  0  0  0  0
    6.6598   39.0155   70.4461 H   0  0  0  0  0  0
    8.5619   37.7295   67.4947 H   0  0  0  0  0  0
    9.7786   39.2043   65.9412 H   0  0  0  0  0  0
    8.8466   42.5818   68.4253 H   0  0  0  0  0  0
    7.6602   41.1467   69.9398 H   0  0  0  0  0  0
   10.2698   43.7285   66.7834 H   0  0  0  0  0  0
   11.1670   42.6848   67.8771 H   0  0  0  0  0  0
   12.8124   43.8067   66.6312 H   0  0  0  0  0  0
   11.2837   43.0258   64.1048 H   0  0  0  0  0  0
   11.3560   44.6154   64.8068 H   0  0  0  0  0  0
   12.9759   44.3765   62.9035 H   0  0  0  0  0  0
   13.7932   44.7199   64.3995 H   0  0  0  0  0  0
   13.4494   41.9376   63.1400 H   0  0  0  0  0  0
   14.9245   42.8314   63.2384 H   0  0  0  0  0  0
   14.7279   41.0615   65.0267 H   0  0  0  0  0  0
   14.9604   42.6736   65.6934 H   0  0  0  0  0  0
   12.4594   41.1490   65.5693 H   0  0  0  0  0  0
  1  6  1  0  0  0
  1  2  2  0  0  0
  1 23  1  0  0  0
  2  3  1  0  0  0
  2 22  1  0  0  0
  3  4  2  0  0  0
  3 24  1  0  0  0
  4  5  1  0  0  0
  4 25  1  0  0  0
  5  6  2  0  0  0
  5  7  1  0  0  0
  6 26  1  0  0  0
  7  8  1  0  0  0
  7 27  1  0  0  0
  7 28  1  0  0  0
  8 13  1  0  0  0
  8  9  2  0  0  0
  9 10  1  0  0  0
  9 29  1  0  0  0
 10 11  2  0  0  0
 10 30  1  0  0  0
 11 12  1  0  0  0
 11 14  1  0  0  0
 12 13  2  0  0  0
 12 31  1  0  0  0
 13 32  1  0  0  0
 14 15  1  0  0  0
 15 16  1  0  0  0
 15 33  1  0  0  0
 15 34  1  0  0  0
 16 17  1  0  0  0
 16 21  1  0  0  0
 16 35  1  0  0  0
 17 18  1  0  0  0
 17 36  1  0  0  0
 17 37  1  0  0  0
 18 19  1  0  0  0
 18 38  1  0  0  0
 18 39  1  0  0  0
 19 20  1  0  0  0
 19 40  1  0  0  0
 19 41  1  0  0  0
 20 21  1  0  0  0
 20 42  1  0  0  0
 20 43  1  0  0  0
 21 44  1  0  0  0
M  END
> <s_m_entry_id>
6912

> <s_m_entry_name>
dock_pv.342

> <s_m_Source_Path>
/home/csk/Desktop/cluster/DUD-E-result/lkha4

> <s_m_Source_File>
dock_pv.maegz

> <i_m_Source_File_Index>
342

> <chembl_id>
CHEMBL1098169

> <chembl_pref_name>
None

> <i_lp_mmshare_version>
53161

> <i_f3d_flags>
0

> <r_lp_tautomer_probability>
1

> <s_lp_Force_Field>
OPLS_2005

> <r_lp_Energy>
26.013149

> <b_lp_Chiralities_Consistent>
1

> <s_lp_Variant>
CHEMBL4618_lig360-1

> <s_i_glide_gridfile>
glide-grid_3chp

> <i_i_glide_lignum>
406

> <i_i_glide_rotatable_bonds>
5

> <r_i_docking_score>
-8.65451224677081

> <r_i_glide_ligand_efficiency>
-0.393386920307764

> <r_i_glide_ligand_efficiency_sa>
-1.10228562173201

> <r_i_glide_ligand_efficiency_ln>
-2.11547847411517

> <r_i_glide_gscore>
-8.65451224677081

> <r_i_glide_lipo>
-5.19459767353315

> <r_i_glide_hbond>
0

> <r_i_glide_metal>
0

> <r_i_glide_rewards>
-2.01129894883044

> <r_i_glide_evdw>
-40.7375221252441

> <r_i_glide_ecoul>
-2.29638528823853

> <r_i_glide_erotb>
0.932718275090754

> <r_i_glide_esite>
0

> <r_i_glide_emodel>
-58.4734631178655

> <r_i_glide_energy>
-43.0339074134827

> <r_i_glide_einternal>
6.36334180831909

> <i_i_glide_confnum>
165

> <i_i_glide_posenum>
253

> <r_i_glide_eff_state_penalty>
0

> <s_user_duplicate_titles>
CHEMBL4618_lig360,627477

> <s_m_subgroup_title>
dock_pv

> <s_m_subgroupid>
dock_pv

> <b_m_subgroup_collapsed>
1

$$$$
CHEMBL4618_lig345
                    3D
 Schrodinger Suite 2021-1.
 37 39  0  0  1  0            999 V2000
   10.1214   35.8666   74.8783 C   0  0  0  0  0  0
   10.9422   34.7545   74.7203 C   0  0  0  0  0  0
   10.9216   34.0173   73.5397 C   0  0  0  0  0  0
   10.0988   34.4139   72.4901 C   0  0  0  0  0  0
    9.2466   35.5052   72.6523 C   0  0  0  0  0  0
    9.2482   36.2169   73.8559 C   0  0  0  0  0  0
    8.2905   35.7443   71.6880 O   0  0  0  0  0  0
    8.3146   36.8729   70.9017 C   0  0  0  0  0  0
    8.5433   38.1511   71.4079 C   0  0  0  0  0  0
    8.5486   39.2366   70.5505 C   0  0  0  0  0  0
    8.3587   39.0860   69.1856 C   0  0  0  0  0  0
    8.0818   37.8172   68.6789 C   0  0  0  0  0  0
    8.0373   36.7265   69.5416 C   0  0  0  0  0  0
    8.4801   40.1954   68.3741 N   0  0  0  0  0  0
    7.7241   41.4413   68.5625 C   0  0  0  0  0  0
    8.5241   42.7034   68.1894 C   0  0  0  0  0  0
    9.1304   42.6127   66.8648 N   0  0  0  0  0  0
    9.9337   41.4043   66.7382 C   0  0  0  0  0  0
    9.1088   40.1386   67.0596 C   0  0  0  0  0  0
   10.1255   36.4175   75.8081 H   0  0  0  0  0  0
   11.5869   34.4467   75.5313 H   0  0  0  0  0  0
   11.5444   33.1413   73.4419 H   0  0  0  0  0  0
   10.0605   33.8297   71.5830 H   0  0  0  0  0  0
    8.5438   37.0141   74.0255 H   0  0  0  0  0  0
    8.7161   38.3402   72.4532 H   0  0  0  0  0  0
    8.7209   40.2155   70.9530 H   0  0  0  0  0  0
    7.9031   37.6748   67.6239 H   0  0  0  0  0  0
    7.7885   35.7619   69.1434 H   0  0  0  0  0  0
    7.3514   41.5261   69.5785 H   0  0  0  0  0  0
    6.8280   41.4156   67.9418 H   0  0  0  0  0  0
    7.8561   43.5672   68.2057 H   0  0  0  0  0  0
    9.3028   42.8741   68.9362 H   0  0  0  0  0  0
    8.4536   42.7386   66.1228 H   0  0  0  0  0  0
   10.3146   41.3421   65.7193 H   0  0  0  0  0  0
   10.7914   41.4673   67.4090 H   0  0  0  0  0  0
    8.3082   40.0085   66.3400 H   0  0  0  0  0  0
    9.7316   39.2504   66.9711 H   0  0  0  0  0  0
  1  6  1  0  0  0
  1  2  2  0  0  0
  1 20  1  0  0  0
  2  3  1  0  0  0
  2 21  1  0  0  0
  3  4  2  0  0  0
  3 22  1  0  0  0
  4  5  1  0  0  0
  4 23  1  0  0  0
  5  6  2  0  0  0
  5  7  1  0  0  0
  6 24  1  0  0  0
  7  8  1  0  0  0
  8 13  1  0  0  0
  8  9  2  0  0  0
  9 10  1  0  0  0
  9 25  1  0  0  0
 10 11  2  0  0  0
 10 26  1  0  0  0
 11 12  1  0  0  0
 11 14  1  0  0  0
 12 13  2  0  0  0
 12 27  1  0  0  0
 13 28  1  0  0  0
 14 15  1  0  0  0
 14 19  1  0  0  0
 15 16  1  0  0  0
 15 29  1  0  0  0
 15 30  1  0  0  0
 16 17  1  0  0  0
 16 31  1  0  0  0
 16 32  1  0  0  0
 17 18  1  0  0  0
 17 33  1  0  0  0
 18 19  1  0  0  0
 18 34  1  0  0  0
 18 35  1  0  0  0
 19 36  1  0  0  0
 19 37  1  0  0  0
M  END
> <s_m_entry_id>
6913

> <s_m_entry_name>
dock_pv.343

> <s_m_Source_Path>
/home/csk/Desktop/cluster/DUD-E-result/lkha4

> <s_m_Source_File>
dock_pv.maegz

> <i_m_Source_File_Index>
343

> <chembl_id>
CHEMBL576512

> <chembl_pref_name>
None

> <i_lp_mmshare_version>
53161

> <i_f3d_flags>
0

> <r_lp_tautomer_probability>
1

> <s_lp_Force_Field>
OPLS_2005

> <r_lp_Energy>
40.03854

> <b_lp_Chiralities_Consistent>
1

> <s_lp_Variant>
CHEMBL4618_lig345-1

> <s_i_glide_gridfile>
glide-grid_3chp

> <i_i_glide_lignum>
389

> <i_i_glide_rotatable_bonds>
3

> <r_i_docking_score>
-8.65217053189135

> <r_i_glide_ligand_efficiency>
-0.455377396415334

> <r_i_glide_ligand_efficiency_sa>
-1.21512979419276

> <r_i_glide_ligand_efficiency_ln>
-2.19351106141837

> <r_i_glide_gscore>
-8.65217053189135

> <r_i_glide_lipo>
-4.77589424236241

> <r_i_glide_hbond>
0

> <r_i_glide_metal>
0

> <r_i_glide_rewards>
-2.45837706060606

> <r_i_glide_evdw>
-39.8860969543457

> <r_i_glide_ecoul>
-1.59479999542236

> <r_i_glide_erotb>
0.815625618107755

> <r_i_glide_esite>
0

> <r_i_glide_emodel>
-58.3353562526656

> <r_i_glide_energy>
-41.4808969497681

> <r_i_glide_einternal>
3.53283357620239

> <i_i_glide_confnum>
64

> <i_i_glide_posenum>
151

> <r_i_glide_eff_state_penalty>
0

> <s_user_duplicate_titles>
CHEMBL4618_lig345,583380

> <s_m_subgroup_title>
dock_pv

> <s_m_subgroupid>
dock_pv

> <b_m_subgroup_collapsed>
1

$$$$
CHEMBL4618_lig153
                    3D
 Schrodinger Suite 2021-1.
 49 50  0  0  1  0            999 V2000
   15.6780   42.3135   64.8187 C   0  0  0  0  0  0
   16.5218   41.4160   64.8102 O   0  0  0  0  0  0
    8.0773   39.3057   68.8604 C   0  0  0  0  0  0
    7.3210   38.4193   69.8319 C   0  0  0  0  0  0
    9.5250   40.9143   67.0990 C   0  0  0  0  0  0
   13.1452   42.2157   64.7680 N   0  0  2  0  0  0
   15.7619   43.4598   65.5398 O   0  0  0  0  0  0
    8.1790   40.6786   69.0865 C   0  0  0  0  0  0
    8.6091   38.7545   67.6990 C   0  0  0  0  0  0
    9.3210   39.5630   66.8219 C   0  0  0  0  0  0
    8.9097   41.4806   68.2212 C   0  0  0  0  0  0
    8.1682   37.5971   70.7836 C   0  0  0  0  0  0
   11.1952   43.6187   65.1738 C   0  0  0  0  0  0
   14.3915   42.1605   64.0030 C   0  0  0  0  0  0
   10.3444   41.6094   66.2324 O   0  0  0  0  0  0
   12.7305   43.5531   65.1528 C   0  0  0  0  0  0
   10.4904   43.0141   66.3961 C   0  0  0  0  0  0
   16.8830   43.7503   66.3732 C   0  0  0  0  0  0
    8.8620   38.1997   71.8271 C   0  0  0  0  0  0
    8.1684   36.2161   70.6651 C   0  0  0  0  0  0
   18.1921   43.9575   65.5892 C   0  0  0  0  0  0
    9.5775   37.4162   72.7330 C   0  0  0  0  0  0
    8.8494   35.4236   71.5883 C   0  0  0  0  0  0
    9.5599   36.0301   72.6184 C   0  0  0  0  0  0
    6.6616   39.0160   70.4502 H   0  0  0  0  0  0
    6.6692   37.7618   69.2545 H   0  0  0  0  0  0
   13.1751   41.6083   65.5772 H   0  0  0  0  0  0
    7.7210   41.1409   69.9400 H   0  0  0  0  0  0
    8.5043   37.6997   67.4902 H   0  0  0  0  0  0
    9.7623   39.1229   65.9405 H   0  0  0  0  0  0
    9.0072   42.5293   68.4556 H   0  0  0  0  0  0
   10.9212   44.6602   65.1403 H   0  0  0  0  0  0
   10.7810   43.1984   64.2595 H   0  0  0  0  0  0
   14.3830   42.8836   63.1858 H   0  0  0  0  0  0
   14.4247   41.1750   63.5401 H   0  0  0  0  0  0
   13.1540   43.8151   66.1233 H   0  0  0  0  0  0
   13.1050   44.2894   64.4384 H   0  0  0  0  0  0
   11.0321   43.2455   67.3148 H   0  0  0  0  0  0
    9.5030   43.4752   66.4693 H   0  0  0  0  0  0
   17.0077   42.9719   67.1267 H   0  0  0  0  0  0
   16.6468   44.6652   66.9170 H   0  0  0  0  0  0
    8.8101   39.2705   71.9372 H   0  0  0  0  0  0
    7.6151   35.7823   69.8521 H   0  0  0  0  0  0
   18.9666   44.3896   66.2218 H   0  0  0  0  0  0
   18.0431   44.6159   64.7368 H   0  0  0  0  0  0
   18.5804   43.0170   65.1968 H   0  0  0  0  0  0
   10.1221   37.8798   73.5397 H   0  0  0  0  0  0
    8.8209   34.3460   71.5177 H   0  0  0  0  0  0
   10.0922   35.4229   73.3362 H   0  0  0  0  0  0
  1  2  2  0  0  0
  1  7  1  0  0  0
  1 14  1  0  0  0
  3  8  2  0  0  0
  3  4  1  0  0  0
  3  9  1  0  0  0
  4 12  1  0  0  0
  4 25  1  0  0  0
  4 26  1  0  0  0
  5 15  1  0  0  0
  5 10  1  0  0  0
  5 11  2  0  0  0
  6 14  1  0  0  0
  6 16  1  0  0  0
  6 27  1  0  0  0
  7 18  1  0  0  0
  8 11  1  0  0  0
  8 28  1  0  0  0
  9 10  2  0  0  0
  9 29  1  0  0  0
 10 30  1  0  0  0
 11 31  1  0  0  0
 12 19  2  0  0  0
 12 20  1  0  0  0
 13 16  1  0  0  0
 13 17  1  0  0  0
 13 32  1  0  0  0
 13 33  1  0  0  0
 14 34  1  0  0  0
 14 35  1  0  0  0
 15 17  1  0  0  0
 16 36  1  0  0  0
 16 37  1  0  0  0
 17 38  1  0  0  0
 17 39  1  0  0  0
 18 21  1  0  0  0
 18 40  1  0  0  0
 18 41  1  0  0  0
 19 22  1  0  0  0
 19 42  1  0  0  0
 20 23  2  0  0  0
 20 43  1  0  0  0
 21 44  1  0  0  0
 21 45  1  0  0  0
 21 46  1  0  0  0
 22 24  2  0  0  0
 22 47  1  0  0  0
 23 24  1  0  0  0
 23 48  1  0  0  0
 24 49  1  0  0  0
M  END
> <s_m_entry_id>
6914

> <s_m_entry_name>
dock_pv.344

> <s_m_Source_Path>
/home/csk/Desktop/cluster/DUD-E-result/lkha4

> <s_m_Source_File>
dock_pv.maegz

> <i_m_Source_File_Index>
344

> <chembl_id>
CHEMBL323873

> <chembl_pref_name>
None

> <i_lp_mmshare_version>
53161

> <i_f3d_flags>
0

> <r_lp_tautomer_probability>
1

> <s_lp_Force_Field>
OPLS_2005

> <r_lp_Energy>
17.559617

> <b_lp_Chiralities_Consistent>
1

> <s_lp_Variant>
CHEMBL4618_lig153-1

> <s_i_glide_gridfile>
glide-grid_3chp

> <i_i_glide_lignum>
179

> <i_i_glide_rotatable_bonds>
11

> <r_i_docking_score>
-8.64347541824304

> <r_i_glide_ligand_efficiency>
-0.36014480909346

> <r_i_glide_ligand_efficiency_sa>
-1.03883739122648

> <r_i_glide_ligand_efficiency_ln>
-2.06878029082819

> <r_i_glide_gscore>
-8.64347541824304

> <r_i_glide_lipo>
-4.73505443908856

> <r_i_glide_hbond>
-0.218420965343067

> <r_i_glide_metal>
0

> <r_i_glide_rewards>
-2.07646688862084

> <r_i_glide_evdw>
-43.9338989257812

> <r_i_glide_ecoul>
-7.1169319152832

> <r_i_glide_erotb>
1.75070160839096

> <r_i_glide_esite>
-0.1

> <r_i_glide_emodel>
-74.3404147286103

> <r_i_glide_energy>
-51.0508308410645

> <r_i_glide_einternal>
7.59064245223999

> <i_i_glide_confnum>
51

> <i_i_glide_posenum>
252

> <r_i_glide_eff_state_penalty>
0

> <s_user_duplicate_titles>
CHEMBL4618_lig153

> <s_m_subgroup_title>
dock_pv

> <s_m_subgroupid>
dock_pv

> <b_m_subgroup_collapsed>
1

$$$$
CHEMBL4618_lig116
                    3D
 Schrodinger Suite 2021-1.
 34 35  0  0  1  0            999 V2000
    8.4237   40.1140   68.3467 C   0  0  0  0  0  0
    8.3310   41.4969   68.5357 C   0  0  0  0  0  0
    9.1779   42.3522   67.8351 C   0  0  0  0  0  0
   10.1394   41.8459   66.9629 C   0  0  0  0  0  0
   10.1788   40.4646   66.7400 C   0  0  0  0  0  0
    9.3204   39.6056   67.4163 C   0  0  0  0  0  0
    8.9990   37.8167   72.2963 C   0  0  0  0  0  0
    8.9864   36.4516   72.0815 C   0  0  0  0  0  0
    8.5209   35.9566   70.8760 C   0  0  0  0  0  0
    8.0696   36.8234   69.8764 C   0  0  0  0  0  0
    8.0624   38.2046   70.0954 C   0  0  0  0  0  0
    8.5237   38.6875   71.3169 C   0  0  0  0  0  0
    7.4698   39.1702   69.0610 C   0  0  0  0  0  0
   11.0016   42.7478   66.3633 O   0  0  0  0  0  0
   12.2579   42.2729   65.8712 C   0  0  0  0  0  0
   13.0344   43.4244   65.2107 C   0  0  0  0  0  0
   14.2968   42.9561   64.6541 N   0  0  0  0  0  0
    7.5999   41.9149   69.2142 H   0  0  0  0  0  0
    9.1019   43.4159   67.9870 H   0  0  0  0  0  0
   10.8732   40.0258   66.0408 H   0  0  0  0  0  0
    9.3575   38.5430   67.2280 H   0  0  0  0  0  0
    9.3780   38.2111   73.2221 H   0  0  0  0  0  0
    9.3427   35.7760   72.8457 H   0  0  0  0  0  0
    8.5211   34.8893   70.7399 H   0  0  0  0  0  0
    7.7214   36.4147   68.9403 H   0  0  0  0  0  0
    8.5210   39.7504   71.5077 H   0  0  0  0  0  0
    6.9211   38.6016   68.3102 H   0  0  0  0  0  0
    6.7429   39.8158   69.5453 H   0  0  0  0  0  0
   12.8418   41.8532   66.6932 H   0  0  0  0  0  0
   12.1221   41.4800   65.1400 H   0  0  0  0  0  0
   12.4327   43.8742   64.4194 H   0  0  0  0  0  0
   13.2260   44.2099   65.9413 H   0  0  0  0  0  0
   14.1203   42.3093   63.8937 H   0  0  0  0  0  0
   14.7917   43.7298   64.2150 H   0  0  0  0  0  0
  1  6  1  0  0  0
  1 13  1  0  0  0
  1  2  2  0  0  0
  2  3  1  0  0  0
  2 18  1  0  0  0
  3  4  2  0  0  0
  3 19  1  0  0  0
  4  5  1  0  0  0
  4 14  1  0  0  0
  5  6  2  0  0  0
  5 20  1  0  0  0
  6 21  1  0  0  0
  7 12  1  0  0  0
  7  8  2  0  0  0
  7 22  1  0  0  0
  8  9  1  0  0  0
  8 23  1  0  0  0
  9 10  2  0  0  0
  9 24  1  0  0  0
 10 11  1  0  0  0
 10 25  1  0  0  0
 11 12  2  0  0  0
 11 13  1  0  0  0
 12 26  1  0  0  0
 13 27  1  0  0  0
 13 28  1  0  0  0
 14 15  1  0  0  0
 15 16  1  0  0  0
 15 29  1  0  0  0
 15 30  1  0  0  0
 16 17  1  0  0  0
 16 31  1  0  0  0
 16 32  1  0  0  0
 17 33  1  0  0  0
 17 34  1  0  0  0
M  END
> <s_m_entry_id>
6915

> <s_m_entry_name>
dock_pv.345

> <s_m_Source_Path>
/home/csk/Desktop/cluster/DUD-E-result/lkha4

> <s_m_Source_File>
dock_pv.maegz

> <i_m_Source_File_Index>
345

> <chembl_id>
CHEMBL163807

> <chembl_pref_name>
None

> <i_lp_mmshare_version>
53161

> <i_f3d_flags>
0

> <r_lp_tautomer_probability>
1

> <s_lp_Force_Field>
OPLS_2005

> <r_lp_Energy>
15.984367

> <b_lp_Chiralities_Consistent>
1

> <s_lp_Variant>
CHEMBL4618_lig116-1

> <s_i_glide_gridfile>
glide-grid_3chp

> <i_i_glide_lignum>
142

> <i_i_glide_rotatable_bonds>
5

> <r_i_docking_score>
-8.63147549186977

> <r_i_glide_ligand_efficiency>
-0.507733852462928

> <r_i_glide_ligand_efficiency_sa>
-1.30552670655897

> <r_i_glide_ligand_efficiency_ln>
-2.25175974232004

> <r_i_glide_gscore>
-8.63147549186977

> <r_i_glide_lipo>
-4.59215179748857

> <r_i_glide_hbond>
-0.32

> <r_i_glide_metal>
0

> <r_i_glide_rewards>
-2.71569266680551

> <r_i_glide_evdw>
-30.7237453460693

> <r_i_glide_ecoul>
-5.2314395904541

> <r_i_glide_erotb>
1.31727217829589

> <r_i_glide_esite>
0

> <r_i_glide_emodel>
-61.9729252641148

> <r_i_glide_energy>
-35.9551849365234

> <r_i_glide_einternal>
1.23002278804779

> <i_i_glide_confnum>
33

> <i_i_glide_posenum>
206

> <r_i_glide_eff_state_penalty>
0

> <s_user_duplicate_titles>
CHEMBL4618_lig116,271481

> <s_m_subgroup_title>
dock_pv

> <s_m_subgroupid>
dock_pv

> <b_m_subgroup_collapsed>
1

$$$$
CHEMBL4618_lig514 
                    3D
 Schrodinger Suite 2021-1.
 36 38  0  0  1  0            999 V2000
    8.1432   37.6835   68.8097 C   0  0  0  0  0  0
    8.3698   38.9745   69.2833 C   0  0  0  0  0  0
    8.5226   39.1737   70.6497 C   0  0  0  0  0  0
    8.5099   38.1167   71.5443 C   0  0  0  0  0  0
    8.3303   36.8174   71.0804 C   0  0  0  0  0  0
    8.1210   36.6160   69.7117 C   0  0  0  0  0  0
    8.2351   35.6520   72.0680 C   0  0  0  0  0  0
    9.4399   35.3569   72.9864 C   0  0  0  0  0  0
    9.5884   36.2160   74.0863 C   0  0  0  0  0  0
   10.5210   35.9801   75.0891 C   0  0  0  0  0  0
   11.3210   34.8507   75.0253 C   0  0  0  0  0  0
   11.2069   33.9826   73.9462 C   0  0  0  0  0  0
   10.2616   34.1922   72.9297 C   0  0  0  0  0  0
    8.5210   40.1786   68.4200 C   0  0  0  0  0  0
    9.5085   40.2307   67.5400 N   0  0  0  0  0  0
    9.6695   41.4324   67.0477 C   0  0  0  0  0  0
    8.4970   42.5970   67.5400 S   0  0  0  0  0  0
    7.7917   41.3663   68.5396 C   0  0  0  0  0  0
   10.6965   41.8160   66.2399 N   0  0  0  0  0  0
   10.1647   33.0413   71.9088 C   0  0  0  0  0  0
    9.1033   33.0160   71.1400 F   0  0  0  0  0  0
   11.2448   33.0160   71.1400 F   0  0  0  0  0  0
   10.1210   31.8741   72.5166 F   0  0  0  0  0  0
    8.0115   37.5060   67.7524 H   0  0  0  0  0  0
    8.6453   40.1729   71.0254 H   0  0  0  0  0  0
    8.6163   38.3340   72.5933 H   0  0  0  0  0  0
    7.9292   35.6287   69.3376 H   0  0  0  0  0  0
    7.8633   34.7739   71.5561 H   0  0  0  0  0  0
    7.4060   35.8999   72.7344 H   0  0  0  0  0  0
    8.9267   37.0554   74.2164 H   0  0  0  0  0  0
   10.5909   36.6491   75.9351 H   0  0  0  0  0  0
   12.0232   34.6416   75.8188 H   0  0  0  0  0  0
   11.8275   33.0963   73.9377 H   0  0  0  0  0  0
    6.9494   41.5915   69.1780 H   0  0  0  0  0  0
   11.3767   41.1487   65.9052 H   0  0  0  0  0  0
   10.8337   42.7824   65.9840 H   0  0  0  0  0  0
  1  2  2  0  0  0
  1  6  1  0  0  0
  1 24  1  0  0  0
  2  3  1  0  0  0
  2 14  1  0  0  0
  3  4  2  0  0  0
  3 25  1  0  0  0
  4  5  1  0  0  0
  4 26  1  0  0  0
  5  6  2  0  0  0
  5  7  1  0  0  0
  6 27  1  0  0  0
  7  8  1  0  0  0
  7 28  1  0  0  0
  7 29  1  0  0  0
  8  9  2  0  0  0
  8 13  1  0  0  0
  9 10  1  0  0  0
  9 30  1  0  0  0
 10 11  2  0  0  0
 10 31  1  0  0  0
 11 12  1  0  0  0
 11 32  1  0  0  0
 12 13  2  0  0  0
 12 33  1  0  0  0
 13 20  1  0  0  0
 14 15  1  0  0  0
 14 18  2  0  0  0
 15 16  2  0  0  0
 16 17  1  0  0  0
 16 19  1  0  0  0
 17 18  1  0  0  0
 18 34  1  0  0  0
 19 35  1  0  0  0
 19 36  1  0  0  0
 20 21  1  0  0  0
 20 22  1  0  0  0
 20 23  1  0  0  0
M  END
> <s_m_entry_id>
6916

> <s_m_entry_name>
dock_pv.346

> <s_m_Source_Path>
/home/csk/Desktop/cluster/DUD-E-result/lkha4

> <s_m_Source_File>
dock_pv.maegz

> <i_m_Source_File_Index>
346

> <chembl_id>
CHEMBL4437635

> <chembl_pref_name>
None

> <i_lp_mmshare_version>
53161

> <i_f3d_flags>
0

> <r_lp_tautomer_probability>
1

> <s_lp_Force_Field>
OPLS_2005

> <r_lp_Energy>
14.967386

> <b_lp_Chiralities_Consistent>
1

> <s_lp_Variant>
CHEMBL4618_lig514 -1

> <s_i_glide_gridfile>
glide-grid_3chp

> <i_i_glide_lignum>
614

> <i_i_glide_rotatable_bonds>
4

> <r_i_docking_score>
-8.62800335434203

> <r_i_glide_ligand_efficiency>
-0.375130580623566

> <r_i_glide_ligand_efficiency_sa>
-1.0668214702529

> <r_i_glide_ligand_efficiency_ln>
-2.0863294454889

> <r_i_glide_gscore>
-8.62800335434203

> <r_i_glide_lipo>
-4.77670909379353

> <r_i_glide_hbond>
0

> <r_i_glide_metal>
0

> <r_i_glide_rewards>
-2.23251643889573

> <r_i_glide_evdw>
-33.2229843139648

> <r_i_glide_ecoul>
-2.94181060791016

> <r_i_glide_erotb>
0.506085414506353

> <r_i_glide_esite>
-0.0224424292743512

> <r_i_glide_emodel>
-40.4085209998798

> <r_i_glide_energy>
-36.164794921875

> <r_i_glide_einternal>
8.36962985992432

> <i_i_glide_confnum>
4

> <i_i_glide_posenum>
181

> <r_i_glide_eff_state_penalty>
0

> <s_user_duplicate_titles>
CHEMBL4618_lig514 

> <s_m_subgroup_title>
dock_pv

> <s_m_subgroupid>
dock_pv

> <b_m_subgroup_collapsed>
1

$$$$
CHEMBL4618_lig89
                    3D
 Schrodinger Suite 2021-1.
 40 42  0  0  1  0            999 V2000
   12.5280   41.5674   65.9401 N   0  0  0  0  0  0
   11.8397   42.6597   65.7032 C   0  0  0  0  0  0
   12.7136   43.8074   64.7301 S   0  0  0  0  0  0
    8.6863   36.6238   71.1384 N   0  0  0  0  0  0
   13.6713   41.5265   65.2896 C   0  0  0  0  0  0
   14.0039   42.6585   64.5619 C   0  0  0  0  0  0
   10.4076   42.9191   66.1706 C   0  0  0  0  0  0
    9.6843   41.8640   67.0084 C   0  0  0  0  0  0
    8.3333   39.9334   68.5279 C   0  0  0  0  0  0
    9.8386   40.5090   66.7388 C   0  0  0  0  0  0
    8.7871   42.2563   68.0072 C   0  0  0  0  0  0
    8.1235   41.2927   68.7635 C   0  0  0  0  0  0
    9.1589   39.5549   67.4662 C   0  0  0  0  0  0
    7.7204   39.0330   69.3721 O   0  0  0  0  0  0
    7.4998   36.7914   70.2961 C   0  0  0  0  0  0
    7.8007   37.6418   69.0653 C   0  0  0  0  0  0
    8.6416   35.4106   71.9302 C   0  0  0  0  0  0
    8.9057   37.6851   72.1096 C   0  0  0  0  0  0
    9.8994   37.0940   73.1146 C   0  0  0  0  0  0
    9.7365   35.5774   72.9804 C   0  0  0  0  0  0
   14.2502   40.6192   65.3615 H   0  0  0  0  0  0
   14.8693   42.8647   63.9449 H   0  0  0  0  0  0
    9.7738   43.1119   65.3048 H   0  0  0  0  0  0
   10.3972   43.8325   66.7412 H   0  0  0  0  0  0
   10.4709   40.1600   65.9400 H   0  0  0  0  0  0
    8.6059   43.3034   68.2057 H   0  0  0  0  0  0
    7.4448   41.6043   69.5419 H   0  0  0  0  0  0
    9.3206   38.5292   67.1823 H   0  0  0  0  0  0
    7.1693   35.8160   69.9396 H   0  0  0  0  0  0
    6.6734   37.2251   70.8609 H   0  0  0  0  0  0
    8.7828   37.3300   68.7148 H   0  0  0  0  0  0
    7.0877   37.4200   68.2710 H   0  0  0  0  0  0
    8.8120   34.5529   71.2805 H   0  0  0  0  0  0
    7.6470   35.2599   72.3400 H   0  0  0  0  0  0
    7.9790   38.0101   72.5860 H   0  0  0  0  0  0
    9.2921   38.5660   71.5953 H   0  0  0  0  0  0
    9.6620   37.4113   74.1271 H   0  0  0  0  0  0
   10.9189   37.4186   72.9053 H   0  0  0  0  0  0
   10.6609   35.0972   72.6571 H   0  0  0  0  0  0
    9.4465   35.1145   73.9259 H   0  0  0  0  0  0
  1  2  2  0  0  0
  1  5  1  0  0  0
  2  3  1  0  0  0
  2  7  1  0  0  0
  3  6  1  0  0  0
  4 15  1  0  0  0
  4 17  1  0  0  0
  4 18  1  0  0  0
  5  6  2  0  0  0
  5 21  1  0  0  0
  6 22  1  0  0  0
  7  8  1  0  0  0
  7 23  1  0  0  0
  7 24  1  0  0  0
  8 10  1  0  0  0
  8 11  2  0  0  0
  9 12  2  0  0  0
  9 14  1  0  0  0
  9 13  1  0  0  0
 10 13  2  0  0  0
 10 25  1  0  0  0
 11 12  1  0  0  0
 11 26  1  0  0  0
 12 27  1  0  0  0
 13 28  1  0  0  0
 14 16  1  0  0  0
 15 16  1  0  0  0
 15 29  1  0  0  0
 15 30  1  0  0  0
 16 31  1  0  0  0
 16 32  1  0  0  0
 17 20  1  0  0  0
 17 33  1  0  0  0
 17 34  1  0  0  0
 18 19  1  0  0  0
 18 35  1  0  0  0
 18 36  1  0  0  0
 19 20  1  0  0  0
 19 37  1  0  0  0
 19 38  1  0  0  0
 20 39  1  0  0  0
 20 40  1  0  0  0
M  END
> <s_m_entry_id>
6917

> <s_m_entry_name>
dock_pv.347

> <s_m_Source_Path>
/home/csk/Desktop/cluster/DUD-E-result/lkha4

> <s_m_Source_File>
dock_pv.maegz

> <i_m_Source_File_Index>
347

> <chembl_id>
CHEMBL163209

> <chembl_pref_name>
None

> <i_lp_mmshare_version>
53161

> <i_f3d_flags>
0

> <r_lp_tautomer_probability>
1

> <s_lp_Force_Field>
OPLS_2005

> <r_lp_Energy>
31.521548

> <b_lp_Chiralities_Consistent>
1

> <s_lp_Variant>
CHEMBL4618_lig89-1

> <s_i_glide_gridfile>
glide-grid_3chp

> <i_i_glide_lignum>
112

> <i_i_glide_rotatable_bonds>
6

> <r_i_docking_score>
-8.61531876256071

> <r_i_glide_ligand_efficiency>
-0.430765938128035

> <r_i_glide_ligand_efficiency_sa>
-1.16927864991616

> <r_i_glide_ligand_efficiency_ln>
-2.1561301340387

> <r_i_glide_gscore>
-8.61531876256071

> <r_i_glide_lipo>
-5.15024139880325

> <r_i_glide_hbond>
0

> <r_i_glide_metal>
0

> <r_i_glide_rewards>
-2.0428358838656

> <r_i_glide_evdw>
-42.7425804138184

> <r_i_glide_ecoul>
-2.52441430091858

> <r_i_glide_erotb>
1.09354968593685

> <r_i_glide_esite>
0

> <r_i_glide_emodel>
-66.6672631317017

> <r_i_glide_energy>
-45.2669947147369

> <r_i_glide_einternal>
3.58606624603271

> <i_i_glide_confnum>
100

> <i_i_glide_posenum>
329

> <r_i_glide_eff_state_penalty>
0

> <s_user_duplicate_titles>
CHEMBL4618_lig89,271026

> <s_m_subgroup_title>
dock_pv

> <s_m_subgroupid>
dock_pv

> <b_m_subgroup_collapsed>
1

$$$$
CHEMBL4618_lig248
                    3D
 Schrodinger Suite 2021-1.
 67 70  0  0  1  0            999 V2000
    8.8082   40.7619   67.6706 C   0  0  0  0  0  0
    8.9396   42.1469   67.7005 C   0  0  0  0  0  0
   10.0379   42.7500   67.0863 C   0  0  0  0  0  0
   11.0217   41.9955   66.4497 C   0  0  0  0  0  0
   10.8222   40.6160   66.3407 C   0  0  0  0  0  0
    9.7209   40.0076   66.9376 C   0  0  0  0  0  0
   12.1779   42.6853   66.0017 N   0  0  0  0  0  0
   13.3211   42.1917   65.4627 C   0  0  0  0  0  0
   14.4886   43.2026   65.2951 C   0  0  0  0  0  0
   13.4749   41.0159   65.1415 O   0  0  0  0  0  0
   15.8198   42.5695   65.1401 N   0  0  1  0  0  0
    7.7623   40.1689   68.3401 O   0  0  0  0  0  0
    8.0117   39.0655   69.1243 C   0  0  0  0  0  0
    7.7184   37.7870   68.6634 C   0  0  0  0  0  0
    7.9278   36.6916   69.4984 C   0  0  0  0  0  0
    8.4200   36.8662   70.7877 C   0  0  0  0  0  0
    8.7250   38.1398   71.2478 C   0  0  0  0  0  0
    8.5247   39.2276   70.4062 C   0  0  0  0  0  0
   16.0208   42.0754   63.7714 C   0  0  0  0  0  0
   16.9586   43.4524   65.4454 C   0  0  0  0  0  0
   16.9855   43.9213   66.9164 C   0  0  0  0  0  0
   18.3528   44.4522   67.4205 C   0  0  0  0  0  0
   18.4145   44.7779   68.8574 N   0  0  2  0  0  0
   18.2794   43.5667   69.6909 C   0  0  0  0  0  0
   17.4508   45.8257   69.2043 C   0  0  0  0  0  0
   18.3921   43.7974   71.1985 C   0  0  0  0  0  0
   17.2447   44.1087   71.9321 C   0  0  0  0  0  0
   17.3227   44.2887   73.3081 C   0  0  0  0  0  0
   18.5435   44.1420   73.9781 C   0  0  0  0  0  0
   19.6889   43.8145   73.2415 C   0  0  0  0  0  0
   19.6153   43.6486   71.8566 C   0  0  0  0  0  0
   18.5917   44.2948   75.4713 C   0  0  0  0  0  0
   17.5366   44.4354   76.2463 N   0  0  0  0  0  0
   18.0167   44.5262   77.5486 N   0  0  0  0  0  0
   19.3933   44.4393   77.5501 N   0  0  0  0  0  0
   19.7210   44.3036   76.2613 N   0  0  0  0  0  0
    8.2077   42.7480   68.2231 H   0  0  0  0  0  0
   10.1345   43.8160   67.1400 H   0  0  0  0  0  0
   11.5073   39.9785   65.8100 H   0  0  0  0  0  0
    9.6022   38.9384   66.8575 H   0  0  0  0  0  0
   12.1727   43.6760   66.1940 H   0  0  0  0  0  0
   14.2419   43.8487   64.4515 H   0  0  0  0  0  0
   14.4624   43.8414   66.1767 H   0  0  0  0  0  0
    7.3247   37.6508   67.6673 H   0  0  0  0  0  0
    7.7212   35.7006   69.1396 H   0  0  0  0  0  0
    8.5705   36.0076   71.4254 H   0  0  0  0  0  0
    9.1050   38.2809   72.2488 H   0  0  0  0  0  0
    8.7387   40.2158   70.7541 H   0  0  0  0  0  0
   17.0206   41.6659   63.6236 H   0  0  0  0  0  0
   15.3106   41.2843   63.5401 H   0  0  0  0  0  0
   15.8912   42.8605   63.0246 H   0  0  0  0  0  0
   17.9033   42.9532   65.2229 H   0  0  0  0  0  0
   16.9326   44.3145   64.7771 H   0  0  0  0  0  0
   16.3276   44.7898   66.9347 H   0  0  0  0  0  0
   16.5202   43.2022   67.5824 H   0  0  0  0  0  0
   19.1478   43.7528   67.1575 H   0  0  0  0  0  0
   18.6052   45.3541   66.8608 H   0  0  0  0  0  0
   17.3209   43.0774   69.5181 H   0  0  0  0  0  0
   19.0365   42.8391   69.3933 H   0  0  0  0  0  0
   17.6441   46.2110   70.2056 H   0  0  0  0  0  0
   17.5278   46.6714   68.5209 H   0  0  0  0  0  0
   16.4236   45.4570   69.1752 H   0  0  0  0  0  0
   16.2896   44.2006   71.4355 H   0  0  0  0  0  0
   16.4209   44.5281   73.8530 H   0  0  0  0  0  0
   20.6377   43.6724   73.7384 H   0  0  0  0  0  0
   20.5022   43.3816   71.3004 H   0  0  0  0  0  0
   20.6905   44.2163   75.9658 H   0  0  0  0  0  0
  1 12  1  0  0  0
  1  6  1  0  0  0
  1  2  2  0  0  0
  2  3  1  0  0  0
  2 37  1  0  0  0
  3  4  2  0  0  0
  3 38  1  0  0  0
  4  5  1  0  0  0
  4  7  1  0  0  0
  5  6  2  0  0  0
  5 39  1  0  0  0
  6 40  1  0  0  0
  7  8  1  0  0  0
  7 41  1  0  0  0
  8  9  1  0  0  0
  8 10  2  0  0  0
  9 11  1  0  0  0
  9 42  1  0  0  0
  9 43  1  0  0  0
 11 19  1  0  0  0
 11 20  1  0  0  0
 12 13  1  0  0  0
 13 18  1  0  0  0
 13 14  2  0  0  0
 14 15  1  0  0  0
 14 44  1  0  0  0
 15 16  2  0  0  0
 15 45  1  0  0  0
 16 17  1  0  0  0
 16 46  1  0  0  0
 17 18  2  0  0  0
 17 47  1  0  0  0
 18 48  1  0  0  0
 19 49  1  0  0  0
 19 50  1  0  0  0
 19 51  1  0  0  0
 20 21  1  0  0  0
 20 52  1  0  0  0
 20 53  1  0  0  0
 21 22  1  0  0  0
 21 54  1  0  0  0
 21 55  1  0  0  0
 22 23  1  0  0  0
 22 56  1  0  0  0
 22 57  1  0  0  0
 23 24  1  0  0  0
 23 25  1  0  0  0
 24 26  1  0  0  0
 24 58  1  0  0  0
 24 59  1  0  0  0
 25 60  1  0  0  0
 25 61  1  0  0  0
 25 62  1  0  0  0
 26 27  2  0  0  0
 26 31  1  0  0  0
 27 28  1  0  0  0
 27 63  1  0  0  0
 28 29  2  0  0  0
 28 64  1  0  0  0
 29 30  1  0  0  0
 29 32  1  0  0  0
 30 31  2  0  0  0
 30 65  1  0  0  0
 31 66  1  0  0  0
 32 36  1  0  0  0
 32 33  2  0  0  0
 33 34  1  0  0  0
 34 35  2  0  0  0
 35 36  1  0  0  0
 36 67  1  0  0  0
M  END
> <s_m_entry_id>
6918

> <s_m_entry_name>
dock_pv.348

> <s_m_Source_Path>
/home/csk/Desktop/cluster/DUD-E-result/lkha4

> <s_m_Source_File>
dock_pv.maegz

> <i_m_Source_File_Index>
348

> <chembl_id>
CHEMBL520414

> <chembl_pref_name>
None

> <i_lp_mmshare_version>
53161

> <i_f3d_flags>
0

> <r_lp_tautomer_probability>
0.3

> <s_lp_Force_Field>
OPLS_2005

> <r_lp_Energy>
41.740343

> <b_lp_Chiralities_Consistent>
1

> <s_lp_Variant>
CHEMBL4618_lig248-1

> <s_i_glide_gridfile>
glide-grid_3chp

> <i_i_glide_lignum>
284

> <i_i_glide_rotatable_bonds>
13

> <r_i_docking_score>
-8.60176088266367

> <r_i_glide_ligand_efficiency>
-0.238937802296213

> <r_i_glide_ligand_efficiency_sa>
-0.788955239250451

> <r_i_glide_ligand_efficiency_ln>
-1.87667183187445

> <r_i_glide_gscore>
-8.60176088266367

> <r_i_glide_lipo>
-4.50442278792254

> <r_i_glide_hbond>
-0.307942303943856

> <r_i_glide_metal>
0

> <r_i_glide_rewards>
-0.596339559814432

> <r_i_glide_evdw>
-59.2823753356934

> <r_i_glide_ecoul>
-8.51278591156006

> <r_i_glide_erotb>
1.12011135508428

> <r_i_glide_esite>
-0.0721309325484461

> <r_i_glide_emodel>
-97.2680325689997

> <r_i_glide_energy>
-67.7951612472534

> <r_i_glide_einternal>
11.4128389358521

> <i_i_glide_confnum>
121

> <i_i_glide_posenum>
264

> <r_i_glide_eff_state_penalty>
0

> <s_user_duplicate_titles>
CHEMBL4618_lig248,CHEMBL4618_lig248,466765

> <s_m_subgroup_title>
dock_pv

> <s_m_subgroupid>
dock_pv

> <b_m_subgroup_collapsed>
1

$$$$
CHEMBL4618_lig436
                    3D
 Schrodinger Suite 2021-1.
 50 55  0  0  1  0            999 V2000
   12.9209   42.3433   64.7106 O   0  0  0  0  0  0
   15.5115   41.8925   64.3418 S   0  0  0  0  0  0
   14.1716   42.6451   65.1837 C   0  0  0  0  0  0
   14.4707   43.5074   66.1163 N   0  0  0  0  0  0
   15.8208   43.6234   66.2568 C   0  0  0  0  0  0
   16.5935   42.7851   65.4052 C   0  0  0  0  0  0
   16.3726   44.4628   67.1403 N   0  0  0  0  0  0
   17.7290   44.4617   67.2200 C   0  0  0  0  0  0
   18.5604   43.6668   66.4316 C   0  0  0  0  0  0
   17.9932   42.8065   65.4931 C   0  0  0  0  0  0
    9.7551   43.3230   66.3400 C   0  0  0  0  0  0
   10.9697   43.4002   65.6415 C   0  0  0  0  0  0
   11.8286   42.3046   65.5458 C   0  0  0  0  0  0
   11.4874   41.0895   66.1418 C   0  0  0  0  0  0
    8.3325   41.6459   67.7963 C   0  0  0  0  0  0
    9.4125   42.1218   66.9853 C   0  0  0  0  0  0
   10.2783   41.0177   66.8532 C   0  0  0  0  0  0
    9.7431   39.9085   67.4582 O   0  0  0  0  0  0
    8.5818   40.3002   68.0643 C   0  0  0  0  0  0
    7.7566   39.2154   68.7618 C   0  0  0  0  0  0
    8.5088   38.2902   69.6294 N   0  0  1  0  0  0
    9.0647   38.9198   70.8379 C   0  0  0  0  0  0
    8.5293   38.0851   72.0296 C   0  0  2  0  0  0
    9.0987   36.7306   71.9401 N   0  0  0  0  0  0
    8.5666   36.1097   70.7232 C   0  0  0  0  0  0
    7.6581   37.2364   70.2163 C   0  0  1  0  0  0
    9.7575   36.0808   72.9217 C   0  0  0  0  0  0
   10.0739   36.6135   73.9823 O   0  0  0  0  0  0
   10.1855   34.6340   72.6741 C   0  0  0  0  0  0
    7.1371   37.7647   71.5413 C   0  0  0  0  0  0
   18.1544   45.1254   67.9565 H   0  0  0  0  0  0
   19.6344   43.7216   66.5333 H   0  0  0  0  0  0
   18.6142   42.2158   64.8350 H   0  0  0  0  0  0
    9.0970   44.1794   66.3940 H   0  0  0  0  0  0
   11.2460   44.3155   65.1404 H   0  0  0  0  0  0
   12.0901   40.2170   65.9405 H   0  0  0  0  0  0
    7.4608   42.1984   68.1208 H   0  0  0  0  0  0
    7.2680   38.6148   67.9937 H   0  0  0  0  0  0
    6.9544   39.6829   69.3337 H   0  0  0  0  0  0
    8.6783   39.9331   70.9314 H   0  0  0  0  0  0
   10.1525   38.9921   70.8207 H   0  0  0  0  0  0
    8.6293   38.5559   73.0063 H   0  0  0  0  0  0
    7.9786   35.2460   71.0317 H   0  0  0  0  0  0
    9.3164   35.8162   69.9994 H   0  0  0  0  0  0
    6.8914   36.8685   69.5399 H   0  0  0  0  0  0
   10.9201   34.5969   71.8720 H   0  0  0  0  0  0
   10.6330   34.2038   73.5699 H   0  0  0  0  0  0
    9.3346   34.0175   72.3904 H   0  0  0  0  0  0
    6.6153   37.0472   72.1782 H   0  0  0  0  0  0
    6.5056   38.6161   71.4068 H   0  0  0  0  0  0
  1  3  1  0  0  0
  1 13  1  0  0  0
  2  3  1  0  0  0
  2  6  1  0  0  0
  3  4  2  0  0  0
  4  5  1  0  0  0
  5  6  1  0  0  0
  5  7  2  0  0  0
  6 10  2  0  0  0
  7  8  1  0  0  0
  8  9  2  0  0  0
  8 31  1  0  0  0
  9 10  1  0  0  0
  9 32  1  0  0  0
 10 33  1  0  0  0
 11 16  2  0  0  0
 11 12  1  0  0  0
 11 34  1  0  0  0
 12 13  2  0  0  0
 12 35  1  0  0  0
 13 14  1  0  0  0
 14 17  2  0  0  0
 14 36  1  0  0  0
 15 16  1  0  0  0
 15 19  2  0  0  0
 15 37  1  0  0  0
 16 17  1  0  0  0
 17 18  1  0  0  0
 18 19  1  0  0  0
 19 20  1  0  0  0
 20 21  1  0  0  0
 20 38  1  0  0  0
 20 39  1  0  0  0
 21 22  1  0  0  0
 21 26  1  0  0  0
 22 23  1  0  0  0
 22 40  1  0  0  0
 22 41  1  0  0  0
 23 24  1  0  0  0
 23 30  1  0  0  0
 23 42  1  0  0  0
 24 25  1  0  0  0
 24 27  1  0  0  0
 25 26  1  0  0  0
 25 43  1  0  0  0
 25 44  1  0  0  0
 26 30  1  0  0  0
 26 45  1  0  0  0
 27 28  2  0  0  0
 27 29  1  0  0  0
 29 46  1  0  0  0
 29 47  1  0  0  0
 29 48  1  0  0  0
 30 49  1  0  0  0
 30 50  1  0  0  0
M  END
> <s_m_entry_id>
6919

> <s_m_entry_name>
dock_pv.349

> <s_m_Source_Path>
/home/csk/Desktop/cluster/DUD-E-result/lkha4

> <s_m_Source_File>
dock_pv.maegz

> <i_m_Source_File_Index>
349

> <chembl_id>
CHEMBL2313269

> <chembl_pref_name>
None

> <i_lp_mmshare_version>
53161

> <i_f3d_flags>
0

> <r_lp_tautomer_probability>
1

> <s_lp_Force_Field>
OPLS_2005

> <r_lp_Energy>
80.429325

> <b_lp_Chiralities_Consistent>
1

> <s_lp_Variant>
CHEMBL4618_lig436-1

> <s_i_glide_gridfile>
glide-grid_3chp

> <i_i_glide_lignum>
508

> <i_i_glide_rotatable_bonds>
5

> <r_i_docking_score>
-8.59920524447935

> <r_i_glide_ligand_efficiency>
-0.286640174815978

> <r_i_glide_ligand_efficiency_sa>
-0.890657667690737

> <r_i_glide_ligand_efficiency_ln>
-1.9538331273913

> <r_i_glide_gscore>
-8.59920524447935

> <r_i_glide_lipo>
-4.61642389286895

> <r_i_glide_hbond>
0

> <r_i_glide_metal>
0

> <r_i_glide_rewards>
-1.44048115367064

> <r_i_glide_evdw>
-55.9574089050293

> <r_i_glide_ecoul>
-1.15066540241241

> <r_i_glide_erotb>
0.447782355423934

> <r_i_glide_esite>
-0.0196122977503697

> <r_i_glide_emodel>
-77.1238222814053

> <r_i_glide_energy>
-57.1080743074417

> <r_i_glide_einternal>
2.85867261886597

> <i_i_glide_confnum>
15

> <i_i_glide_posenum>
361

> <r_i_glide_eff_state_penalty>
0

> <s_user_duplicate_titles>
CHEMBL4618_lig436

> <s_m_subgroup_title>
dock_pv

> <s_m_subgroupid>
dock_pv

> <b_m_subgroup_collapsed>
1

$$$$
CHEMBL4618_lig510 
                    3D
 Schrodinger Suite 2021-1.
 48 51  0  0  1  0            999 V2000
   13.1040   42.8359   64.6924 O   0  0  0  0  0  0
   12.0517   42.5697   65.5403 C   0  0  0  0  0  0
   10.9237   43.3884   65.5401 C   0  0  0  0  0  0
    9.8061   43.0688   66.3194 C   0  0  0  0  0  0
    9.7834   41.9073   67.0943 C   0  0  0  0  0  0
   10.9211   41.0997   67.0925 C   0  0  0  0  0  0
   12.0432   41.4212   66.3312 C   0  0  0  0  0  0
    8.5518   41.5643   67.9517 C   0  0  0  0  0  0
    8.3792   40.0617   68.2444 C   0  0  0  0  0  0
    8.1212   39.7070   69.5105 N   0  0  0  0  0  0
    8.5211   39.2364   67.3385 O   0  0  0  0  0  0
    8.1415   38.3241   69.9730 C   0  0  0  0  0  0
    8.0642   38.2122   71.5061 C   0  0  0  0  0  0
    8.7650   36.9762   72.0592 C   0  0  0  0  0  0
    8.5236   35.7259   71.4952 C   0  0  0  0  0  0
    9.2338   34.6152   71.9405 C   0  0  0  0  0  0
   10.1209   34.7352   73.0056 C   0  0  0  0  0  0
   10.3252   35.9688   73.6115 C   0  0  0  0  0  0
    9.6698   37.0911   73.1144 C   0  0  0  0  0  0
   14.3676   43.0004   65.2031 C   0  0  0  0  0  0
   10.7892   33.6505   73.4545 F   0  0  0  0  0  0
   14.6956   43.7670   66.2036 N   0  0  0  0  0  0
   15.6747   42.2159   64.3429 S   0  0  0  0  0  0
   16.7887   43.0105   65.4575 C   0  0  0  0  0  0
   16.0433   43.8108   66.3647 C   0  0  0  0  0  0
   16.7049   44.5540   67.3527 C   0  0  0  0  0  0
   18.0958   44.4828   67.4215 C   0  0  0  0  0  0
   18.8220   43.7068   66.5220 C   0  0  0  0  0  0
   18.1886   42.9615   65.5283 C   0  0  0  0  0  0
    8.7519   43.9078   66.3396 F   0  0  0  0  0  0
   10.9243   44.2775   64.9391 H   0  0  0  0  0  0
   10.9428   40.2160   67.7037 H   0  0  0  0  0  0
   12.9039   40.7676   66.3346 H   0  0  0  0  0  0
    7.6484   41.8969   67.4405 H   0  0  0  0  0  0
    8.6043   42.1342   68.8803 H   0  0  0  0  0  0
    7.8433   40.4083   70.1850 H   0  0  0  0  0  0
    9.1158   37.9364   69.6640 H   0  0  0  0  0  0
    7.4063   37.6875   69.4780 H   0  0  0  0  0  0
    7.0246   38.2272   71.8321 H   0  0  0  0  0  0
    8.5222   39.0978   71.9456 H   0  0  0  0  0  0
    7.8167   35.6133   70.6879 H   0  0  0  0  0  0
    9.0592   33.6474   71.4971 H   0  0  0  0  0  0
   11.0113   36.0589   74.4409 H   0  0  0  0  0  0
    9.8803   38.0571   73.5399 H   0  0  0  0  0  0
   16.1431   45.1349   68.0676 H   0  0  0  0  0  0
   18.6241   45.0305   68.1887 H   0  0  0  0  0  0
   19.9015   43.6791   66.5880 H   0  0  0  0  0  0
   18.7663   42.3947   64.8094 H   0  0  0  0  0  0
  1  2  1  0  0  0
  1 20  1  0  0  0
  2  3  2  0  0  0
  2  7  1  0  0  0
  3  4  1  0  0  0
  3 31  1  0  0  0
  4  5  2  0  0  0
  4 30  1  0  0  0
  5  6  1  0  0  0
  5  8  1  0  0  0
  6  7  2  0  0  0
  6 32  1  0  0  0
  7 33  1  0  0  0
  8  9  1  0  0  0
  8 34  1  0  0  0
  8 35  1  0  0  0
  9 10  1  0  0  0
  9 11  2  0  0  0
 10 12  1  0  0  0
 10 36  1  0  0  0
 12 13  1  0  0  0
 12 37  1  0  0  0
 12 38  1  0  0  0
 13 14  1  0  0  0
 13 39  1  0  0  0
 13 40  1  0  0  0
 14 15  2  0  0  0
 14 19  1  0  0  0
 15 16  1  0  0  0
 15 41  1  0  0  0
 16 17  2  0  0  0
 16 42  1  0  0  0
 17 18  1  0  0  0
 17 21  1  0  0  0
 18 19  2  0  0  0
 18 43  1  0  0  0
 19 44  1  0  0  0
 20 22  2  0  0  0
 20 23  1  0  0  0
 22 25  1  0  0  0
 23 24  1  0  0  0
 24 25  2  0  0  0
 24 29  1  0  0  0
 25 26  1  0  0  0
 26 27  2  0  0  0
 26 45  1  0  0  0
 27 28  1  0  0  0
 27 46  1  0  0  0
 28 29  2  0  0  0
 28 47  1  0  0  0
 29 48  1  0  0  0
M  END
> <s_m_entry_id>
6920

> <s_m_entry_name>
dock_pv.350

> <s_m_Source_Path>
/home/csk/Desktop/cluster/DUD-E-result/lkha4

> <s_m_Source_File>
dock_pv.maegz

> <i_m_Source_File_Index>
350

> <chembl_id>
CHEMBL4529780

> <chembl_pref_name>
None

> <i_lp_mmshare_version>
53161

> <i_f3d_flags>
0

> <r_lp_tautomer_probability>
1

> <s_lp_Force_Field>
OPLS_2005

> <r_lp_Energy>
14.510352

> <b_lp_Chiralities_Consistent>
1

> <s_lp_Variant>
CHEMBL4618_lig510 -1

> <s_i_glide_gridfile>
glide-grid_3chp

> <i_i_glide_lignum>
610

> <i_i_glide_rotatable_bonds>
8

> <r_i_docking_score>
-8.59916487471024

> <r_i_glide_ligand_efficiency>
-0.286638829157008

> <r_i_glide_ligand_efficiency_sa>
-0.890653486415447

> <r_i_glide_ligand_efficiency_ln>
-1.95382395493989

> <r_i_glide_gscore>
-8.59916487471024

> <r_i_glide_lipo>
-4.67154476753351

> <r_i_glide_hbond>
-0.279260931783091

> <r_i_glide_metal>
0

> <r_i_glide_rewards>
-1.41352853334815

> <r_i_glide_evdw>
-58.2861061096191

> <r_i_glide_ecoul>
-0.267593830823898

> <r_i_glide_erotb>
0.770384490519505

> <r_i_glide_esite>
-0.0507707524604429

> <r_i_glide_emodel>
-81.3519407348248

> <r_i_glide_energy>
-58.553699940443

> <r_i_glide_einternal>
10.9674453735352

> <i_i_glide_confnum>
19

> <i_i_glide_posenum>
293

> <r_i_glide_eff_state_penalty>
0

> <s_user_duplicate_titles>
CHEMBL4618_lig510 

> <s_m_subgroup_title>
dock_pv

> <s_m_subgroupid>
dock_pv

> <b_m_subgroup_collapsed>
1

$$$$
CHEMBL4618_lig508 
                    3D
 Schrodinger Suite 2021-1.
 44 46  0  0  1  0            999 V2000
    7.9263   36.6164   69.5536 C   0  0  0  0  0  0
    8.5049   36.6198   70.8199 C   0  0  0  0  0  0
    8.8085   37.8209   71.4497 C   0  0  0  0  0  0
    8.5213   39.0151   70.7966 C   0  0  0  0  0  0
    7.9122   39.0157   69.5422 C   0  0  0  0  0  0
    7.6205   37.8104   68.9131 C   0  0  0  0  0  0
    7.6063   40.2052   68.9251 O   0  0  0  0  0  0
    8.5291   40.7975   68.0917 C   0  0  0  0  0  0
    8.4044   42.1594   67.8140 C   0  0  0  0  0  0
    9.3577   42.8058   67.0246 C   0  0  0  0  0  0
   10.4531   42.0984   66.5217 C   0  0  0  0  0  0
   10.5209   40.7245   66.7396 C   0  0  0  0  0  0
    9.5763   40.0784   67.5124 C   0  0  0  0  0  0
   11.5582   42.8206   65.7465 C   0  0  0  0  0  0
   12.8106   42.0553   65.7212 N   0  0  1  0  0  0
   13.8200   42.6152   64.8376 C   0  0  0  0  0  0
   14.5304   43.8242   65.4828 C   0  0  0  0  0  0
   15.9807   43.6176   65.9338 C   0  0  0  0  0  0
   16.4161   44.1743   67.1398 C   0  0  0  0  0  0
   17.7347   44.0200   67.5587 C   0  0  0  0  0  0
   18.6327   43.3269   66.7541 C   0  0  0  0  0  0
   18.2186   42.7874   65.5403 C   0  0  0  0  0  0
   16.9001   42.9440   65.1241 C   0  0  0  0  0  0
   19.9155   43.1820   67.1556 F   0  0  0  0  0  0
    7.7210   35.6839   69.0619 H   0  0  0  0  0  0
    8.7236   35.6818   71.3090 H   0  0  0  0  0  0
    9.2530   37.8261   72.4338 H   0  0  0  0  0  0
    8.7237   39.9464   71.2855 H   0  0  0  0  0  0
    7.1616   37.8031   67.9357 H   0  0  0  0  0  0
    7.5761   42.7206   68.2243 H   0  0  0  0  0  0
    9.2519   43.8607   66.8264 H   0  0  0  0  0  0
   11.3194   40.1488   66.3015 H   0  0  0  0  0  0
    9.7004   39.0175   67.6698 H   0  0  0  0  0  0
   11.7213   43.7921   66.2162 H   0  0  0  0  0  0
   11.2001   43.0050   64.7329 H   0  0  0  0  0  0
   13.1831   42.0197   66.6584 H   0  0  0  0  0  0
   13.3718   42.8838   63.8784 H   0  0  0  0  0  0
   14.5342   41.8229   64.6107 H   0  0  0  0  0  0
   13.9459   44.2159   66.3145 H   0  0  0  0  0  0
   14.5199   44.6161   64.7405 H   0  0  0  0  0  0
   15.7218   44.7036   67.7745 H   0  0  0  0  0  0
   18.0556   44.4328   68.5029 H   0  0  0  0  0  0
   18.9258   42.2724   64.9053 H   0  0  0  0  0  0
   16.6087   42.5777   64.1476 H   0  0  0  0  0  0
  1  2  2  0  0  0
  1  6  1  0  0  0
  1 25  1  0  0  0
  2  3  1  0  0  0
  2 26  1  0  0  0
  3  4  2  0  0  0
  3 27  1  0  0  0
  4  5  1  0  0  0
  4 28  1  0  0  0
  5  6  2  0  0  0
  5  7  1  0  0  0
  6 29  1  0  0  0
  7  8  1  0  0  0
  8  9  2  0  0  0
  8 13  1  0  0  0
  9 10  1  0  0  0
  9 30  1  0  0  0
 10 11  2  0  0  0
 10 31  1  0  0  0
 11 12  1  0  0  0
 11 14  1  0  0  0
 12 13  2  0  0  0
 12 32  1  0  0  0
 13 33  1  0  0  0
 14 15  1  0  0  0
 14 34  1  0  0  0
 14 35  1  0  0  0
 15 16  1  0  0  0
 15 36  1  0  0  0
 16 17  1  0  0  0
 16 37  1  0  0  0
 16 38  1  0  0  0
 17 18  1  0  0  0
 17 39  1  0  0  0
 17 40  1  0  0  0
 18 19  2  0  0  0
 18 23  1  0  0  0
 19 20  1  0  0  0
 19 41  1  0  0  0
 20 21  2  0  0  0
 20 42  1  0  0  0
 21 22  1  0  0  0
 21 24  1  0  0  0
 22 23  2  0  0  0
 22 43  1  0  0  0
 23 44  1  0  0  0
M  END
> <s_m_entry_id>
6921

> <s_m_entry_name>
dock_pv.351

> <s_m_Source_Path>
/home/csk/Desktop/cluster/DUD-E-result/lkha4

> <s_m_Source_File>
dock_pv.maegz

> <i_m_Source_File_Index>
351

> <chembl_id>
CHEMBL4463223

> <chembl_pref_name>
None

> <i_lp_mmshare_version>
53161

> <i_f3d_flags>
0

> <r_lp_tautomer_probability>
1

> <s_lp_Force_Field>
OPLS_2005

> <r_lp_Energy>
19.773179

> <b_lp_Chiralities_Consistent>
1

> <s_lp_Variant>
CHEMBL4618_lig508 -1

> <s_i_glide_gridfile>
glide-grid_3chp

> <i_i_glide_lignum>
608

> <i_i_glide_rotatable_bonds>
7

> <r_i_docking_score>
-8.5888951724115

> <r_i_glide_ligand_efficiency>
-0.357870632183813

> <r_i_glide_ligand_efficiency_sa>
-1.03227752989194

> <r_i_glide_ligand_efficiency_ln>
-2.05571673347641

> <r_i_glide_gscore>
-8.5888951724115

> <r_i_glide_lipo>
-4.88362447720165

> <r_i_glide_hbond>
0

> <r_i_glide_metal>
0

> <r_i_glide_rewards>
-2.11459814959232

> <r_i_glide_evdw>
-43.3296012878418

> <r_i_glide_ecoul>
-3.39754462242126

> <r_i_glide_erotb>
1.08543921213774

> <r_i_glide_esite>
0

> <r_i_glide_emodel>
-63.0529308084748

> <r_i_glide_energy>
-46.7271459102631

> <r_i_glide_einternal>
8.98642444610596

> <i_i_glide_confnum>
42

> <i_i_glide_posenum>
264

> <r_i_glide_eff_state_penalty>
0

> <s_user_duplicate_titles>
CHEMBL4618_lig508 

> <s_m_subgroup_title>
dock_pv

> <s_m_subgroupid>
dock_pv

> <b_m_subgroup_collapsed>
1

$$$$
CHEMBL4618_lig296
                    3D
 Schrodinger Suite 2021-1.
 47 50  0  0  1  0            999 V2000
    9.7211   34.9688   72.9385 C   0  0  0  0  0  0
   10.2479   36.0962   73.5613 C   0  0  0  0  0  0
   10.0516   37.3761   73.0330 C   0  0  0  0  0  0
    8.9209   35.0767   71.7995 C   0  0  0  0  0  0
    8.6971   36.3644   71.3004 C   0  0  0  0  0  0
    9.2629   37.5136   71.8778 C   0  0  0  0  0  0
    8.9200   38.6156   71.1400 N   0  0  0  0  0  0
    8.1905   38.0999   70.1743 C   0  0  0  0  0  0
    7.9775   36.7509   70.2080 O   0  0  0  0  0  0
    7.5264   38.7813   69.1838 O   0  0  0  0  0  0
    8.2042   39.7552   68.4880 C   0  0  0  0  0  0
    8.0276   41.1047   68.7856 C   0  0  0  0  0  0
    8.7804   42.0725   68.1253 C   0  0  0  0  0  0
    9.7094   41.7073   67.1512 C   0  0  0  0  0  0
    9.7950   40.3567   66.7778 C   0  0  0  0  0  0
    9.0500   39.3899   67.4468 C   0  0  0  0  0  0
   10.5036   42.7238   66.6475 O   0  0  0  0  0  0
   11.5709   42.4218   65.7462 C   0  0  0  0  0  0
   12.7383   43.4161   65.8997 C   0  0  0  0  0  0
   14.0683   42.8190   65.6852 N   0  0  0  0  0  0
   14.2420   42.1414   64.3900 C   0  0  0  0  0  0
   15.5932   41.3994   64.3778 C   0  0  0  0  0  0
   16.7722   42.3534   64.6080 C   0  0  0  0  0  0
   16.5385   43.1992   65.8666 C   0  0  0  0  0  0
   15.1238   43.8173   65.8982 C   0  0  0  0  0  0
    9.9221   33.9940   73.3598 H   0  0  0  0  0  0
   10.8454   35.9729   74.4534 H   0  0  0  0  0  0
   10.4999   38.2186   73.5219 H   0  0  0  0  0  0
    8.5205   34.2042   71.3154 H   0  0  0  0  0  0
    7.3224   41.4031   69.5416 H   0  0  0  0  0  0
    8.6655   43.1119   68.3917 H   0  0  0  0  0  0
   10.4500   40.0156   65.9929 H   0  0  0  0  0  0
    9.1592   38.3489   67.1805 H   0  0  0  0  0  0
   11.1728   42.5209   64.7407 H   0  0  0  0  0  0
   11.9610   41.4141   65.8810 H   0  0  0  0  0  0
   12.7057   43.8158   66.9118 H   0  0  0  0  0  0
   12.5951   44.2570   65.2186 H   0  0  0  0  0  0
   14.1586   42.8606   63.5717 H   0  0  0  0  0  0
   13.4564   41.4032   64.2322 H   0  0  0  0  0  0
   15.7212   40.8931   63.4241 H   0  0  0  0  0  0
   15.5554   40.6183   65.1365 H   0  0  0  0  0  0
   17.7194   41.8190   64.6681 H   0  0  0  0  0  0
   16.8577   43.0162   63.7461 H   0  0  0  0  0  0
   16.7352   42.6373   66.7789 H   0  0  0  0  0  0
   17.2695   44.0076   65.8832 H   0  0  0  0  0  0
   15.0291   44.6158   65.1556 H   0  0  0  0  0  0
   14.9729   44.2714   66.8786 H   0  0  0  0  0  0
  1  2  2  0  0  0
  1  4  1  0  0  0
  1 26  1  0  0  0
  2  3  1  0  0  0
  2 27  1  0  0  0
  3  6  2  0  0  0
  3 28  1  0  0  0
  4  5  2  0  0  0
  4 29  1  0  0  0
  5  9  1  0  0  0
  5  6  1  0  0  0
  6  7  1  0  0  0
  7  8  2  0  0  0
  8  9  1  0  0  0
  8 10  1  0  0  0
 10 11  1  0  0  0
 11 12  2  0  0  0
 11 16  1  0  0  0
 12 13  1  0  0  0
 12 30  1  0  0  0
 13 14  2  0  0  0
 13 31  1  0  0  0
 14 15  1  0  0  0
 14 17  1  0  0  0
 15 16  2  0  0  0
 15 32  1  0  0  0
 16 33  1  0  0  0
 17 18  1  0  0  0
 18 19  1  0  0  0
 18 34  1  0  0  0
 18 35  1  0  0  0
 19 20  1  0  0  0
 19 36  1  0  0  0
 19 37  1  0  0  0
 20 21  1  0  0  0
 20 25  1  0  0  0
 21 22  1  0  0  0
 21 38  1  0  0  0
 21 39  1  0  0  0
 22 23  1  0  0  0
 22 40  1  0  0  0
 22 41  1  0  0  0
 23 24  1  0  0  0
 23 42  1  0  0  0
 23 43  1  0  0  0
 24 25  1  0  0  0
 24 44  1  0  0  0
 24 45  1  0  0  0
 25 46  1  0  0  0
 25 47  1  0  0  0
M  END
> <s_m_entry_id>
6922

> <s_m_entry_name>
dock_pv.352

> <s_m_Source_Path>
/home/csk/Desktop/cluster/DUD-E-result/lkha4

> <s_m_Source_File>
dock_pv.maegz

> <i_m_Source_File_Index>
352

> <chembl_id>
CHEMBL481863

> <chembl_pref_name>
None

> <i_lp_mmshare_version>
53161

> <i_f3d_flags>
0

> <r_lp_tautomer_probability>
1

> <s_lp_Force_Field>
OPLS_2005

> <r_lp_Energy>
33.220367

> <b_lp_Chiralities_Consistent>
1

> <s_lp_Variant>
CHEMBL4618_lig296-1

> <s_i_glide_gridfile>
glide-grid_3chp

> <i_i_glide_lignum>
334

> <i_i_glide_rotatable_bonds>
6

> <r_i_docking_score>
-8.57219463047409

> <r_i_glide_ligand_efficiency>
-0.342887785218964

> <r_i_glide_ligand_efficiency_sa>
-1.00260996512101

> <r_i_glide_ligand_efficiency_ln>
-2.03186701536585

> <r_i_glide_gscore>
-8.57219463047409

> <r_i_glide_lipo>
-4.77981864894173

> <r_i_glide_hbond>
0

> <r_i_glide_metal>
0

> <r_i_glide_rewards>
-1.70995290023179

> <r_i_glide_evdw>
-49.2003059387207

> <r_i_glide_ecoul>
-2.98754072189331

> <r_i_glide_erotb>
0.825723323919462

> <r_i_glide_esite>
0

> <r_i_glide_emodel>
-73.2825734934537

> <r_i_glide_energy>
-52.187846660614

> <r_i_glide_einternal>
10.9131870269775

> <i_i_glide_confnum>
32

> <i_i_glide_posenum>
368

> <r_i_glide_eff_state_penalty>
0

> <s_user_duplicate_titles>
CHEMBL4618_lig296,467517

> <s_m_subgroup_title>
dock_pv

> <s_m_subgroupid>
dock_pv

> <b_m_subgroup_collapsed>
1

$$$$
CHEMBL4618_lig293
                    3D
 Schrodinger Suite 2021-1.
 50 53  0  0  1  0            999 V2000
    9.7455   34.9531   73.0643 C   0  0  0  0  0  0
   10.3053   36.0925   73.6376 C   0  0  0  0  0  0
   10.1067   37.3562   73.0775 C   0  0  0  0  0  0
    8.9217   35.0303   71.9400 C   0  0  0  0  0  0
    8.6976   36.3054   71.4102 C   0  0  0  0  0  0
    9.2880   37.4669   71.9406 C   0  0  0  0  0  0
    8.9209   38.5527   71.1901 N   0  0  0  0  0  0
    8.1393   38.0163   70.2769 C   0  0  0  0  0  0
    7.9351   36.6683   70.3407 O   0  0  0  0  0  0
    7.4510   38.6782   69.2910 O   0  0  0  0  0  0
    8.1207   39.6467   68.5850 C   0  0  0  0  0  0
    8.9455   39.2682   67.5322 C   0  0  0  0  0  0
    9.7210   40.2256   66.8874 C   0  0  0  0  0  0
    9.6649   41.5733   67.2811 C   0  0  0  0  0  0
    8.7440   41.9580   68.2495 C   0  0  0  0  0  0
    7.9837   40.9973   68.9040 C   0  0  0  0  0  0
   10.5017   42.5619   66.8038 O   0  0  0  0  0  0
   11.6841   42.1467   66.1309 C   0  0  0  0  0  0
   12.7025   43.2921   66.0208 C   0  0  0  0  0  0
   14.0488   42.8204   65.6622 N   0  0  0  0  0  0
   15.0943   43.8162   65.9043 C   0  0  0  0  0  0
   16.5444   43.3416   66.0991 C   0  0  0  0  0  0
   14.1367   41.9906   64.4575 C   0  0  0  0  0  0
   17.3214   42.8377   64.8678 C   0  0  0  0  0  0
   15.4037   41.1454   64.3048 C   0  0  0  0  0  0
   16.5937   41.9742   63.8189 C   0  0  0  0  0  0
    9.9341   33.9911   73.5207 H   0  0  0  0  0  0
   10.9179   35.9894   74.5232 H   0  0  0  0  0  0
   10.5582   38.2161   73.5385 H   0  0  0  0  0  0
    8.4533   34.1509   71.5276 H   0  0  0  0  0  0
    9.0285   38.2269   67.2566 H   0  0  0  0  0  0
   10.3935   39.8925   66.1102 H   0  0  0  0  0  0
    8.6607   42.9969   68.5340 H   0  0  0  0  0  0
    7.3207   41.3137   69.6871 H   0  0  0  0  0  0
   11.3907   41.8159   65.1405 H   0  0  0  0  0  0
   12.1515   41.3091   66.6546 H   0  0  0  0  0  0
   12.7344   43.8153   66.9778 H   0  0  0  0  0  0
   12.3634   44.0215   65.2829 H   0  0  0  0  0  0
   15.0324   44.5853   65.1403 H   0  0  0  0  0  0
   14.8514   44.3184   66.8394 H   0  0  0  0  0  0
   16.5896   42.6160   66.9050 H   0  0  0  0  0  0
   17.1059   44.1926   66.4869 H   0  0  0  0  0  0
   13.9975   42.6400   63.5901 H   0  0  0  0  0  0
   13.3195   41.2742   64.4163 H   0  0  0  0  0  0
   18.2041   42.2994   65.2168 H   0  0  0  0  0  0
   17.7210   43.7114   64.3483 H   0  0  0  0  0  0
   15.1932   40.3692   63.5680 H   0  0  0  0  0  0
   15.6308   40.6554   65.2490 H   0  0  0  0  0  0
   16.2419   42.6177   63.0111 H   0  0  0  0  0  0
   17.3211   41.3368   63.3178 H   0  0  0  0  0  0
  1  2  2  0  0  0
  1  4  1  0  0  0
  1 27  1  0  0  0
  2  3  1  0  0  0
  2 28  1  0  0  0
  3  6  2  0  0  0
  3 29  1  0  0  0
  4  5  2  0  0  0
  4 30  1  0  0  0
  5  9  1  0  0  0
  5  6  1  0  0  0
  6  7  1  0  0  0
  7  8  2  0  0  0
  8  9  1  0  0  0
  8 10  1  0  0  0
 10 11  1  0  0  0
 11 16  1  0  0  0
 11 12  2  0  0  0
 12 13  1  0  0  0
 12 31  1  0  0  0
 13 14  2  0  0  0
 13 32  1  0  0  0
 14 15  1  0  0  0
 14 17  1  0  0  0
 15 16  2  0  0  0
 15 33  1  0  0  0
 16 34  1  0  0  0
 17 18  1  0  0  0
 18 19  1  0  0  0
 18 35  1  0  0  0
 18 36  1  0  0  0
 19 20  1  0  0  0
 19 37  1  0  0  0
 19 38  1  0  0  0
 20 21  1  0  0  0
 20 23  1  0  0  0
 21 22  1  0  0  0
 21 39  1  0  0  0
 21 40  1  0  0  0
 22 24  1  0  0  0
 22 41  1  0  0  0
 22 42  1  0  0  0
 23 25  1  0  0  0
 23 43  1  0  0  0
 23 44  1  0  0  0
 24 26  1  0  0  0
 24 45  1  0  0  0
 24 46  1  0  0  0
 25 26  1  0  0  0
 25 47  1  0  0  0
 25 48  1  0  0  0
 26 49  1  0  0  0
 26 50  1  0  0  0
M  END
> <s_m_entry_id>
6923

> <s_m_entry_name>
dock_pv.353

> <s_m_Source_Path>
/home/csk/Desktop/cluster/DUD-E-result/lkha4

> <s_m_Source_File>
dock_pv.maegz

> <i_m_Source_File_Index>
353

> <chembl_id>
CHEMBL482254

> <chembl_pref_name>
None

> <i_lp_mmshare_version>
53161

> <i_f3d_flags>
0

> <r_lp_tautomer_probability>
1

> <s_lp_Force_Field>
OPLS_2005

> <r_lp_Energy>
37.338433

> <b_lp_Chiralities_Consistent>
1

> <s_lp_Variant>
CHEMBL4618_lig293-1

> <s_i_glide_gridfile>
glide-grid_3chp

> <i_i_glide_lignum>
331

> <i_i_glide_rotatable_bonds>
6

> <r_i_docking_score>
-8.55852904341804

> <r_i_glide_ligand_efficiency>
-0.329174193977617

> <r_i_glide_ligand_efficiency_sa>
-0.975177254420781

> <r_i_glide_ligand_efficiency_ln>
-2.0099424630224

> <r_i_glide_gscore>
-8.55852904341804

> <r_i_glide_lipo>
-4.7382807948375

> <r_i_glide_hbond>
0

> <r_i_glide_metal>
0

> <r_i_glide_rewards>
-1.61572880809662

> <r_i_glide_evdw>
-51.4772834777832

> <r_i_glide_ecoul>
-2.65955877304077

> <r_i_glide_erotb>
0.768278549361361

> <r_i_glide_esite>
0

> <r_i_glide_emodel>
-71.4820274004948

> <r_i_glide_energy>
-54.136842250824

> <r_i_glide_einternal>
15.6603584289551

> <i_i_glide_confnum>
9

> <i_i_glide_posenum>
175

> <r_i_glide_eff_state_penalty>
0

> <s_user_duplicate_titles>
CHEMBL4618_lig293,467577

> <s_m_subgroup_title>
dock_pv

> <s_m_subgroupid>
dock_pv

> <b_m_subgroup_collapsed>
1

$$$$
CHEMBL4618_lig196
                    3D
 Schrodinger Suite 2021-1.
 48 49  0  0  1  0            999 V2000
   10.5724   42.1740   66.2950 C   0  0  0  0  0  0
   10.9086   43.3883   65.6717 C   0  0  0  0  0  0
   12.1937   43.6179   65.1667 C   0  0  0  0  0  0
   13.1888   42.6437   65.2665 C   0  0  0  0  0  0
   12.8560   41.4127   65.8455 C   0  0  0  0  0  0
   11.5675   41.1948   66.3399 C   0  0  0  0  0  0
   14.4947   43.0039   64.8481 N   0  0  0  0  0  0
   15.6037   42.2356   64.7386 C   0  0  0  0  0  0
   15.6505   41.0161   64.7406 O   0  0  0  0  0  0
   16.9534   42.9240   64.6863 C   0  0  0  0  0  0
   17.5205   43.2155   66.0905 C   0  0  0  0  0  0
   18.5353   44.3742   66.0687 C   0  0  1  0  0  0
   19.0360   44.6871   67.4720 C   0  0  0  0  0  0
   19.6540   44.0636   65.1564 N   0  0  0  0  0  0
   19.5942   43.6131   68.0840 O   0  0  0  0  0  0
   18.9193   45.8110   67.9762 O   0  0  0  0  0  0
   20.0913   43.7077   69.4090 C   0  0  0  0  0  0
    9.2935   41.9023   66.8747 N   0  0  0  0  0  0
    8.8985   40.7115   67.5426 C   0  0  0  0  0  0
    8.3881   43.0270   67.1467 C   0  0  0  0  0  0
    8.4740   40.7128   68.8820 C   0  0  0  0  0  0
    8.1235   39.5202   69.5199 C   0  0  0  0  0  0
    8.1282   38.3287   68.8121 C   0  0  0  0  0  0
    8.5204   38.3229   67.4843 C   0  0  0  0  0  0
    8.9220   39.4922   66.8614 C   0  0  0  0  0  0
   10.1935   44.1889   65.5939 H   0  0  0  0  0  0
   12.4205   44.5822   64.7345 H   0  0  0  0  0  0
   13.5782   40.6161   65.9395 H   0  0  0  0  0  0
   11.3214   40.2427   66.7728 H   0  0  0  0  0  0
   14.6182   43.9727   64.5963 H   0  0  0  0  0  0
   16.9214   43.8159   64.0801 H   0  0  0  0  0  0
   17.6458   42.2658   64.1591 H   0  0  0  0  0  0
   18.0090   42.3101   66.4604 H   0  0  0  0  0  0
   16.7179   43.4332   66.8011 H   0  0  0  0  0  0
   18.0091   45.2546   65.6984 H   0  0  0  0  0  0
   19.3262   43.8133   64.2198 H   0  0  0  0  0  0
   20.2663   44.8553   65.0225 H   0  0  0  0  0  0
   20.4554   42.7339   69.7373 H   0  0  0  0  0  0
   19.3088   44.0260   70.0996 H   0  0  0  0  0  0
   20.9185   44.4175   69.4636 H   0  0  0  0  0  0
    7.3633   42.6874   67.3202 H   0  0  0  0  0  0
    8.6922   43.5278   68.0633 H   0  0  0  0  0  0
    8.3350   43.7572   66.3414 H   0  0  0  0  0  0
    8.4450   41.6323   69.4465 H   0  0  0  0  0  0
    7.8389   39.4917   70.5591 H   0  0  0  0  0  0
    7.8451   37.4059   69.2974 H   0  0  0  0  0  0
    8.5597   37.4148   66.9239 H   0  0  0  0  0  0
    9.2713   39.4179   65.8466 H   0  0  0  0  0  0
  1  6  1  0  0  0
  1  2  2  0  0  0
  1 18  1  0  0  0
  2  3  1  0  0  0
  2 26  1  0  0  0
  3  4  2  0  0  0
  3 27  1  0  0  0
  4  7  1  0  0  0
  4  5  1  0  0  0
  5  6  2  0  0  0
  5 28  1  0  0  0
  6 29  1  0  0  0
  7  8  1  0  0  0
  7 30  1  0  0  0
  8  9  2  0  0  0
  8 10  1  0  0  0
 10 11  1  0  0  0
 10 31  1  0  0  0
 10 32  1  0  0  0
 11 12  1  0  0  0
 11 33  1  0  0  0
 11 34  1  0  0  0
 12 13  1  0  0  0
 12 14  1  0  0  0
 12 35  1  0  0  0
 13 15  1  0  0  0
 13 16  2  0  0  0
 14 36  1  0  0  0
 14 37  1  0  0  0
 15 17  1  0  0  0
 17 38  1  0  0  0
 17 39  1  0  0  0
 17 40  1  0  0  0
 18 19  1  0  0  0
 18 20  1  0  0  0
 19 21  2  0  0  0
 19 25  1  0  0  0
 20 41  1  0  0  0
 20 42  1  0  0  0
 20 43  1  0  0  0
 21 22  1  0  0  0
 21 44  1  0  0  0
 22 23  2  0  0  0
 22 45  1  0  0  0
 23 24  1  0  0  0
 23 46  1  0  0  0
 24 25  2  0  0  0
 24 47  1  0  0  0
 25 48  1  0  0  0
M  END
> <s_m_entry_id>
6924

> <s_m_entry_name>
dock_pv.354

> <s_m_Source_Path>
/home/csk/Desktop/cluster/DUD-E-result/lkha4

> <s_m_Source_File>
dock_pv.maegz

> <i_m_Source_File_Index>
354

> <chembl_id>
CHEMBL478380

> <chembl_pref_name>
None

> <i_lp_mmshare_version>
53161

> <i_f3d_flags>
0

> <r_lp_tautomer_probability>
1

> <s_lp_Force_Field>
OPLS_2005

> <r_lp_Energy>
23.854934

> <b_lp_Chiralities_Consistent>
1

> <s_lp_Variant>
CHEMBL4618_lig196-1

> <s_i_glide_gridfile>
glide-grid_3chp

> <i_i_glide_lignum>
224

> <i_i_glide_rotatable_bonds>
9

> <r_i_docking_score>
-8.55839577324665

> <r_i_glide_ligand_efficiency>
-0.342335830929866

> <r_i_glide_ligand_efficiency_sa>
-1.00099604099074

> <r_i_glide_ligand_efficiency_ln>
-2.02859627268456

> <r_i_glide_gscore>
-8.55839577324665

> <r_i_glide_lipo>
-3.65890840616819

> <r_i_glide_hbond>
-0.589761766505567

> <r_i_glide_metal>
0

> <r_i_glide_rewards>
-1.29743343407206

> <r_i_glide_evdw>
-42.4570808410645

> <r_i_glide_ecoul>
-13.4050216674805

> <r_i_glide_erotb>
1.30062083102186

> <r_i_glide_esite>
-0.179305705347403

> <r_i_glide_emodel>
-78.0448552054857

> <r_i_glide_energy>
-55.8621025085449

> <r_i_glide_einternal>
22.3044815063477

> <i_i_glide_confnum>
80

> <i_i_glide_posenum>
250

> <r_i_glide_eff_state_penalty>
0

> <s_user_duplicate_titles>
CHEMBL4618_lig196

> <s_m_subgroup_title>
dock_pv

> <s_m_subgroupid>
dock_pv

> <b_m_subgroup_collapsed>
1

$$$$
CHEMBL4618_lig40
                    3D
 Schrodinger Suite 2021-1.
 46 48  0  0  1  0            999 V2000
   13.1653   42.7735   65.5283 N   0  0  1  0  0  0
   13.7208   42.0152   64.4115 C   0  0  0  0  0  0
   15.5528   43.0731   65.5682 C   0  0  0  0  0  0
   14.2011   43.7762   65.7448 C   0  0  0  0  0  0
   15.1705   41.7782   64.8420 C   0  0  2  0  0  0
    8.0757   39.3581   68.8328 C   0  0  0  0  0  0
    7.3210   38.4581   69.7966 C   0  0  0  0  0  0
    9.5453   40.9352   67.0554 C   0  0  0  0  0  0
   16.1210   41.3573   63.8330 N   0  0  0  0  0  0
    8.1814   40.7369   69.0447 C   0  0  0  0  0  0
    8.6032   38.7936   67.6782 C   0  0  0  0  0  0
    9.3211   39.5849   66.7957 C   0  0  0  0  0  0
    8.9212   41.5269   68.1623 C   0  0  0  0  0  0
    8.1577   37.6212   70.7424 C   0  0  0  0  0  0
   11.8236   43.3377   65.3119 C   0  0  0  0  0  0
   10.3952   41.5799   66.1764 O   0  0  0  0  0  0
   10.8195   42.9192   66.4147 C   0  0  0  0  0  0
    8.1237   36.2398   70.6230 C   0  0  0  0  0  0
    8.8623   38.2116   71.7869 C   0  0  0  0  0  0
    8.7943   35.4361   71.5417 C   0  0  0  0  0  0
    9.5480   37.4151   72.7046 C   0  0  0  0  0  0
    9.5061   36.0288   72.5809 C   0  0  0  0  0  0
   13.6091   42.5233   63.4507 H   0  0  0  0  0  0
   13.1619   41.0824   64.3390 H   0  0  0  0  0  0
   15.9965   42.9097   66.5479 H   0  0  0  0  0  0
   16.2002   43.7145   64.9683 H   0  0  0  0  0  0
   14.0891   44.2007   66.7399 H   0  0  0  0  0  0
   14.0930   44.6161   65.0567 H   0  0  0  0  0  0
   15.1339   40.9497   65.5400 H   0  0  0  0  0  0
    6.6428   39.0160   70.4253 H   0  0  0  0  0  0
    6.6802   37.8049   69.2021 H   0  0  0  0  0  0
   15.5792   41.0523   63.0097 H   0  0  0  0  0  0
   16.5793   42.1918   63.4617 H   0  0  0  0  0  0
    7.7210   41.1977   69.9047 H   0  0  0  0  0  0
    8.4967   37.7368   67.4813 H   0  0  0  0  0  0
    9.7785   39.1189   65.9399 H   0  0  0  0  0  0
    9.0318   42.5812   68.3657 H   0  0  0  0  0  0
   11.8613   44.4263   65.2577 H   0  0  0  0  0  0
   11.4321   43.0160   64.3461 H   0  0  0  0  0  0
   11.2711   43.0155   67.4042 H   0  0  0  0  0  0
    9.9514   43.5796   66.3802 H   0  0  0  0  0  0
    7.5560   35.8159   69.8140 H   0  0  0  0  0  0
    8.8427   39.2839   71.8899 H   0  0  0  0  0  0
    8.7505   34.3601   71.4586 H   0  0  0  0  0  0
   10.0898   37.8614   73.5255 H   0  0  0  0  0  0
   10.0213   35.4082   73.2997 H   0  0  0  0  0  0
  1  2  1  0  0  0
  1  4  1  0  0  0
  1 15  1  0  0  0
  2  5  1  0  0  0
  2 23  1  0  0  0
  2 24  1  0  0  0
  3  4  1  0  0  0
  3  5  1  0  0  0
  3 25  1  0  0  0
  3 26  1  0  0  0
  4 27  1  0  0  0
  4 28  1  0  0  0
  5  9  1  0  0  0
  5 29  1  0  0  0
  6 10  2  0  0  0
  6  7  1  0  0  0
  6 11  1  0  0  0
  7 14  1  0  0  0
  7 30  1  0  0  0
  7 31  1  0  0  0
  8 16  1  0  0  0
  8 12  1  0  0  0
  8 13  2  0  0  0
  9 32  1  0  0  0
  9 33  1  0  0  0
 10 13  1  0  0  0
 10 34  1  0  0  0
 11 12  2  0  0  0
 11 35  1  0  0  0
 12 36  1  0  0  0
 13 37  1  0  0  0
 14 18  2  0  0  0
 14 19  1  0  0  0
 15 17  1  0  0  0
 15 38  1  0  0  0
 15 39  1  0  0  0
 16 17  1  0  0  0
 17 40  1  0  0  0
 17 41  1  0  0  0
 18 20  1  0  0  0
 18 42  1  0  0  0
 19 21  2  0  0  0
 19 43  1  0  0  0
 20 22  2  0  0  0
 20 44  1  0  0  0
 21 22  1  0  0  0
 21 45  1  0  0  0
 22 46  1  0  0  0
M  END
> <s_m_entry_id>
6925

> <s_m_entry_name>
dock_pv.355

> <s_m_Source_Path>
/home/csk/Desktop/cluster/DUD-E-result/lkha4

> <s_m_Source_File>
dock_pv.maegz

> <i_m_Source_File_Index>
355

> <chembl_id>
CHEMBL325273

> <chembl_pref_name>
None

> <i_lp_mmshare_version>
53161

> <i_f3d_flags>
0

> <r_lp_tautomer_probability>
1

> <s_lp_Force_Field>
OPLS_2005

> <r_lp_Energy>
47.835379

> <b_lp_Chiralities_Consistent>
1

> <s_lp_Variant>
CHEMBL4618_lig40-2

> <s_i_glide_gridfile>
glide-grid_3chp

> <i_i_glide_lignum>
56

> <i_i_glide_rotatable_bonds>
6

> <r_i_docking_score>
-8.54755855578172

> <r_i_glide_ligand_efficiency>
-0.388525388899169

> <r_i_glide_ligand_efficiency_sa>
-1.08866341953195

> <r_i_glide_ligand_efficiency_ln>
-2.08933509080676

> <r_i_glide_gscore>
-8.54755855578172

> <r_i_glide_lipo>
-4.96127494172218

> <r_i_glide_hbond>
-0.16

> <r_i_glide_metal>
0

> <r_i_glide_rewards>
-2.28775987544175

> <r_i_glide_evdw>
-37.144603729248

> <r_i_glide_ecoul>
-11.8898191452026

> <r_i_glide_erotb>
2.50217931962501

> <r_i_glide_esite>
0

> <r_i_glide_emodel>
-70.3381456297778

> <r_i_glide_energy>
-49.0344228744507

> <r_i_glide_einternal>
4.6699743270874

> <i_i_glide_confnum>
3

> <i_i_glide_posenum>
52

> <r_i_glide_eff_state_penalty>
0

> <s_user_duplicate_titles>
CHEMBL4618_lig40,188104

> <s_m_subgroup_title>
dock_pv

> <s_m_subgroupid>
dock_pv

> <b_m_subgroup_collapsed>
1

$$$$
CHEMBL4618_lig415
                    3D
 Schrodinger Suite 2021-1.
 42 45  0  0  1  0            999 V2000
   11.9409   43.4160   65.1033 N   0  0  0  0  0  0
   10.6866   43.5147   65.6049 C   0  0  0  0  0  0
   12.0869   41.1403   65.9400 C   0  0  0  0  0  0
   12.6151   42.2554   65.2827 C   0  0  0  0  0  0
   10.8047   41.2701   66.5245 C   0  0  0  0  0  0
   10.1023   42.4875   66.3450 C   0  0  0  0  0  0
    8.5406   42.4100   67.1402 S   0  0  0  0  0  0
    8.9580   40.7965   67.6435 C   0  0  0  0  0  0
   10.1182   40.3321   67.2453 N   0  0  0  0  0  0
    7.9666   40.1457   68.3401 O   0  0  0  0  0  0
    8.2234   39.0645   69.1468 C   0  0  0  0  0  0
    7.6597   37.8270   68.8466 C   0  0  0  0  0  0
    7.7896   36.7722   69.7482 C   0  0  0  0  0  0
    8.5211   36.9225   70.9263 C   0  0  0  0  0  0
    9.0953   38.1624   71.2129 C   0  0  0  0  0  0
    8.9199   39.2323   70.3403 C   0  0  0  0  0  0
    8.6538   35.7039   71.8456 C   0  0  0  0  0  0
    9.7446   35.7355   72.8325 N   0  0  0  0  0  0
    9.3340   36.3992   74.0794 C   0  0  0  0  0  0
   10.5210   36.5127   75.0593 C   0  0  0  0  0  0
   11.1301   35.1464   75.4102 C   0  0  0  0  0  0
   11.3210   34.2935   74.1541 C   0  0  0  0  0  0
   10.1696   34.3633   73.1394 C   0  0  0  0  0  0
   10.1700   44.4481   65.4592 H   0  0  0  0  0  0
   12.6436   40.2162   65.9400 H   0  0  0  0  0  0
   13.5886   42.2032   64.8176 H   0  0  0  0  0  0
    7.0867   37.7014   67.9394 H   0  0  0  0  0  0
    7.3321   35.8189   69.5397 H   0  0  0  0  0  0
    9.6681   38.2958   72.1137 H   0  0  0  0  0  0
    9.2772   40.2140   70.6076 H   0  0  0  0  0  0
    8.7962   34.8512   71.1787 H   0  0  0  0  0  0
    7.7023   35.5266   72.3401 H   0  0  0  0  0  0
    8.5046   35.8550   74.5350 H   0  0  0  0  0  0
    8.9509   37.3978   73.8754 H   0  0  0  0  0  0
   10.1865   37.0026   75.9748 H   0  0  0  0  0  0
   11.2730   37.1806   74.6373 H   0  0  0  0  0  0
   12.0869   35.2855   75.9149 H   0  0  0  0  0  0
   10.5210   34.6164   76.1350 H   0  0  0  0  0  0
   12.2162   34.6160   73.6511 H   0  0  0  0  0  0
   11.5069   33.2547   74.4315 H   0  0  0  0  0  0
    9.3210   33.8160   73.5257 H   0  0  0  0  0  0
   10.4793   33.8636   72.2197 H   0  0  0  0  0  0
  1  2  2  0  0  0
  1  4  1  0  0  0
  2  6  1  0  0  0
  2 24  1  0  0  0
  3  5  1  0  0  0
  3  4  2  0  0  0
  3 25  1  0  0  0
  4 26  1  0  0  0
  5  6  2  0  0  0
  5  9  1  0  0  0
  6  7  1  0  0  0
  7  8  1  0  0  0
  8  9  2  0  0  0
  8 10  1  0  0  0
 10 11  1  0  0  0
 11 12  2  0  0  0
 11 16  1  0  0  0
 12 13  1  0  0  0
 12 27  1  0  0  0
 13 14  2  0  0  0
 13 28  1  0  0  0
 14 15  1  0  0  0
 14 17  1  0  0  0
 15 16  2  0  0  0
 15 29  1  0  0  0
 16 30  1  0  0  0
 17 18  1  0  0  0
 17 31  1  0  0  0
 17 32  1  0  0  0
 18 19  1  0  0  0
 18 23  1  0  0  0
 19 20  1  0  0  0
 19 33  1  0  0  0
 19 34  1  0  0  0
 20 21  1  0  0  0
 20 35  1  0  0  0
 20 36  1  0  0  0
 21 22  1  0  0  0
 21 37  1  0  0  0
 21 38  1  0  0  0
 22 23  1  0  0  0
 22 39  1  0  0  0
 22 40  1  0  0  0
 23 41  1  0  0  0
 23 42  1  0  0  0
M  END
> <s_m_entry_id>
6926

> <s_m_entry_name>
dock_pv.356

> <s_m_Source_Path>
/home/csk/Desktop/cluster/DUD-E-result/lkha4

> <s_m_Source_File>
dock_pv.maegz

> <i_m_Source_File_Index>
356

> <chembl_id>
CHEMBL2207731

> <chembl_pref_name>
None

> <i_lp_mmshare_version>
53161

> <i_f3d_flags>
0

> <r_lp_tautomer_probability>
1

> <s_lp_Force_Field>
OPLS_2005

> <r_lp_Energy>
22.879731

> <b_lp_Chiralities_Consistent>
1

> <s_lp_Variant>
CHEMBL4618_lig415-1

> <s_i_glide_gridfile>
glide-grid_3chp

> <i_i_glide_lignum>
482

> <i_i_glide_rotatable_bonds>
4

> <r_i_docking_score>
-8.52290735479674

> <r_i_glide_ligand_efficiency>
-0.370561189338989

> <r_i_glide_ligand_efficiency_sa>
-1.05382672927425

> <r_i_glide_ligand_efficiency_ln>
-2.06091627984101

> <r_i_glide_gscore>
-8.52290735479674

> <r_i_glide_lipo>
-5.03169050093615

> <r_i_glide_hbond>
0

> <r_i_glide_metal>
0

> <r_i_glide_rewards>
-2.09025709090909

> <r_i_glide_evdw>
-41.3609313964844

> <r_i_glide_ecoul>
-0.271771907806396

> <r_i_glide_erotb>
0.707852593043687

> <r_i_glide_esite>
0

> <r_i_glide_emodel>
-54.0734394531634

> <r_i_glide_energy>
-41.6327033042908

> <r_i_glide_einternal>
4.7546706199646

> <i_i_glide_confnum>
34

> <i_i_glide_posenum>
304

> <r_i_glide_eff_state_penalty>
0

> <s_user_duplicate_titles>
CHEMBL4618_lig415

> <s_m_subgroup_title>
dock_pv

> <s_m_subgroupid>
dock_pv

> <b_m_subgroup_collapsed>
1

$$$$
CHEMBL4618_lig101
                    3D
 Schrodinger Suite 2021-1.
 41 43  0  0  1  0            999 V2000
    9.5354   41.7302   67.4259 N   0  0  0  0  0  0
    9.1844   36.5753   71.9392 C   0  0  0  0  0  0
    9.8144   35.7021   72.9513 C   0  0  0  0  0  0
    8.1600   36.1342   71.1102 C   0  0  0  0  0  0
    9.6671   37.8644   71.7635 C   0  0  0  0  0  0
    8.0827   38.2794   69.9870 C   0  0  0  0  0  0
    9.1177   38.7144   70.8110 C   0  0  0  0  0  0
    7.6216   36.9809   70.1474 C   0  0  0  0  0  0
    7.4644   39.0527   69.0231 O   0  0  0  0  0  0
    9.1003   40.3811   67.7994 C   0  0  0  0  0  0
    7.9021   40.3911   68.7744 C   0  0  0  0  0  0
    8.5494   42.4712   66.6458 C   0  0  0  0  0  0
   10.7031   41.7103   66.5527 C   0  0  0  0  0  0
   10.1696   36.2368   74.1923 C   0  0  0  0  0  0
   10.1521   34.3811   72.6471 C   0  0  0  0  0  0
   10.7782   43.1162   65.9589 C   0  0  0  0  0  0
    9.3217   43.5825   65.9274 C   0  0  0  0  0  0
   10.9211   35.4973   75.0888 C   0  0  0  0  0  0
   10.9202   33.6419   73.5396 C   0  0  0  0  0  0
   11.3218   34.2158   74.7402 C   0  0  0  0  0  0
    7.7758   35.1291   71.2130 H   0  0  0  0  0  0
   10.4836   38.2159   72.3745 H   0  0  0  0  0  0
    9.4936   39.7165   70.7403 H   0  0  0  0  0  0
    6.8186   36.6194   69.5402 H   0  0  0  0  0  0
    8.8397   39.8078   66.9076 H   0  0  0  0  0  0
    9.9337   39.8530   68.2621 H   0  0  0  0  0  0
    8.1213   40.9447   69.6871 H   0  0  0  0  0  0
    7.0542   40.9172   68.3401 H   0  0  0  0  0  0
    7.7785   42.8718   67.3051 H   0  0  0  0  0  0
    8.0405   41.8166   65.9420 H   0  0  0  0  0  0
   10.6362   40.9356   65.7885 H   0  0  0  0  0  0
   11.5851   41.4578   67.1400 H   0  0  0  0  0  0
    9.9080   37.2523   74.4390 H   0  0  0  0  0  0
    9.8791   33.9447   71.6987 H   0  0  0  0  0  0
   11.2267   43.1034   64.9650 H   0  0  0  0  0  0
   11.3985   43.7633   66.5789 H   0  0  0  0  0  0
    9.1755   44.5403   66.4148 H   0  0  0  0  0  0
    8.9697   43.7240   64.9089 H   0  0  0  0  0  0
   11.2285   35.9386   76.0220 H   0  0  0  0  0  0
   11.2120   32.6321   73.2903 H   0  0  0  0  0  0
   11.9442   33.6580   75.4218 H   0  0  0  0  0  0
  1 10  1  0  0  0
  1 12  1  0  0  0
  1 13  1  0  0  0
  2  4  1  0  0  0
  2  3  1  0  0  0
  2  5  2  0  0  0
  3 14  2  0  0  0
  3 15  1  0  0  0
  4  8  2  0  0  0
  4 21  1  0  0  0
  5  7  1  0  0  0
  5 22  1  0  0  0
  6  9  1  0  0  0
  6  7  2  0  0  0
  6  8  1  0  0  0
  7 23  1  0  0  0
  8 24  1  0  0  0
  9 11  1  0  0  0
 10 11  1  0  0  0
 10 25  1  0  0  0
 10 26  1  0  0  0
 11 27  1  0  0  0
 11 28  1  0  0  0
 12 17  1  0  0  0
 12 29  1  0  0  0
 12 30  1  0  0  0
 13 16  1  0  0  0
 13 31  1  0  0  0
 13 32  1  0  0  0
 14 18  1  0  0  0
 14 33  1  0  0  0
 15 19  2  0  0  0
 15 34  1  0  0  0
 16 17  1  0  0  0
 16 35  1  0  0  0
 16 36  1  0  0  0
 17 37  1  0  0  0
 17 38  1  0  0  0
 18 20  2  0  0  0
 18 39  1  0  0  0
 19 20  1  0  0  0
 19 40  1  0  0  0
 20 41  1  0  0  0
M  END
> <s_m_entry_id>
6927

> <s_m_entry_name>
dock_pv.357

> <s_m_Source_Path>
/home/csk/Desktop/cluster/DUD-E-result/lkha4

> <s_m_Source_File>
dock_pv.maegz

> <i_m_Source_File_Index>
357

> <chembl_id>
CHEMBL119054

> <chembl_pref_name>
None

> <i_lp_mmshare_version>
53161

> <i_f3d_flags>
0

> <r_lp_tautomer_probability>
1

> <s_lp_Force_Field>
OPLS_2005

> <r_lp_Energy>
39.309993

> <b_lp_Chiralities_Consistent>
1

> <s_lp_Variant>
CHEMBL4618_lig101-1

> <s_i_glide_gridfile>
glide-grid_3chp

> <i_i_glide_lignum>
125

> <i_i_glide_rotatable_bonds>
5

> <r_i_docking_score>
-8.51586268678269

> <r_i_glide_ligand_efficiency>
-0.425793134339134

> <r_i_glide_ligand_efficiency_sa>
-1.15578038372117

> <r_i_glide_ligand_efficiency_ln>
-2.13123955855238

> <r_i_glide_gscore>
-8.51586268678269

> <r_i_glide_lipo>
-5.01535102550474

> <r_i_glide_hbond>
0

> <r_i_glide_metal>
0

> <r_i_glide_rewards>
-2.47393801782893

> <r_i_glide_evdw>
-33.3852577209473

> <r_i_glide_ecoul>
-2.36708354949951

> <r_i_glide_erotb>
0.997751775023272

> <r_i_glide_esite>
0

> <r_i_glide_emodel>
-51.0777298710961

> <r_i_glide_energy>
-35.7523412704468

> <r_i_glide_einternal>
3.98068618774414

> <i_i_glide_confnum>
17

> <i_i_glide_posenum>
147

> <r_i_glide_eff_state_penalty>
0

> <s_user_duplicate_titles>
CHEMBL4618_lig101,192898

> <s_m_subgroup_title>
dock_pv

> <s_m_subgroupid>
dock_pv

> <b_m_subgroup_collapsed>
1

$$$$
CHEMBL4618_lig499
                    3D
 Schrodinger Suite 2021-1.
 44 44  0  0  1  0            999 V2000
    7.3655   41.3214   68.5103 C   0  0  0  0  0  0
    8.6013   40.4289   68.7150 C   0  0  2  0  0  0
    9.8260   40.6526   67.8020 C   0  0  0  0  0  0
   10.2004   41.7078   67.0294 C   0  0  0  0  0  0
    9.3799   42.9893   66.8958 C   0  0  0  0  0  0
   11.4847   41.5930   66.3402 C   0  0  0  0  0  0
   12.3248   42.6240   66.0911 C   0  0  0  0  0  0
   13.6130   42.4432   65.4598 C   0  0  0  0  0  0
   13.9414   41.4155   64.8669 O   0  0  0  0  0  0
   14.4305   43.4951   65.6256 N   0  0  0  0  0  0
   15.7478   43.4085   65.1421 O   0  0  0  0  0  0
    8.2392   38.9169   68.7767 C   0  0  0  0  0  0
    7.7212   38.4045   67.7842 O   0  0  0  0  0  0
    8.5212   38.1108   70.0220 C   0  0  0  0  0  0
    8.1211   36.7707   70.0767 C   0  0  0  0  0  0
    8.4998   35.9567   71.1426 C   0  0  0  0  0  0
    9.2586   36.4486   72.2063 C   0  0  0  0  0  0
    9.5886   37.8026   72.1854 C   0  0  0  0  0  0
    9.2356   38.6160   71.1108 C   0  0  0  0  0  0
    9.6891   35.5988   73.2571 N   0  0  0  0  0  0
   10.1001   34.2426   72.8924 C   0  0  0  0  0  0
   10.3247   36.1639   74.4481 C   0  0  0  0  0  0
    7.0827   41.4162   67.4653 H   0  0  0  0  0  0
    6.5217   40.9192   69.0574 H   0  0  0  0  0  0
    7.5142   42.3208   68.9153 H   0  0  0  0  0  0
    8.9211   40.7111   69.7044 H   0  0  0  0  0  0
   10.5171   39.8165   67.8266 H   0  0  0  0  0  0
    9.9086   43.8144   66.4166 H   0  0  0  0  0  0
    8.4615   42.8002   66.3410 H   0  0  0  0  0  0
    9.0914   43.3559   67.8777 H   0  0  0  0  0  0
   11.7894   40.6048   66.0243 H   0  0  0  0  0  0
   12.0790   43.6316   66.3969 H   0  0  0  0  0  0
   14.2184   44.3766   66.0681 H   0  0  0  0  0  0
   15.7206   43.9107   64.3100 H   0  0  0  0  0  0
    7.5667   36.3236   69.2646 H   0  0  0  0  0  0
    8.1683   34.9335   71.1400 H   0  0  0  0  0  0
   10.1740   38.2155   72.9877 H   0  0  0  0  0  0
    9.5816   39.6298   71.1392 H   0  0  0  0  0  0
    9.3287   33.7082   72.3401 H   0  0  0  0  0  0
   10.9610   34.2898   72.2306 H   0  0  0  0  0  0
   10.3723   33.6468   73.7648 H   0  0  0  0  0  0
   11.3205   36.5355   74.2102 H   0  0  0  0  0  0
    9.7458   37.0039   74.8371 H   0  0  0  0  0  0
   10.4137   35.4231   75.2432 H   0  0  0  0  0  0
  1  2  1  0  0  0
  1 23  1  0  0  0
  1 24  1  0  0  0
  1 25  1  0  0  0
  2  3  1  0  0  0
  2 12  1  0  0  0
  2 26  1  0  0  0
  3  4  2  0  0  0
  3 27  1  0  0  0
  4  5  1  0  0  0
  4  6  1  0  0  0
  5 28  1  0  0  0
  5 29  1  0  0  0
  5 30  1  0  0  0
  6  7  2  0  0  0
  6 31  1  0  0  0
  7  8  1  0  0  0
  7 32  1  0  0  0
  8  9  2  0  0  0
  8 10  1  0  0  0
 10 11  1  0  0  0
 10 33  1  0  0  0
 11 34  1  0  0  0
 12 13  2  0  0  0
 12 14  1  0  0  0
 14 15  2  0  0  0
 14 19  1  0  0  0
 15 16  1  0  0  0
 15 35  1  0  0  0
 16 17  2  0  0  0
 16 36  1  0  0  0
 17 18  1  0  0  0
 17 20  1  0  0  0
 18 19  2  0  0  0
 18 37  1  0  0  0
 19 38  1  0  0  0
 20 21  1  0  0  0
 20 22  1  0  0  0
 21 39  1  0  0  0
 21 40  1  0  0  0
 21 41  1  0  0  0
 22 42  1  0  0  0
 22 43  1  0  0  0
 22 44  1  0  0  0
M  END
> <s_m_entry_id>
6929

> <s_m_entry_name>
dock_pv.359

> <s_m_Source_Path>
/home/csk/Desktop/cluster/DUD-E-result/lkha4

> <s_m_Source_File>
dock_pv.maegz

> <i_m_Source_File_Index>
359

> <chembl_id>
CHEMBL99

> <chembl_pref_name>
TRICHOSTATIN

> <i_lp_mmshare_version>
53161

> <i_f3d_flags>
0

> <r_lp_tautomer_probability>
1

> <s_lp_Force_Field>
OPLS_2005

> <r_lp_Energy>
27.04124

> <b_lp_Chiralities_Consistent>
1

> <s_lp_Variant>
CHEMBL4618_lig499-1

> <s_i_glide_gridfile>
glide-grid_3chp

> <i_i_glide_lignum>
599

> <i_i_glide_rotatable_bonds>
8

> <r_i_docking_score>
-8.5058070329854

> <r_i_glide_ligand_efficiency>
-0.386627592408427

> <r_i_glide_ligand_efficiency_sa>
-1.08334571912879

> <r_i_glide_ligand_efficiency_ln>
-2.07912949571155

> <r_i_glide_gscore>
-8.5058070329854

> <r_i_glide_lipo>
-4.34434419485727

> <r_i_glide_hbond>
0

> <r_i_glide_metal>
0

> <r_i_glide_rewards>
-2.18751041012943

> <r_i_glide_evdw>
-43.2615928649902

> <r_i_glide_ecoul>
-6.79416704177856

> <r_i_glide_erotb>
1.20825227151759

> <r_i_glide_esite>
0

> <r_i_glide_emodel>
-65.5819337004927

> <r_i_glide_energy>
-50.0557599067688

> <r_i_glide_einternal>
6.41349983215332

> <i_i_glide_confnum>
32

> <i_i_glide_posenum>
202

> <r_i_glide_eff_state_penalty>
0

> <s_user_duplicate_titles>
CHEMBL4618_lig499

> <s_m_subgroup_title>
dock_pv

> <s_m_subgroupid>
dock_pv

> <b_m_subgroup_collapsed>
1

$$$$
CHEMBL4618_lig215
                    3D
 Schrodinger Suite 2021-1.
 49 51  0  0  1  0            999 V2000
    8.1156   37.5835   70.1351 C   0  0  0  0  0  0
    8.1209   37.2505   68.7810 C   0  0  0  0  0  0
    8.4147   38.2161   67.8136 C   0  0  0  0  0  0
    8.6425   39.5427   68.1860 C   0  0  0  0  0  0
    8.5210   39.8848   69.5375 C   0  0  0  0  0  0
    8.2925   38.9118   70.5007 C   0  0  0  0  0  0
    9.0595   40.4440   67.1785 N   0  0  0  0  0  0
    9.2457   41.7832   67.2610 C   0  0  0  0  0  0
    8.9130   42.4819   68.2161 O   0  0  0  0  0  0
    9.9741   42.4566   66.0867 C   0  0  0  0  0  0
   11.4990   42.1558   66.0636 C   0  0  0  0  0  0
   12.3970   43.3858   65.7782 C   0  0  1  0  0  0
   13.8348   43.2427   66.3404 C   0  0  0  0  0  0
   12.3854   43.7929   64.3803 N   0  0  0  0  0  0
   14.8591   42.6696   65.4745 N   0  0  0  0  0  0
    7.8410   36.6155   71.0745 O   0  0  0  0  0  0
    8.7910   36.1982   71.9883 C   0  0  0  0  0  0
    9.2362   34.8762   71.9391 C   0  0  0  0  0  0
   10.1239   34.3780   72.8880 C   0  0  0  0  0  0
   10.5516   35.2052   73.9204 C   0  0  0  0  0  0
   10.1205   36.5258   73.9876 C   0  0  0  0  0  0
    9.2373   37.0166   73.0275 C   0  0  0  0  0  0
   14.7370   41.6419   64.5717 C   0  0  0  0  0  0
   15.9684   41.4174   63.9832 C   0  0  0  0  0  0
   16.9013   42.2236   64.6283 C   0  0  0  0  0  0
   16.1977   42.9854   65.5402 C   0  0  0  0  0  0
    7.9486   36.2264   68.4871 H   0  0  0  0  0  0
    8.4906   37.9173   66.7784 H   0  0  0  0  0  0
    8.6318   40.8950   69.8847 H   0  0  0  0  0  0
    8.2078   39.2153   71.5305 H   0  0  0  0  0  0
    9.3087   40.0087   66.3038 H   0  0  0  0  0  0
    9.8110   43.5306   66.1926 H   0  0  0  0  0  0
    9.5034   42.2162   65.1403 H   0  0  0  0  0  0
   11.7230   41.3323   65.3912 H   0  0  0  0  0  0
   11.7854   41.7669   67.0422 H   0  0  0  0  0  0
   11.9517   44.2070   66.3350 H   0  0  0  0  0  0
   13.7980   42.6291   67.2311 H   0  0  0  0  0  0
   14.2004   44.2159   66.6517 H   0  0  0  0  0  0
   12.9772   44.6067   64.2842 H   0  0  0  0  0  0
   12.8392   43.0831   63.8206 H   0  0  0  0  0  0
    8.8709   34.2238   71.1614 H   0  0  0  0  0  0
   10.4546   33.3497   72.8421 H   0  0  0  0  0  0
   11.2248   34.8192   74.6734 H   0  0  0  0  0  0
   10.4558   37.1602   74.7947 H   0  0  0  0  0  0
    8.8799   38.0274   73.1235 H   0  0  0  0  0  0
   13.7728   41.2024   64.3649 H   0  0  0  0  0  0
   16.1410   40.7710   63.1396 H   0  0  0  0  0  0
   17.9552   42.3150   64.3974 H   0  0  0  0  0  0
   16.5375   43.7622   66.2096 H   0  0  0  0  0  0
  1  2  2  0  0  0
  1 16  1  0  0  0
  1  6  1  0  0  0
  2  3  1  0  0  0
  2 27  1  0  0  0
  3  4  2  0  0  0
  3 28  1  0  0  0
  4  7  1  0  0  0
  4  5  1  0  0  0
  5  6  2  0  0  0
  5 29  1  0  0  0
  6 30  1  0  0  0
  7  8  1  0  0  0
  7 31  1  0  0  0
  8  9  2  0  0  0
  8 10  1  0  0  0
 10 11  1  0  0  0
 10 32  1  0  0  0
 10 33  1  0  0  0
 11 12  1  0  0  0
 11 34  1  0  0  0
 11 35  1  0  0  0
 12 13  1  0  0  0
 12 14  1  0  0  0
 12 36  1  0  0  0
 13 15  1  0  0  0
 13 37  1  0  0  0
 13 38  1  0  0  0
 14 39  1  0  0  0
 14 40  1  0  0  0
 15 23  1  0  0  0
 15 26  1  0  0  0
 16 17  1  0  0  0
 17 18  2  0  0  0
 17 22  1  0  0  0
 18 19  1  0  0  0
 18 41  1  0  0  0
 19 20  2  0  0  0
 19 42  1  0  0  0
 20 21  1  0  0  0
 20 43  1  0  0  0
 21 22  2  0  0  0
 21 44  1  0  0  0
 22 45  1  0  0  0
 23 24  2  0  0  0
 23 46  1  0  0  0
 24 25  1  0  0  0
 24 47  1  0  0  0
 25 26  2  0  0  0
 25 48  1  0  0  0
 26 49  1  0  0  0
M  END
> <s_m_entry_id>
6931

> <s_m_entry_name>
dock_pv.361

> <s_m_Source_Path>
/home/csk/Desktop/cluster/DUD-E-result/lkha4

> <s_m_Source_File>
dock_pv.maegz

> <i_m_Source_File_Index>
361

> <chembl_id>
CHEMBL479216

> <chembl_pref_name>
None

> <i_lp_mmshare_version>
53161

> <i_f3d_flags>
0

> <r_lp_tautomer_probability>
1

> <s_lp_Force_Field>
OPLS_2005

> <r_lp_Energy>
25.046838

> <b_lp_Chiralities_Consistent>
1

> <s_lp_Variant>
CHEMBL4618_lig215-1

> <s_i_glide_gridfile>
glide-grid_3chp

> <i_i_glide_lignum>
243

> <i_i_glide_rotatable_bonds>
9

> <r_i_docking_score>
-8.4867996269074

> <r_i_glide_ligand_efficiency>
-0.326415370265669

> <r_i_glide_ligand_efficiency_sa>
-0.967004250029583

> <r_i_glide_ligand_efficiency_ln>
-1.99309704491829

> <r_i_glide_gscore>
-8.4867996269074

> <r_i_glide_lipo>
-4.70662338617092

> <r_i_glide_hbond>
-0.0190060397243182

> <r_i_glide_metal>
0

> <r_i_glide_rewards>
-1.44753115254095

> <r_i_glide_evdw>
-52.5288276672363

> <r_i_glide_ecoul>
-5.69441032409668

> <r_i_glide_erotb>
1.24807928538972

> <r_i_glide_esite>
-0.081115401884611

> <r_i_glide_emodel>
-74.8861064555007

> <r_i_glide_energy>
-58.223237991333

> <r_i_glide_einternal>
17.9583511352539

> <i_i_glide_confnum>
64

> <i_i_glide_posenum>
374

> <r_i_glide_eff_state_penalty>
0

> <s_user_duplicate_titles>
CHEMBL4618_lig215,507062

> <s_m_subgroup_title>
dock_pv

> <s_m_subgroupid>
dock_pv

> <b_m_subgroup_collapsed>
1

$$$$
CHEMBL4618_lig376
                    3D
 Schrodinger Suite 2021-1.
 50 52  0  0  1  0            999 V2000
    8.5206   35.9850   70.7790 C   0  0  0  0  0  0
    8.9814   36.4718   71.9893 C   0  0  0  0  0  0
    8.9982   37.8357   72.2100 C   0  0  0  0  0  0
    8.5298   38.7108   71.2324 C   0  0  0  0  0  0
    8.0675   38.2283   70.0108 C   0  0  0  0  0  0
    8.0717   36.8522   69.7828 C   0  0  0  0  0  0
    7.4766   39.1922   68.9835 C   0  0  0  0  0  0
    8.4480   40.1491   68.3097 C   0  0  0  0  0  0
    8.4129   41.5103   68.6200 C   0  0  0  0  0  0
    9.3208   42.3794   68.0255 C   0  0  0  0  0  0
   10.2824   41.9065   67.1368 C   0  0  0  0  0  0
   10.2281   40.5655   66.7401 C   0  0  0  0  0  0
    9.3204   39.6889   67.3270 C   0  0  0  0  0  0
   11.2683   42.7874   66.7294 O   0  0  0  0  0  0
   12.4514   42.2384   66.1474 C   0  0  0  0  0  0
   13.5984   43.2682   66.1232 C   0  0  0  0  0  0
   14.8288   42.7093   65.5381 N   0  0  2  0  0  0
   15.9619   43.6426   65.5063 C   0  0  2  0  0  0
   16.9217   43.0343   64.4774 C   0  0  0  0  0  0
   16.0602   42.2045   63.5404 C   0  0  0  0  0  0
   14.6624   42.3153   64.1346 C   0  0  0  0  0  0
   16.6739   43.8384   66.8663 C   0  0  0  0  0  0
   17.4676   43.0160   67.3248 O   0  0  0  0  0  0
   16.3765   45.0156   67.4472 O   0  0  0  0  0  0
   16.9103   45.3488   68.7210 C   0  0  0  0  0  0
    8.5210   34.9232   70.6320 H   0  0  0  0  0  0
    9.3321   35.7919   72.7521 H   0  0  0  0  0  0
    9.3732   38.2160   73.1417 H   0  0  0  0  0  0
    8.5210   39.7727   71.4282 H   0  0  0  0  0  0
    7.7211   36.4490   68.8449 H   0  0  0  0  0  0
    6.7504   39.8158   69.5007 H   0  0  0  0  0  0
    6.9280   38.6285   68.2266 H   0  0  0  0  0  0
    7.7038   41.8960   69.3392 H   0  0  0  0  0  0
    9.3137   43.4160   68.3069 H   0  0  0  0  0  0
   10.9193   40.1666   66.0130 H   0  0  0  0  0  0
    9.3213   38.6463   67.0416 H   0  0  0  0  0  0
   12.2017   41.9103   65.1401 H   0  0  0  0  0  0
   12.7924   41.3653   66.7072 H   0  0  0  0  0  0
   13.7947   43.6014   67.1399 H   0  0  0  0  0  0
   13.2833   44.1527   65.5662 H   0  0  0  0  0  0
   15.6380   44.6158   65.1401 H   0  0  0  0  0  0
   17.3785   43.8585   63.9441 H   0  0  0  0  0  0
   17.7287   42.4264   64.8903 H   0  0  0  0  0  0
   16.0915   42.6161   62.5303 H   0  0  0  0  0  0
   16.3957   41.1745   63.4663 H   0  0  0  0  0  0
   14.0486   43.0204   63.5680 H   0  0  0  0  0  0
   14.1339   41.3628   64.0738 H   0  0  0  0  0  0
   16.5566   46.3336   69.0254 H   0  0  0  0  0  0
   18.0008   45.3689   68.6987 H   0  0  0  0  0  0
   16.5936   44.6287   69.4775 H   0  0  0  0  0  0
  1  6  1  0  0  0
  1  2  2  0  0  0
  1 26  1  0  0  0
  2  3  1  0  0  0
  2 27  1  0  0  0
  3  4  2  0  0  0
  3 28  1  0  0  0
  4  5  1  0  0  0
  4 29  1  0  0  0
  5  7  1  0  0  0
  5  6  2  0  0  0
  6 30  1  0  0  0
  7  8  1  0  0  0
  7 31  1  0  0  0
  7 32  1  0  0  0
  8 13  1  0  0  0
  8  9  2  0  0  0
  9 10  1  0  0  0
  9 33  1  0  0  0
 10 11  2  0  0  0
 10 34  1  0  0  0
 11 14  1  0  0  0
 11 12  1  0  0  0
 12 13  2  0  0  0
 12 35  1  0  0  0
 13 36  1  0  0  0
 14 15  1  0  0  0
 15 16  1  0  0  0
 15 37  1  0  0  0
 15 38  1  0  0  0
 16 17  1  0  0  0
 16 39  1  0  0  0
 16 40  1  0  0  0
 17 18  1  0  0  0
 17 21  1  0  0  0
 18 19  1  0  0  0
 18 22  1  0  0  0
 18 41  1  0  0  0
 19 20  1  0  0  0
 19 42  1  0  0  0
 19 43  1  0  0  0
 20 21  1  0  0  0
 20 44  1  0  0  0
 20 45  1  0  0  0
 21 46  1  0  0  0
 21 47  1  0  0  0
 22 23  2  0  0  0
 22 24  1  0  0  0
 24 25  1  0  0  0
 25 48  1  0  0  0
 25 49  1  0  0  0
 25 50  1  0  0  0
M  END
> <s_m_entry_id>
6932

> <s_m_entry_name>
dock_pv.362

> <s_m_Source_Path>
/home/csk/Desktop/cluster/DUD-E-result/lkha4

> <s_m_Source_File>
dock_pv.maegz

> <i_m_Source_File_Index>
362

> <chembl_id>
CHEMBL1770405

> <chembl_pref_name>
None

> <i_lp_mmshare_version>
53161

> <i_f3d_flags>
0

> <r_lp_tautomer_probability>
1

> <s_lp_Force_Field>
OPLS_2005

> <r_lp_Energy>
38.27887

> <b_lp_Chiralities_Consistent>
1

> <s_lp_Variant>
CHEMBL4618_lig376-1

> <s_i_glide_gridfile>
glide-grid_3chp

> <i_i_glide_lignum>
433

> <i_i_glide_rotatable_bonds>
8

> <r_i_docking_score>
-8.48061711147752

> <r_i_glide_ligand_efficiency>
-0.339224684459101

> <r_i_glide_ligand_efficiency_sa>
-0.991898993533807

> <r_i_glide_ligand_efficiency_ln>
-2.01016039900687

> <r_i_glide_gscore>
-8.48061711147752

> <r_i_glide_lipo>
-4.49254200668341

> <r_i_glide_hbond>
-0.083086173668045

> <r_i_glide_metal>
0

> <r_i_glide_rewards>
-1.98024287243208

> <r_i_glide_evdw>
-42.2708129882812

> <r_i_glide_ecoul>
-6.40681219100952

> <r_i_glide_erotb>
1.14981641937151

> <r_i_glide_esite>
0

> <r_i_glide_emodel>
-65.8863076930406

> <r_i_glide_energy>
-48.6776251792908

> <r_i_glide_einternal>
7.66724157333374

> <i_i_glide_confnum>
8

> <i_i_glide_posenum>
84

> <r_i_glide_eff_state_penalty>
0

> <s_user_duplicate_titles>
CHEMBL4618_lig376

> <s_m_subgroup_title>
dock_pv

> <s_m_subgroupid>
dock_pv

> <b_m_subgroup_collapsed>
1

$$$$
CHEMBL4618_lig252
                    3D
 Schrodinger Suite 2021-1.
 65 67  0  0  1  0            999 V2000
    8.7636   40.7442   67.6748 C   0  0  0  0  0  0
    8.8751   42.1304   67.7022 C   0  0  0  0  0  0
    9.9600   42.7481   67.0844 C   0  0  0  0  0  0
   10.9514   42.0018   66.4469 C   0  0  0  0  0  0
   10.7725   40.6177   66.3401 C   0  0  0  0  0  0
    9.6882   39.9967   66.9483 C   0  0  0  0  0  0
   12.0929   42.7057   65.9952 N   0  0  0  0  0  0
   13.2691   42.2095   65.5405 C   0  0  0  0  0  0
   14.4173   43.2379   65.3618 C   0  0  0  0  0  0
   13.4611   41.0174   65.3123 O   0  0  0  0  0  0
   15.7254   42.6064   65.0820 N   0  0  1  0  0  0
    7.7239   40.1445   68.3423 O   0  0  0  0  0  0
    7.9868   39.0502   69.1319 C   0  0  0  0  0  0
    7.6931   37.7696   68.6775 C   0  0  0  0  0  0
    7.9236   36.6777   69.5109 C   0  0  0  0  0  0
    8.4286   36.8596   70.7941 C   0  0  0  0  0  0
    8.7346   38.1366   71.2466 C   0  0  0  0  0  0
    8.5234   39.2226   70.4019 C   0  0  0  0  0  0
   15.8079   42.1752   63.6853 C   0  0  0  0  0  0
   16.8820   43.4575   65.3809 C   0  0  0  0  0  0
   17.1294   43.5137   66.8934 C   0  0  0  0  0  0
   18.2570   44.4656   67.3527 C   0  0  0  0  0  0
   18.2796   44.7223   68.8004 N   0  0  2  0  0  0
   18.2449   43.4579   69.5646 C   0  0  0  0  0  0
   17.1932   45.6343   69.1718 C   0  0  0  0  0  0
   18.5892   43.6009   71.0375 C   0  0  0  0  0  0
   19.8680   43.2699   71.4886 C   0  0  0  0  0  0
   20.1947   43.4156   72.8338 C   0  0  0  0  0  0
   19.2563   43.9331   73.7358 C   0  0  0  0  0  0
   17.9515   44.2124   73.2954 C   0  0  0  0  0  0
   17.6241   44.0287   71.9526 C   0  0  0  0  0  0
   19.6908   44.2150   75.1408 C   0  0  0  0  0  0
   20.1210   43.1169   75.8145 O   0  0  0  0  0  0
   19.7181   45.3556   75.5984 O   0  0  0  0  0  0
   16.5906   44.8701   74.4641 Br  0  0  0  0  0  0
    8.1346   42.7221   68.2223 H   0  0  0  0  0  0
   10.0411   43.8158   67.1387 H   0  0  0  0  0  0
   11.4576   39.9823   65.8070 H   0  0  0  0  0  0
    9.5846   38.9249   66.8743 H   0  0  0  0  0  0
   12.0560   43.7030   66.1346 H   0  0  0  0  0  0
   14.1235   43.9443   64.5826 H   0  0  0  0  0  0
   14.4489   43.8276   66.2781 H   0  0  0  0  0  0
    7.2844   37.6269   67.6880 H   0  0  0  0  0  0
    7.7212   35.6871   69.1483 H   0  0  0  0  0  0
    8.5906   36.0046   71.4335 H   0  0  0  0  0  0
    9.1232   38.2823   72.2437 H   0  0  0  0  0  0
    8.7350   40.2160   70.7409 H   0  0  0  0  0  0
   16.8013   41.8169   63.4108 H   0  0  0  0  0  0
   15.1214   41.3437   63.5399 H   0  0  0  0  0  0
   15.5424   42.9649   62.9826 H   0  0  0  0  0  0
   17.7776   43.0186   64.9352 H   0  0  0  0  0  0
   16.8157   44.4506   64.9391 H   0  0  0  0  0  0
   16.2297   43.5654   67.5041 H   0  0  0  0  0  0
   17.5305   42.5238   67.1126 H   0  0  0  0  0  0
   19.2195   44.0233   67.0856 H   0  0  0  0  0  0
   18.2321   45.3993   66.7879 H   0  0  0  0  0  0
   17.2736   42.9684   69.4856 H   0  0  0  0  0  0
   18.9599   42.7584   69.1260 H   0  0  0  0  0  0
   17.3147   45.9890   70.1941 H   0  0  0  0  0  0
   17.1947   46.5216   68.5392 H   0  0  0  0  0  0
   16.2113   45.1643   69.0930 H   0  0  0  0  0  0
   20.6124   42.9000   70.7981 H   0  0  0  0  0  0
   21.1951   43.1659   73.1605 H   0  0  0  0  0  0
   16.6181   44.2432   71.6183 H   0  0  0  0  0  0
   20.6756   43.4158   76.5447 H   0  0  0  0  0  0
  1 12  1  0  0  0
  1  6  1  0  0  0
  1  2  2  0  0  0
  2  3  1  0  0  0
  2 36  1  0  0  0
  3  4  2  0  0  0
  3 37  1  0  0  0
  4  5  1  0  0  0
  4  7  1  0  0  0
  5  6  2  0  0  0
  5 38  1  0  0  0
  6 39  1  0  0  0
  7  8  1  0  0  0
  7 40  1  0  0  0
  8  9  1  0  0  0
  8 10  2  0  0  0
  9 11  1  0  0  0
  9 41  1  0  0  0
  9 42  1  0  0  0
 11 19  1  0  0  0
 11 20  1  0  0  0
 12 13  1  0  0  0
 13 18  1  0  0  0
 13 14  2  0  0  0
 14 15  1  0  0  0
 14 43  1  0  0  0
 15 16  2  0  0  0
 15 44  1  0  0  0
 16 17  1  0  0  0
 16 45  1  0  0  0
 17 18  2  0  0  0
 17 46  1  0  0  0
 18 47  1  0  0  0
 19 48  1  0  0  0
 19 49  1  0  0  0
 19 50  1  0  0  0
 20 21  1  0  0  0
 20 51  1  0  0  0
 20 52  1  0  0  0
 21 22  1  0  0  0
 21 53  1  0  0  0
 21 54  1  0  0  0
 22 23  1  0  0  0
 22 55  1  0  0  0
 22 56  1  0  0  0
 23 24  1  0  0  0
 23 25  1  0  0  0
 24 26  1  0  0  0
 24 57  1  0  0  0
 24 58  1  0  0  0
 25 59  1  0  0  0
 25 60  1  0  0  0
 25 61  1  0  0  0
 26 27  2  0  0  0
 26 31  1  0  0  0
 27 28  1  0  0  0
 27 62  1  0  0  0
 28 29  2  0  0  0
 28 63  1  0  0  0
 29 30  1  0  0  0
 29 32  1  0  0  0
 30 31  2  0  0  0
 30 35  1  0  0  0
 31 64  1  0  0  0
 32 33  1  0  0  0
 32 34  2  0  0  0
 33 65  1  0  0  0
M  END
> <s_m_entry_id>
6933

> <s_m_entry_name>
dock_pv.363

> <s_m_Source_Path>
/home/csk/Desktop/cluster/DUD-E-result/lkha4

> <s_m_Source_File>
dock_pv.maegz

> <i_m_Source_File_Index>
363

> <chembl_id>
CHEMBL480125

> <chembl_pref_name>
None

> <i_lp_mmshare_version>
53161

> <i_f3d_flags>
0

> <r_lp_tautomer_probability>
1

> <s_lp_Force_Field>
OPLS_2005

> <r_lp_Energy>
41.848407

> <b_lp_Chiralities_Consistent>
1

> <s_lp_Variant>
CHEMBL4618_lig252-1

> <s_i_glide_gridfile>
glide-grid_3chp

> <i_i_glide_lignum>
289

> <i_i_glide_rotatable_bonds>
14

> <r_i_docking_score>
-8.46993743472832

> <r_i_glide_ligand_efficiency>
-0.241998212420809

> <r_i_glide_ligand_efficiency_sa>
-0.791592198837442

> <r_i_glide_ligand_efficiency_ln>
-1.85933924705613

> <r_i_glide_gscore>
-8.46993743472832

> <r_i_glide_lipo>
-4.47886164572709

> <r_i_glide_hbond>
-0.108819555078317

> <r_i_glide_metal>
0

> <r_i_glide_rewards>
-0.497522107275739

> <r_i_glide_evdw>
-57.2629737854004

> <r_i_glide_ecoul>
-9.28957748413086

> <r_i_glide_erotb>
0.920175071360014

> <r_i_glide_esite>
-0.0483238861175403

> <r_i_glide_emodel>
-98.533921990688

> <r_i_glide_energy>
-66.5525512695312

> <r_i_glide_einternal>
10.0429649353027

> <i_i_glide_confnum>
74

> <i_i_glide_posenum>
234

> <r_i_glide_eff_state_penalty>
0

> <s_user_duplicate_titles>
CHEMBL4618_lig252,466722

> <s_m_subgroup_title>
dock_pv

> <s_m_subgroupid>
dock_pv

> <b_m_subgroup_collapsed>
1

$$$$
CHEMBL4618_lig236
                    3D
 Schrodinger Suite 2021-1.
 62 64  0  0  1  0            999 V2000
    8.2871   36.9781   71.3289 C   0  0  0  0  0  0
    7.7210   36.6977   70.0891 C   0  0  0  0  0  0
    7.8094   37.5977   69.0387 C   0  0  0  0  0  0
    8.4171   38.8269   69.2536 C   0  0  0  0  0  0
    8.9204   39.1401   70.5212 C   0  0  0  0  0  0
    8.8724   38.2148   71.5507 C   0  0  0  0  0  0
    8.5216   39.6723   68.1464 N   0  0  0  0  0  0
    8.6093   41.0146   68.1351 C   0  0  0  0  0  0
    8.8359   41.6151   66.7360 C   0  0  0  0  0  0
    8.5210   41.7187   69.1400 O   0  0  0  0  0  0
    9.2269   43.0285   66.7460 N   0  0  1  0  0  0
    8.1826   36.0610   72.3400 O   0  0  0  0  0  0
    9.3209   35.5556   72.9250 C   0  0  0  0  0  0
    9.8709   34.3753   72.4264 C   0  0  0  0  0  0
   10.8672   33.7173   73.1413 C   0  0  0  0  0  0
   11.3269   34.2591   74.3400 C   0  0  0  0  0  0
   10.8137   35.4639   74.8187 C   0  0  0  0  0  0
    9.8046   36.1133   74.1102 C   0  0  0  0  0  0
    9.7972   43.6058   65.5128 C   0  0  0  0  0  0
   11.0248   42.9146   64.8761 C   0  0  0  0  0  0
    8.0785   43.8648   67.1402 C   0  0  0  0  0  0
   12.3800   43.4142   65.1508 N   0  0  1  0  0  0
   13.3314   42.3099   64.9133 C   0  0  0  0  0  0
   14.7780   42.6572   65.2392 C   0  0  0  0  0  0
   15.0669   43.4588   66.3400 C   0  0  0  0  0  0
   16.3747   43.8159   66.6354 C   0  0  0  0  0  0
   17.4201   43.3706   65.8236 C   0  0  0  0  0  0
   17.1267   42.5283   64.7401 C   0  0  0  0  0  0
   15.8133   42.1805   64.4393 C   0  0  0  0  0  0
   18.8292   43.8159   66.1263 C   0  0  0  0  0  0
   19.7318   43.5782   65.1382 O   0  0  0  0  0  0
   19.1272   44.3858   67.1767 O   0  0  0  0  0  0
   12.7536   44.5097   64.2429 C   0  0  0  0  0  0
    7.1901   35.7881   69.9400 H   0  0  0  0  0  0
    7.3884   37.3436   68.0761 H   0  0  0  0  0  0
    9.3210   40.1077   70.7401 H   0  0  0  0  0  0
    9.2533   38.4596   72.5282 H   0  0  0  0  0  0
    8.5281   39.2092   67.2505 H   0  0  0  0  0  0
    7.9022   41.4667   66.1988 H   0  0  0  0  0  0
    9.5840   40.9857   66.2618 H   0  0  0  0  0  0
    9.4556   33.9238   71.5400 H   0  0  0  0  0  0
   11.2613   32.7774   72.7825 H   0  0  0  0  0  0
   12.0847   33.7367   74.9065 H   0  0  0  0  0  0
   11.1703   35.8705   75.7548 H   0  0  0  0  0  0
    9.3585   37.0143   74.5063 H   0  0  0  0  0  0
   10.0924   44.6160   65.7275 H   0  0  0  0  0  0
    9.0118   43.6893   64.7621 H   0  0  0  0  0  0
   10.8996   43.0160   63.7992 H   0  0  0  0  0  0
   10.9877   41.8605   65.1400 H   0  0  0  0  0  0
    7.9633   43.8796   68.2226 H   0  0  0  0  0  0
    8.1473   44.9025   66.8095 H   0  0  0  0  0  0
    7.1374   43.4897   66.7401 H   0  0  0  0  0  0
   13.2739   41.9750   63.8747 H   0  0  0  0  0  0
   13.0658   41.4512   65.5332 H   0  0  0  0  0  0
   14.2645   43.8158   66.9704 H   0  0  0  0  0  0
   16.5576   44.4500   67.4922 H   0  0  0  0  0  0
   17.9013   42.1747   64.0787 H   0  0  0  0  0  0
   15.5944   41.5946   63.5560 H   0  0  0  0  0  0
   19.3250   43.4161   64.2722 H   0  0  0  0  0  0
   12.1210   45.3761   64.3400 H   0  0  0  0  0  0
   13.7543   44.8787   64.4527 H   0  0  0  0  0  0
   12.7420   44.2025   63.1961 H   0  0  0  0  0  0
  1  2  2  0  0  0
  1 12  1  0  0  0
  1  6  1  0  0  0
  2  3  1  0  0  0
  2 34  1  0  0  0
  3  4  2  0  0  0
  3 35  1  0  0  0
  4  7  1  0  0  0
  4  5  1  0  0  0
  5  6  2  0  0  0
  5 36  1  0  0  0
  6 37  1  0  0  0
  7  8  1  0  0  0
  7 38  1  0  0  0
  8  9  1  0  0  0
  8 10  2  0  0  0
  9 11  1  0  0  0
  9 39  1  0  0  0
  9 40  1  0  0  0
 11 21  1  0  0  0
 11 19  1  0  0  0
 12 13  1  0  0  0
 13 14  2  0  0  0
 13 18  1  0  0  0
 14 15  1  0  0  0
 14 41  1  0  0  0
 15 16  2  0  0  0
 15 42  1  0  0  0
 16 17  1  0  0  0
 16 43  1  0  0  0
 17 18  2  0  0  0
 17 44  1  0  0  0
 18 45  1  0  0  0
 19 20  1  0  0  0
 19 46  1  0  0  0
 19 47  1  0  0  0
 20 22  1  0  0  0
 20 48  1  0  0  0
 20 49  1  0  0  0
 21 50  1  0  0  0
 21 51  1  0  0  0
 21 52  1  0  0  0
 22 23  1  0  0  0
 22 33  1  0  0  0
 23 24  1  0  0  0
 23 53  1  0  0  0
 23 54  1  0  0  0
 24 25  2  0  0  0
 24 29  1  0  0  0
 25 26  1  0  0  0
 25 55  1  0  0  0
 26 27  2  0  0  0
 26 56  1  0  0  0
 27 28  1  0  0  0
 27 30  1  0  0  0
 28 29  2  0  0  0
 28 57  1  0  0  0
 29 58  1  0  0  0
 30 31  1  0  0  0
 30 32  2  0  0  0
 31 59  1  0  0  0
 33 60  1  0  0  0
 33 61  1  0  0  0
 33 62  1  0  0  0
M  END
> <s_m_entry_id>
6934

> <s_m_entry_name>
dock_pv.364

> <s_m_Source_Path>
/home/csk/Desktop/cluster/DUD-E-result/lkha4

> <s_m_Source_File>
dock_pv.maegz

> <i_m_Source_File_Index>
364

> <chembl_id>
CHEMBL518607

> <chembl_pref_name>
None

> <i_lp_mmshare_version>
53161

> <i_f3d_flags>
0

> <r_lp_tautomer_probability>
1

> <s_lp_Force_Field>
OPLS_2005

> <r_lp_Energy>
41.284016

> <b_lp_Chiralities_Consistent>
1

> <s_lp_Variant>
CHEMBL4618_lig236-1

> <s_i_glide_gridfile>
glide-grid_3chp

> <i_i_glide_lignum>
271

> <i_i_glide_rotatable_bonds>
13

> <r_i_docking_score>
-8.46728939633841

> <r_i_glide_ligand_efficiency>
-0.25658452716177

> <r_i_glide_ligand_efficiency_sa>
-0.823003678457911

> <r_i_glide_ligand_efficiency_ln>
-1.8830813204675

> <r_i_glide_gscore>
-8.46728939633841

> <r_i_glide_lipo>
-4.65575560778722

> <r_i_glide_hbond>
0

> <r_i_glide_metal>
0

> <r_i_glide_rewards>
-0.882148777747517

> <r_i_glide_evdw>
-58.9793548583984

> <r_i_glide_ecoul>
-7.63288545608521

> <r_i_glide_erotb>
1.19984191527242

> <r_i_glide_esite>
-0.03532636474338

> <r_i_glide_emodel>
-86.8534412603928

> <r_i_glide_energy>
-66.6122403144836

> <r_i_glide_einternal>
14.0887727737427

> <i_i_glide_confnum>
91

> <i_i_glide_posenum>
227

> <r_i_glide_eff_state_penalty>
0

> <s_user_duplicate_titles>
CHEMBL4618_lig236,466983

> <s_m_subgroup_title>
dock_pv

> <s_m_subgroupid>
dock_pv

> <b_m_subgroup_collapsed>
1

$$$$
CHEMBL4618_lig226
                    3D
 Schrodinger Suite 2021-1.
 66 69  0  0  1  0            999 V2000
   14.4210   42.5482   64.8940 C   0  0  0  0  0  0
   13.8165   41.3319   65.1409 C   0  0  0  0  0  0
   12.5501   41.2646   65.7018 C   0  0  0  0  0  0
   11.8374   42.4368   65.9117 C   0  0  0  0  0  0
   12.3741   43.6607   65.5048 C   0  0  0  0  0  0
   13.6677   43.7059   64.9989 C   0  0  0  0  0  0
   10.6015   42.3138   66.5421 N   0  0  0  0  0  0
    9.4849   43.0185   66.2912 C   0  0  0  0  0  0
    8.2062   42.6121   67.0442 C   0  0  0  0  0  0
    9.4142   43.8751   65.4144 O   0  0  0  0  0  0
   15.7614   42.5754   64.5915 O   0  0  0  0  0  0
   16.6899   43.0455   65.5071 C   0  0  0  0  0  0
   18.0248   42.7559   65.2384 C   0  0  0  0  0  0
   19.0361   43.1744   66.0981 C   0  0  0  0  0  0
   18.7089   43.8899   67.2458 C   0  0  0  0  0  0
   17.3815   44.1976   67.5301 C   0  0  0  0  0  0
   16.3758   43.7829   66.6619 C   0  0  0  0  0  0
    8.5148   42.0768   68.3758 N   0  0  2  0  0  0
    8.2566   38.6022   69.2778 N   0  0  2  0  0  0
    7.5175   38.1533   70.4650 C   0  0  0  0  0  0
    8.3567   37.2319   71.3659 C   0  0  0  0  0  0
    8.4581   35.8624   71.1239 C   0  0  0  0  0  0
    9.2209   35.0372   71.9405 C   0  0  0  0  0  0
    9.9070   35.5687   73.0374 C   0  0  0  0  0  0
    9.7963   36.9406   73.2934 C   0  0  0  0  0  0
    9.0281   37.7566   72.4608 C   0  0  0  0  0  0
   10.7254   34.6752   73.9400 C   0  0  0  0  0  0
   10.9207   33.4146   73.4657 O   0  0  0  0  0  0
   11.1841   35.0525   75.0155 O   0  0  0  0  0  0
    7.6721   39.6400   68.4028 C   0  0  2  0  0  0
    8.3646   39.4597   67.0199 C   0  0  0  0  0  0
    9.1691   38.2402   67.2307 C   0  0  0  0  0  0
    8.4211   37.5207   68.3235 C   0  0  0  0  0  0
    7.5429   41.1114   68.8951 C   0  0  0  0  0  0
    8.7252   43.1910   69.2964 C   0  0  0  0  0  0
   14.3660   40.4432   64.9473 H   0  0  0  0  0  0
   12.1165   40.3042   65.9386 H   0  0  0  0  0  0
   11.8272   44.5815   65.6291 H   0  0  0  0  0  0
   14.1326   44.6294   64.7389 H   0  0  0  0  0  0
   10.5079   41.5721   67.2202 H   0  0  0  0  0  0
    7.5092   43.4528   67.0717 H   0  0  0  0  0  0
    7.7203   41.8816   66.4057 H   0  0  0  0  0  0
   18.2842   42.2161   64.3410 H   0  0  0  0  0  0
   20.0669   42.9428   65.8701 H   0  0  0  0  0  0
   19.4905   44.2060   67.9205 H   0  0  0  0  0  0
   17.1267   44.7425   68.4268 H   0  0  0  0  0  0
   15.3559   44.0281   66.9137 H   0  0  0  0  0  0
    7.2383   39.0159   71.0581 H   0  0  0  0  0  0
    6.6009   37.6299   70.1890 H   0  0  0  0  0  0
    7.9385   35.4227   70.2916 H   0  0  0  0  0  0
    9.2546   33.9824   71.7076 H   0  0  0  0  0  0
   10.2971   37.3875   74.1403 H   0  0  0  0  0  0
    8.9203   38.8022   72.6776 H   0  0  0  0  0  0
   11.4009   32.8700   74.0942 H   0  0  0  0  0  0
    6.6334   39.3226   68.3400 H   0  0  0  0  0  0
    7.7210   39.2266   66.1816 H   0  0  0  0  0  0
    9.0568   40.2303   66.7113 H   0  0  0  0  0  0
    9.3170   37.6840   66.3091 H   0  0  0  0  0  0
   10.1209   38.6160   67.6069 H   0  0  0  0  0  0
    7.4452   37.1353   68.0177 H   0  0  0  0  0  0
    8.9210   36.6656   68.7504 H   0  0  0  0  0  0
    7.7212   41.0513   69.9467 H   0  0  0  0  0  0
    6.5283   41.4936   68.7650 H   0  0  0  0  0  0
    8.5210   43.0161   70.3398 H   0  0  0  0  0  0
    9.7885   43.4165   69.2356 H   0  0  0  0  0  0
    8.1208   44.0648   69.0482 H   0  0  0  0  0  0
  1 11  1  0  0  0
  1  6  1  0  0  0
  1  2  2  0  0  0
  2  3  1  0  0  0
  2 36  1  0  0  0
  3  4  2  0  0  0
  3 37  1  0  0  0
  4  5  1  0  0  0
  4  7  1  0  0  0
  5  6  2  0  0  0
  5 38  1  0  0  0
  6 39  1  0  0  0
  7  8  1  0  0  0
  7 40  1  0  0  0
  8  9  1  0  0  0
  8 10  2  0  0  0
  9 18  1  0  0  0
  9 41  1  0  0  0
  9 42  1  0  0  0
 11 12  1  0  0  0
 12 17  1  0  0  0
 12 13  2  0  0  0
 13 14  1  0  0  0
 13 43  1  0  0  0
 14 15  2  0  0  0
 14 44  1  0  0  0
 15 16  1  0  0  0
 15 45  1  0  0  0
 16 17  2  0  0  0
 16 46  1  0  0  0
 17 47  1  0  0  0
 18 34  1  0  0  0
 18 35  1  0  0  0
 19 20  1  0  0  0
 19 30  1  0  0  0
 19 33  1  0  0  0
 20 21  1  0  0  0
 20 48  1  0  0  0
 20 49  1  0  0  0
 21 26  1  0  0  0
 21 22  2  0  0  0
 22 23  1  0  0  0
 22 50  1  0  0  0
 23 24  2  0  0  0
 23 51  1  0  0  0
 24 25  1  0  0  0
 24 27  1  0  0  0
 25 26  2  0  0  0
 25 52  1  0  0  0
 26 53  1  0  0  0
 27 28  1  0  0  0
 27 29  2  0  0  0
 28 54  1  0  0  0
 30 31  1  0  0  0
 30 34  1  0  0  0
 30 55  1  0  0  0
 31 32  1  0  0  0
 31 56  1  0  0  0
 31 57  1  0  0  0
 32 33  1  0  0  0
 32 58  1  0  0  0
 32 59  1  0  0  0
 33 60  1  0  0  0
 33 61  1  0  0  0
 34 62  1  0  0  0
 34 63  1  0  0  0
 35 64  1  0  0  0
 35 65  1  0  0  0
 35 66  1  0  0  0
M  END
> <s_m_entry_id>
6935

> <s_m_entry_name>
dock_pv.365

> <s_m_Source_Path>
/home/csk/Desktop/cluster/DUD-E-result/lkha4

> <s_m_Source_File>
dock_pv.maegz

> <i_m_Source_File_Index>
365

> <chembl_id>
CHEMBL480719

> <chembl_pref_name>
None

> <i_lp_mmshare_version>
53161

> <i_f3d_flags>
0

> <r_lp_tautomer_probability>
1

> <s_lp_Force_Field>
OPLS_2005

> <r_lp_Energy>
69.419326

> <b_lp_Chiralities_Consistent>
1

> <s_lp_Variant>
CHEMBL4618_lig226-1

> <s_i_glide_gridfile>
glide-grid_3chp

> <i_i_glide_lignum>
257

> <i_i_glide_rotatable_bonds>
12

> <r_i_docking_score>
-8.46439354651184

> <r_i_glide_ligand_efficiency>
-0.241839815614624

> <r_i_glide_ligand_efficiency_sa>
-0.791074072381702

> <r_i_glide_ligand_efficiency_ln>
-1.85812224055264

> <r_i_glide_gscore>
-8.46439354651184

> <r_i_glide_lipo>
-5.20536638692517

> <r_i_glide_hbond>
-0.214370892397777

> <r_i_glide_metal>
0

> <r_i_glide_rewards>
-0.762843565052533

> <r_i_glide_evdw>
-46.1479377746582

> <r_i_glide_ecoul>
-6.44410419464111

> <r_i_glide_erotb>
0.992199815792719

> <r_i_glide_esite>
0

> <r_i_glide_emodel>
-60.181927616501

> <r_i_glide_energy>
-52.5920419692993

> <r_i_glide_einternal>
13.8729295730591

> <i_i_glide_confnum>
191

> <i_i_glide_posenum>
236

> <r_i_glide_eff_state_penalty>
0

> <s_user_duplicate_titles>
CHEMBL4618_lig226,467182

> <s_m_subgroup_title>
dock_pv

> <s_m_subgroupid>
dock_pv

> <b_m_subgroup_collapsed>
1

$$$$
CHEMBL4618_lig245
                    3D
 Schrodinger Suite 2021-1.
 67 69  0  0  1  0            999 V2000
   19.3724   44.1041   67.3601 C   0  0  0  0  0  0
   18.1684   44.5598   67.9033 C   0  0  0  0  0  0
   16.9640   44.2709   67.2644 C   0  0  0  0  0  0
   16.9544   43.5084   66.0953 C   0  0  0  0  0  0
   18.1664   43.0818   65.5396 C   0  0  0  0  0  0
   19.3704   43.3822   66.1665 C   0  0  0  0  0  0
   15.6965   43.2212   65.5401 N   0  0  0  0  0  0
   15.3315   42.1922   64.7407 C   0  0  0  0  0  0
   13.8401   42.0558   64.3494 C   0  0  0  0  0  0
   16.1210   41.3364   64.3400 O   0  0  0  0  0  0
   12.9516   42.7125   65.3208 N   0  0  1  0  0  0
   20.6950   44.4029   68.0504 C   0  0  0  0  0  0
   21.2849   43.1949   68.7642 C   0  0  0  0  0  0
   20.8319   42.8540   70.0430 C   0  0  0  0  0  0
   21.3769   41.7560   70.7035 C   0  0  0  0  0  0
   22.3761   41.0068   70.0859 C   0  0  0  0  0  0
   22.8342   41.3411   68.8122 C   0  0  0  0  0  0
   22.2908   42.4388   68.1511 C   0  0  0  0  0  0
   12.6810   44.0979   64.9309 C   0  0  0  0  0  0
   11.6826   42.0054   65.5413 C   0  0  0  0  0  0
   11.0136   42.3130   66.8884 C   0  0  0  0  0  0
    9.4671   42.3878   66.8371 C   0  0  0  0  0  0
    8.8063   41.5279   67.8272 N   0  0  2  0  0  0
    8.7831   40.1010   67.4578 C   0  0  0  0  0  0
    7.4494   42.0196   68.0631 C   0  0  0  0  0  0
    8.4536   39.1410   68.6144 C   0  0  0  0  0  0
    8.5211   39.5590   69.9400 C   0  0  0  0  0  0
    8.4942   38.6475   70.9863 C   0  0  0  0  0  0
    8.3514   37.2855   70.7334 C   0  0  0  0  0  0
    8.1209   36.8776   69.4106 C   0  0  0  0  0  0
    8.1824   37.7979   68.3588 C   0  0  0  0  0  0
    8.5209   36.3138   71.8787 C   0  0  0  0  0  0
    8.5210   34.9980   71.5401 O   0  0  0  0  0  0
    8.6956   36.6909   73.0365 O   0  0  0  0  0  0
   18.1575   45.1198   68.8268 H   0  0  0  0  0  0
   16.0379   44.6116   67.7050 H   0  0  0  0  0  0
   18.2008   42.5383   64.6077 H   0  0  0  0  0  0
   20.2961   43.0425   65.7234 H   0  0  0  0  0  0
   14.9356   43.8145   65.8352 H   0  0  0  0  0  0
   13.7157   42.4414   63.3340 H   0  0  0  0  0  0
   13.6348   40.9865   64.2682 H   0  0  0  0  0  0
   20.5684   45.2122   68.7700 H   0  0  0  0  0  0
   21.4014   44.7769   67.3065 H   0  0  0  0  0  0
   20.0505   43.4288   70.5188 H   0  0  0  0  0  0
   21.0270   41.4803   71.6884 H   0  0  0  0  0  0
   22.7967   40.1554   70.6006 H   0  0  0  0  0  0
   23.6057   40.7482   68.3382 H   0  0  0  0  0  0
   22.6458   42.6866   67.1609 H   0  0  0  0  0  0
   12.1177   44.6160   65.7030 H   0  0  0  0  0  0
   13.6027   44.6562   64.7657 H   0  0  0  0  0  0
   12.1122   44.1400   64.0024 H   0  0  0  0  0  0
   10.9837   42.2163   64.7401 H   0  0  0  0  0  0
   11.8591   40.9287   65.5137 H   0  0  0  0  0  0
   11.3139   41.4972   67.5402 H   0  0  0  0  0  0
   11.4342   43.1893   67.3827 H   0  0  0  0  0  0
    9.2101   43.4208   67.0745 H   0  0  0  0  0  0
    9.0701   42.2163   65.8356 H   0  0  0  0  0  0
    8.1211   39.9283   66.6104 H   0  0  0  0  0  0
    9.7765   39.8126   67.1109 H   0  0  0  0  0  0
    6.8976   41.3965   68.7670 H   0  0  0  0  0  0
    7.4930   43.0177   68.4953 H   0  0  0  0  0  0
    6.8748   42.0772   67.1403 H   0  0  0  0  0  0
    8.6659   40.5997   70.1657 H   0  0  0  0  0  0
    8.6158   39.0163   71.9943 H   0  0  0  0  0  0
    7.9641   35.8396   69.1601 H   0  0  0  0  0  0
    8.1034   37.4489   67.3412 H   0  0  0  0  0  0
    8.0967   34.8014   70.6988 H   0  0  0  0  0  0
  1 12  1  0  0  0
  1  6  1  0  0  0
  1  2  2  0  0  0
  2  3  1  0  0  0
  2 35  1  0  0  0
  3  4  2  0  0  0
  3 36  1  0  0  0
  4  5  1  0  0  0
  4  7  1  0  0  0
  5  6  2  0  0  0
  5 37  1  0  0  0
  6 38  1  0  0  0
  7  8  1  0  0  0
  7 39  1  0  0  0
  8  9  1  0  0  0
  8 10  2  0  0  0
  9 11  1  0  0  0
  9 40  1  0  0  0
  9 41  1  0  0  0
 11 19  1  0  0  0
 11 20  1  0  0  0
 12 13  1  0  0  0
 12 42  1  0  0  0
 12 43  1  0  0  0
 13 18  1  0  0  0
 13 14  2  0  0  0
 14 15  1  0  0  0
 14 44  1  0  0  0
 15 16  2  0  0  0
 15 45  1  0  0  0
 16 17  1  0  0  0
 16 46  1  0  0  0
 17 18  2  0  0  0
 17 47  1  0  0  0
 18 48  1  0  0  0
 19 49  1  0  0  0
 19 50  1  0  0  0
 19 51  1  0  0  0
 20 21  1  0  0  0
 20 52  1  0  0  0
 20 53  1  0  0  0
 21 22  1  0  0  0
 21 54  1  0  0  0
 21 55  1  0  0  0
 22 23  1  0  0  0
 22 56  1  0  0  0
 22 57  1  0  0  0
 23 24  1  0  0  0
 23 25  1  0  0  0
 24 26  1  0  0  0
 24 58  1  0  0  0
 24 59  1  0  0  0
 25 60  1  0  0  0
 25 61  1  0  0  0
 25 62  1  0  0  0
 26 27  2  0  0  0
 26 31  1  0  0  0
 27 28  1  0  0  0
 27 63  1  0  0  0
 28 29  2  0  0  0
 28 64  1  0  0  0
 29 30  1  0  0  0
 29 32  1  0  0  0
 30 31  2  0  0  0
 30 65  1  0  0  0
 31 66  1  0  0  0
 32 33  1  0  0  0
 32 34  2  0  0  0
 33 67  1  0  0  0
M  END
> <s_m_entry_id>
6936

> <s_m_entry_name>
dock_pv.366

> <s_m_Source_Path>
/home/csk/Desktop/cluster/DUD-E-result/lkha4

> <s_m_Source_File>
dock_pv.maegz

> <i_m_Source_File_Index>
366

> <chembl_id>
CHEMBL519600

> <chembl_pref_name>
None

> <i_lp_mmshare_version>
53161

> <i_f3d_flags>
0

> <r_lp_tautomer_probability>
1

> <s_lp_Force_Field>
OPLS_2005

> <r_lp_Energy>
35.564391

> <b_lp_Chiralities_Consistent>
1

> <s_lp_Variant>
CHEMBL4618_lig245-1

> <s_i_glide_gridfile>
glide-grid_3chp

> <i_i_glide_lignum>
281

> <i_i_glide_rotatable_bonds>
14

> <r_i_docking_score>
-8.46071633315049

> <r_i_glide_ligand_efficiency>
-0.248844598033838

> <r_i_glide_ligand_efficiency_sa>
-0.80615989552697

> <r_i_glide_ligand_efficiency_ln>
-1.86920955304769

> <r_i_glide_gscore>
-8.46071633315049

> <r_i_glide_lipo>
-3.64747908433758

> <r_i_glide_hbond>
0

> <r_i_glide_metal>
0

> <r_i_glide_rewards>
-1.06406155445778

> <r_i_glide_evdw>
-64.1421279907227

> <r_i_glide_ecoul>
-10.5369434356689

> <r_i_glide_erotb>
1.23847222053135

> <r_i_glide_esite>
-0.2

> <r_i_glide_emodel>
-103.983853519432

> <r_i_glide_energy>
-74.6790714263916

> <r_i_glide_einternal>
19.3530979156494

> <i_i_glide_confnum>
37

> <i_i_glide_posenum>
242

> <r_i_glide_eff_state_penalty>
0

> <s_user_duplicate_titles>
CHEMBL4618_lig245,466863

> <s_m_subgroup_title>
dock_pv

> <s_m_subgroupid>
dock_pv

> <b_m_subgroup_collapsed>
1

$$$$
CHEMBL4618_lig394
                    3D
 Schrodinger Suite 2021-1.
 50 52  0  0  1  0            999 V2000
    8.9217   37.6865   71.2404 N   0  0  0  0  0  0
    8.4653   36.3945   70.7469 C   0  0  0  0  0  0
    8.9026   35.3622   71.8005 C   0  0  0  0  0  0
    9.1480   36.1762   73.0677 C   0  0  0  0  0  0
    8.7361   37.5871   72.6751 C   0  0  0  0  0  0
    8.2341   38.8485   70.6632 C   0  0  0  0  0  0
    8.6369   39.0863   69.2014 C   0  0  0  0  0  0
    8.2060   40.3798   68.7400 O   0  0  0  0  0  0
    8.9710   41.0457   67.7931 C   0  0  0  0  0  0
   10.0586   40.4570   67.1452 C   0  0  0  0  0  0
   10.9106   41.1901   66.3400 C   0  0  0  0  0  0
   10.6229   42.5206   66.0482 C   0  0  0  0  0  0
    9.4674   43.0907   66.5902 C   0  0  0  0  0  0
    8.6639   42.3716   67.4825 C   0  0  0  0  0  0
   11.4131   43.2473   65.1769 O   0  0  0  0  0  0
   12.7865   43.0848   65.1849 C   0  0  0  0  0  0
   13.5336   43.4160   66.3131 C   0  0  0  0  0  0
   14.9272   43.4083   66.2727 C   0  0  0  0  0  0
   15.5858   42.9113   65.1423 C   0  0  0  0  0  0
   14.8364   42.5282   64.0361 C   0  0  0  0  0  0
   13.4523   42.6443   64.0421 C   0  0  0  0  0  0
   16.9791   42.7738   65.0471 N   0  0  0  0  0  0
   18.0804   43.5797   66.1677 S   0  0  0  0  0  0
   19.7662   43.0250   65.5535 C   0  0  0  0  0  0
   17.9293   45.0160   65.9400 O   0  0  0  0  0  0
   17.8425   43.0160   67.4984 O   0  0  0  0  0  0
    8.9181   36.2160   69.7733 H   0  0  0  0  0  0
    7.3880   36.3744   70.5740 H   0  0  0  0  0  0
    9.8163   34.8317   71.5400 H   0  0  0  0  0  0
    8.1210   34.6160   71.9400 H   0  0  0  0  0  0
    8.5602   35.8160   73.9122 H   0  0  0  0  0  0
   10.1965   36.1505   73.3678 H   0  0  0  0  0  0
    7.7210   37.8160   72.9755 H   0  0  0  0  0  0
    9.3679   38.3352   73.1400 H   0  0  0  0  0  0
    7.1519   38.7385   70.7451 H   0  0  0  0  0  0
    8.5210   39.7337   71.2341 H   0  0  0  0  0  0
    9.7210   38.9928   69.1941 H   0  0  0  0  0  0
    8.2322   38.3128   68.5473 H   0  0  0  0  0  0
   10.2661   39.4160   67.2621 H   0  0  0  0  0  0
   11.7568   40.6996   65.8817 H   0  0  0  0  0  0
    9.2105   44.1119   66.3492 H   0  0  0  0  0  0
    7.8068   42.8478   67.9391 H   0  0  0  0  0  0
   13.0253   43.7662   67.1975 H   0  0  0  0  0  0
   15.4721   43.7451   67.1400 H   0  0  0  0  0  0
   15.3323   42.1899   63.1400 H   0  0  0  0  0  0
   12.9210   42.3903   63.1415 H   0  0  0  0  0  0
   17.2905   42.9356   64.0946 H   0  0  0  0  0  0
   20.5327   43.4911   66.1693 H   0  0  0  0  0  0
   19.8322   41.9415   65.6331 H   0  0  0  0  0  0
   19.8831   43.3336   64.5152 H   0  0  0  0  0  0
  1  5  1  0  0  0
  1  6  1  0  0  0
  1  2  1  0  0  0
  2  3  1  0  0  0
  2 27  1  0  0  0
  2 28  1  0  0  0
  3  4  1  0  0  0
  3 29  1  0  0  0
  3 30  1  0  0  0
  4  5  1  0  0  0
  4 31  1  0  0  0
  4 32  1  0  0  0
  5 33  1  0  0  0
  5 34  1  0  0  0
  6  7  1  0  0  0
  6 35  1  0  0  0
  6 36  1  0  0  0
  7  8  1  0  0  0
  7 37  1  0  0  0
  7 38  1  0  0  0
  8  9  1  0  0  0
  9 10  1  0  0  0
  9 14  2  0  0  0
 10 11  2  0  0  0
 10 39  1  0  0  0
 11 12  1  0  0  0
 11 40  1  0  0  0
 12 13  2  0  0  0
 12 15  1  0  0  0
 13 14  1  0  0  0
 13 41  1  0  0  0
 14 42  1  0  0  0
 15 16  1  0  0  0
 16 17  1  0  0  0
 16 21  2  0  0  0
 17 18  2  0  0  0
 17 43  1  0  0  0
 18 19  1  0  0  0
 18 44  1  0  0  0
 19 20  2  0  0  0
 19 22  1  0  0  0
 20 21  1  0  0  0
 20 45  1  0  0  0
 21 46  1  0  0  0
 22 23  1  0  0  0
 22 47  1  0  0  0
 23 24  1  0  0  0
 23 25  2  0  0  0
 23 26  2  0  0  0
 24 48  1  0  0  0
 24 49  1  0  0  0
 24 50  1  0  0  0
M  END
> <s_m_entry_id>
6937

> <s_m_entry_name>
dock_pv.367

> <s_m_Source_Path>
/home/csk/Desktop/cluster/DUD-E-result/lkha4

> <s_m_Source_File>
dock_pv.maegz

> <i_m_Source_File_Index>
367

> <chembl_id>
CHEMBL1775110

> <chembl_pref_name>
None

> <i_lp_mmshare_version>
53161

> <i_f3d_flags>
0

> <r_lp_tautomer_probability>
1

> <s_lp_Force_Field>
OPLS_2005

> <r_lp_Energy>
34.069313

> <b_lp_Chiralities_Consistent>
1

> <s_lp_Variant>
CHEMBL4618_lig394-1

> <s_i_glide_gridfile>
glide-grid_3chp

> <i_i_glide_lignum>
455

> <i_i_glide_rotatable_bonds>
8

> <r_i_docking_score>
-8.45603136791367

> <r_i_glide_ligand_efficiency>
-0.325231975688987

> <r_i_glide_ligand_efficiency_sa>
-0.963498448252596

> <r_i_glide_ligand_efficiency_ln>
-1.9858712202525

> <r_i_glide_gscore>
-8.45603136791367

> <r_i_glide_lipo>
-4.15868506889286

> <r_i_glide_hbond>
-0.0555535794422547

> <r_i_glide_metal>
0

> <r_i_glide_rewards>
-0.84127959071024

> <r_i_glide_evdw>
-47.563117980957

> <r_i_glide_ecoul>
-11.1034440994263

> <r_i_glide_erotb>
0.819501255817773

> <r_i_glide_esite>
-0.176341870724289

> <r_i_glide_emodel>
-81.2283231433092

> <r_i_glide_energy>
-58.6665620803833

> <r_i_glide_einternal>
11.9455509185791

> <i_i_glide_confnum>
18

> <i_i_glide_posenum>
286

> <r_i_glide_eff_state_penalty>
0

> <s_user_duplicate_titles>
CHEMBL4618_lig394

> <s_m_subgroup_title>
dock_pv

> <s_m_subgroupid>
dock_pv

> <b_m_subgroup_collapsed>
1

$$$$
CHEMBL4618_lig332
                    3D
 Schrodinger Suite 2021-1.
 32 33  0  0  1  0            999 V2000
    7.9794   38.4922   70.0825 C   0  0  0  0  0  0
    7.1204   37.8160   70.9407 C   0  0  0  0  0  0
    7.6077   37.1980   72.0870 C   0  0  0  0  0  0
    8.9526   37.2324   72.4113 C   0  0  0  0  0  0
    9.8205   37.8982   71.5400 C   0  0  0  0  0  0
    9.3304   38.5350   70.4045 C   0  0  0  0  0  0
    8.4122   42.4948   68.0722 C   0  0  0  0  0  0
    9.4061   42.2570   67.1250 C   0  0  0  0  0  0
    9.7547   40.9542   66.7734 C   0  0  0  0  0  0
    9.0972   39.8808   67.3703 C   0  0  0  0  0  0
    8.1210   40.1162   68.3400 C   0  0  0  0  0  0
    7.7738   41.4216   68.6857 C   0  0  0  0  0  0
    7.4691   39.0605   68.9338 O   0  0  0  0  0  0
    9.3062   36.6160   73.5973 O   0  0  0  0  0  0
   10.6755   36.3469   73.8733 C   0  0  0  0  0  0
   10.9210   36.1584   75.3757 C   0  0  0  0  0  0
   11.3210   37.4160   75.9862 N   0  0  0  0  0  0
    6.0653   37.7836   70.7400 H   0  0  0  0  0  0
    6.9210   36.6877   72.7400 H   0  0  0  0  0  0
   10.8805   37.9609   71.7156 H   0  0  0  0  0  0
   10.0344   39.0160   69.7471 H   0  0  0  0  0  0
    8.1237   43.5054   68.3255 H   0  0  0  0  0  0
    9.9016   43.0934   66.6537 H   0  0  0  0  0  0
   10.5192   40.7756   66.0310 H   0  0  0  0  0  0
    9.3458   38.8669   67.0919 H   0  0  0  0  0  0
    6.9999   41.6054   69.4155 H   0  0  0  0  0  0
   11.3210   37.1517   73.5400 H   0  0  0  0  0  0
   10.9454   35.4372   73.3350 H   0  0  0  0  0  0
   11.7172   35.4305   75.5408 H   0  0  0  0  0  0
   10.0283   35.7743   75.8694 H   0  0  0  0  0  0
   10.5659   38.0852   75.8195 H   0  0  0  0  0  0
   11.3285   37.2496   76.9874 H   0  0  0  0  0  0
  1  6  1  0  0  0
  1 13  1  0  0  0
  1  2  2  0  0  0
  2  3  1  0  0  0
  2 18  1  0  0  0
  3  4  2  0  0  0
  3 19  1  0  0  0
  4  5  1  0  0  0
  4 14  1  0  0  0
  5  6  2  0  0  0
  5 20  1  0  0  0
  6 21  1  0  0  0
  7 12  1  0  0  0
  7  8  2  0  0  0
  7 22  1  0  0  0
  8  9  1  0  0  0
  8 23  1  0  0  0
  9 10  2  0  0  0
  9 24  1  0  0  0
 10 11  1  0  0  0
 10 25  1  0  0  0
 11 12  2  0  0  0
 11 13  1  0  0  0
 12 26  1  0  0  0
 14 15  1  0  0  0
 15 16  1  0  0  0
 15 27  1  0  0  0
 15 28  1  0  0  0
 16 17  1  0  0  0
 16 29  1  0  0  0
 16 30  1  0  0  0
 17 31  1  0  0  0
 17 32  1  0  0  0
M  END
> <s_m_entry_id>
6938

> <s_m_entry_name>
dock_pv.368

> <s_m_Source_Path>
/home/csk/Desktop/cluster/DUD-E-result/lkha4

> <s_m_Source_File>
dock_pv.maegz

> <i_m_Source_File_Index>
368

> <chembl_id>
CHEMBL472386

> <chembl_pref_name>
None

> <i_lp_mmshare_version>
53161

> <i_f3d_flags>
0

> <r_lp_tautomer_probability>
1

> <s_lp_Force_Field>
OPLS_2005

> <r_lp_Energy>
19.054883

> <b_lp_Chiralities_Consistent>
1

> <s_lp_Variant>
CHEMBL4618_lig332-1

> <s_i_glide_gridfile>
glide-grid_3chp

> <i_i_glide_lignum>
376

> <i_i_glide_rotatable_bonds>
5

> <r_i_docking_score>
-8.45425712552415

> <r_i_glide_ligand_efficiency>
-0.497309242677891

> <r_i_glide_ligand_efficiency_sa>
-1.27872209935422

> <r_i_glide_ligand_efficiency_ln>
-2.20552741699945

> <r_i_glide_gscore>
-8.45425712552415

> <r_i_glide_lipo>
-4.0174672370717

> <r_i_glide_hbond>
-0.787202585580788

> <r_i_glide_metal>
0

> <r_i_glide_rewards>
-2.28149345416985

> <r_i_glide_evdw>
-28.8906002044678

> <r_i_glide_ecoul>
-8.14451313018799

> <r_i_glide_erotb>
1.29811313104978

> <r_i_glide_esite>
0

> <r_i_glide_emodel>
-60.7336308383364

> <r_i_glide_energy>
-37.0351133346558

> <r_i_glide_einternal>
4.89792585372925

> <i_i_glide_confnum>
30

> <i_i_glide_posenum>
232

> <r_i_glide_eff_state_penalty>
0

> <s_user_duplicate_titles>
CHEMBL4618_lig332,452656

> <s_m_subgroup_title>
dock_pv

> <s_m_subgroupid>
dock_pv

> <b_m_subgroup_collapsed>
1

$$$$
CHEMBL4618_lig92
                    3D
 Schrodinger Suite 2021-1.
 41 43  0  0  1  0            999 V2000
   16.0066   41.7869   65.1396 N   0  0  0  0  0  0
    9.6161   41.4714   66.8471 C   0  0  0  0  0  0
   10.9274   41.3619   66.3602 C   0  0  0  0  0  0
    8.9809   40.3369   67.5535 C   0  0  0  0  0  0
   11.5611   42.4336   65.7184 C   0  0  0  0  0  0
   12.8551   42.4171   65.2399 O   0  0  0  0  0  0
   14.8494   41.4217   64.3012 C   0  0  0  0  0  0
   13.5387   41.1730   65.0903 C   0  0  0  0  0  0
   17.1412   42.2343   64.3398 C   0  0  0  0  0  0
   15.7661   43.0167   65.9002 C   0  0  0  0  0  0
    8.9207   42.6612   66.6444 C   0  0  0  0  0  0
    9.5110   43.7049   65.9418 C   0  0  0  0  0  0
    8.9214   39.0895   66.9387 C   0  0  0  0  0  0
    8.4976   40.4773   68.8570 C   0  0  0  0  0  0
   10.8320   43.5993   65.5126 C   0  0  0  0  0  0
   18.0905   42.9019   65.3359 C   0  0  0  0  0  0
   17.1424   43.4447   66.4055 C   0  0  0  0  0  0
    8.4723   37.9847   67.6431 C   0  0  0  0  0  0
    8.0463   39.3570   69.5524 C   0  0  0  0  0  0
    8.0362   38.1098   68.9487 C   0  0  0  0  0  0
   11.4494   40.4323   66.4957 H   0  0  0  0  0  0
   14.6666   42.2049   63.5638 H   0  0  0  0  0  0
   15.0859   40.5318   63.7174 H   0  0  0  0  0  0
   12.9213   40.4715   64.5280 H   0  0  0  0  0  0
   13.7210   40.7173   66.0623 H   0  0  0  0  0  0
   16.8302   42.9184   63.5446 H   0  0  0  0  0  0
   17.6031   41.4153   63.7981 H   0  0  0  0  0  0
   15.0504   42.8498   66.7069 H   0  0  0  0  0  0
   15.2894   43.7876   65.2871 H   0  0  0  0  0  0
    7.9056   42.7698   67.0007 H   0  0  0  0  0  0
    8.9500   44.6125   65.7765 H   0  0  0  0  0  0
    9.3029   38.9546   65.9377 H   0  0  0  0  0  0
    8.5196   41.4389   69.3498 H   0  0  0  0  0  0
   11.3121   44.4298   65.0171 H   0  0  0  0  0  0
   18.6616   43.6942   64.8483 H   0  0  0  0  0  0
   18.8094   42.1870   65.7415 H   0  0  0  0  0  0
   17.3519   43.0226   67.3891 H   0  0  0  0  0  0
   17.2065   44.5297   66.4936 H   0  0  0  0  0  0
    8.5217   37.0166   67.1871 H   0  0  0  0  0  0
    7.7227   39.4163   70.5806 H   0  0  0  0  0  0
    7.7045   37.2426   69.4967 H   0  0  0  0  0  0
  1  7  1  0  0  0
  1  9  1  0  0  0
  1 10  1  0  0  0
  2  3  1  0  0  0
  2  4  1  0  0  0
  2 11  2  0  0  0
  3  5  2  0  0  0
  3 21  1  0  0  0
  4 13  1  0  0  0
  4 14  2  0  0  0
  5  6  1  0  0  0
  5 15  1  0  0  0
  6  8  1  0  0  0
  7  8  1  0  0  0
  7 22  1  0  0  0
  7 23  1  0  0  0
  8 24  1  0  0  0
  8 25  1  0  0  0
  9 16  1  0  0  0
  9 26  1  0  0  0
  9 27  1  0  0  0
 10 17  1  0  0  0
 10 28  1  0  0  0
 10 29  1  0  0  0
 11 12  1  0  0  0
 11 30  1  0  0  0
 12 15  2  0  0  0
 12 31  1  0  0  0
 13 18  2  0  0  0
 13 32  1  0  0  0
 14 19  1  0  0  0
 14 33  1  0  0  0
 15 34  1  0  0  0
 16 17  1  0  0  0
 16 35  1  0  0  0
 16 36  1  0  0  0
 17 37  1  0  0  0
 17 38  1  0  0  0
 18 20  1  0  0  0
 18 39  1  0  0  0
 19 20  2  0  0  0
 19 40  1  0  0  0
 20 41  1  0  0  0
M  END
> <s_m_entry_id>
6939

> <s_m_entry_name>
dock_pv.369

> <s_m_Source_Path>
/home/csk/Desktop/cluster/DUD-E-result/lkha4

> <s_m_Source_File>
dock_pv.maegz

> <i_m_Source_File_Index>
369

> <chembl_id>
CHEMBL163179

> <chembl_pref_name>
None

> <i_lp_mmshare_version>
53161

> <i_f3d_flags>
0

> <r_lp_tautomer_probability>
1

> <s_lp_Force_Field>
OPLS_2005

> <r_lp_Energy>
39.707564

> <b_lp_Chiralities_Consistent>
1

> <s_lp_Variant>
CHEMBL4618_lig92-1

> <s_i_glide_gridfile>
glide-grid_3chp

> <i_i_glide_lignum>
115

> <i_i_glide_rotatable_bonds>
5

> <r_i_docking_score>
-8.45218965671175

> <r_i_glide_ligand_efficiency>
-0.422609482835587

> <r_i_glide_ligand_efficiency_sa>
-1.14713862400347

> <r_i_glide_ligand_efficiency_ln>
-2.1153042992027

> <r_i_glide_gscore>
-8.45218965671175

> <r_i_glide_lipo>
-3.61155390042354

> <r_i_glide_hbond>
-0.317368908946315

> <r_i_glide_metal>
0

> <r_i_glide_rewards>
-2.47448670670049

> <r_i_glide_evdw>
-31.3269100189209

> <r_i_glide_ecoul>
-9.86790943145752

> <r_i_glide_erotb>
0.997751775023272

> <r_i_glide_esite>
0

> <r_i_glide_emodel>
-61.3905188838723

> <r_i_glide_energy>
-41.1948194503784

> <r_i_glide_einternal>
4.82588481903076

> <i_i_glide_confnum>
15

> <i_i_glide_posenum>
172

> <r_i_glide_eff_state_penalty>
0

> <s_user_duplicate_titles>
CHEMBL4618_lig92,272033

> <s_m_subgroup_title>
dock_pv

> <s_m_subgroupid>
dock_pv

> <b_m_subgroup_collapsed>
1

$$$$
CHEMBL4618_lig17
                    3D
 Schrodinger Suite 2021-1.
 57 60  0  0  1  0            999 V2000
   12.1291   42.2289   65.5280 N   0  0  1  0  0  0
   12.7002   42.8923   64.3556 C   0  0  2  0  0  0
   14.4516   41.8817   65.2016 C   0  0  1  0  0  0
   14.9451   43.3391   65.1658 C   0  0  1  0  0  0
   13.2964   41.6832   66.2216 C   0  0  0  0  0  0
   13.7034   41.8486   63.8987 C   0  0  0  0  0  0
   13.6277   44.0608   64.7667 C   0  0  0  0  0  0
   17.1179   44.1737   66.3255 C   0  0  0  0  0  0
   15.6391   43.8052   66.4668 C   0  0  0  0  0  0
   17.5600   45.2133   66.8162 O   0  0  0  0  0  0
    8.1563   38.2398   69.1857 C   0  0  0  0  0  0
   11.1680   43.0464   66.2698 C   0  0  0  0  0  0
    7.7273   37.1201   70.1484 C   0  0  0  0  0  0
    8.9650   40.3059   67.4550 C   0  0  0  0  0  0
   17.8296   43.2398   65.6576 O   0  0  0  0  0  0
    8.1220   39.5677   69.5851 C   0  0  0  0  0  0
    8.5200   37.9665   67.8714 C   0  0  0  0  0  0
    8.9169   38.9896   67.0051 C   0  0  0  0  0  0
    8.5141   40.5975   68.7427 C   0  0  0  0  0  0
    8.6687   36.7585   71.3120 C   0  0  0  0  0  0
    9.4865   41.2720   66.6219 O   0  0  0  0  0  0
   10.3085   42.2507   67.2514 C   0  0  0  0  0  0
   19.1995   43.4598   65.3543 C   0  0  0  0  0  0
    8.8675   35.4192   71.6736 C   0  0  0  0  0  0
    9.3196   37.7479   72.0511 C   0  0  0  0  0  0
    9.6811   35.0784   72.7529 C   0  0  0  0  0  0
   10.1209   37.4127   73.1400 C   0  0  0  0  0  0
   10.2734   36.0808   73.5102 C   0  0  0  0  0  0
   11.9546   43.1646   63.6097 H   0  0  0  0  0  0
   15.2471   41.1434   65.2584 H   0  0  0  0  0  0
   15.6542   43.4141   64.3403 H   0  0  0  0  0  0
   13.1598   40.6164   66.3856 H   0  0  0  0  0  0
   13.5107   42.2167   67.1405 H   0  0  0  0  0  0
   14.2877   42.2162   63.0610 H   0  0  0  0  0  0
   13.3211   40.8566   63.6615 H   0  0  0  0  0  0
   13.2089   44.6160   65.5900 H   0  0  0  0  0  0
   13.7210   44.7542   63.9349 H   0  0  0  0  0  0
   15.6199   43.0161   67.1996 H   0  0  0  0  0  0
   15.1006   44.6306   66.9126 H   0  0  0  0  0  0
   11.6951   43.8161   66.8255 H   0  0  0  0  0  0
   10.5053   43.5546   65.5678 H   0  0  0  0  0  0
    6.7707   37.4115   70.5854 H   0  0  0  0  0  0
    7.5199   36.2183   69.5697 H   0  0  0  0  0  0
    7.8251   39.8011   70.5816 H   0  0  0  0  0  0
    8.5218   36.9466   67.5397 H   0  0  0  0  0  0
    9.2415   38.7510   66.0023 H   0  0  0  0  0  0
    8.4921   41.6103   69.1141 H   0  0  0  0  0  0
   10.9731   41.7473   67.9401 H   0  0  0  0  0  0
    9.6941   42.9496   67.8205 H   0  0  0  0  0  0
   19.5940   42.6171   64.7865 H   0  0  0  0  0  0
   19.7937   43.5699   66.2619 H   0  0  0  0  0  0
   19.3225   44.3576   64.7459 H   0  0  0  0  0  0
    8.3819   34.6220   71.1399 H   0  0  0  0  0  0
    9.1938   38.7850   71.8068 H   0  0  0  0  0  0
    9.8163   34.0413   73.0242 H   0  0  0  0  0  0
   10.6120   38.1880   73.7083 H   0  0  0  0  0  0
   10.8826   35.8241   74.3649 H   0  0  0  0  0  0
  1  2  1  0  0  0
  1  5  1  0  0  0
  1 12  1  0  0  0
  2  6  1  0  0  0
  2  7  1  0  0  0
  2 29  1  0  0  0
  3  5  1  0  0  0
  3  4  1  0  0  0
  3  6  1  0  0  0
  3 30  1  0  0  0
  4  9  1  0  0  0
  4  7  1  0  0  0
  4 31  1  0  0  0
  5 32  1  0  0  0
  5 33  1  0  0  0
  6 34  1  0  0  0
  6 35  1  0  0  0
  7 36  1  0  0  0
  7 37  1  0  0  0
  8  9  1  0  0  0
  8 10  2  0  0  0
  8 15  1  0  0  0
  9 38  1  0  0  0
  9 39  1  0  0  0
 11 16  2  0  0  0
 11 13  1  0  0  0
 11 17  1  0  0  0
 12 22  1  0  0  0
 12 40  1  0  0  0
 12 41  1  0  0  0
 13 20  1  0  0  0
 13 42  1  0  0  0
 13 43  1  0  0  0
 14 21  1  0  0  0
 14 18  1  0  0  0
 14 19  2  0  0  0
 15 23  1  0  0  0
 16 19  1  0  0  0
 16 44  1  0  0  0
 17 18  2  0  0  0
 17 45  1  0  0  0
 18 46  1  0  0  0
 19 47  1  0  0  0
 20 24  1  0  0  0
 20 25  2  0  0  0
 21 22  1  0  0  0
 22 48  1  0  0  0
 22 49  1  0  0  0
 23 50  1  0  0  0
 23 51  1  0  0  0
 23 52  1  0  0  0
 24 26  2  0  0  0
 24 53  1  0  0  0
 25 27  1  0  0  0
 25 54  1  0  0  0
 26 28  1  0  0  0
 26 55  1  0  0  0
 27 28  2  0  0  0
 27 56  1  0  0  0
 28 57  1  0  0  0
M  END
> <s_m_entry_id>
6940

> <s_m_entry_name>
dock_pv.370

> <s_m_Source_Path>
/home/csk/Desktop/cluster/DUD-E-result/lkha4

> <s_m_Source_File>
dock_pv.maegz

> <i_m_Source_File_Index>
370

> <chembl_id>
CHEMBL116174

> <chembl_pref_name>
None

> <i_lp_mmshare_version>
53161

> <i_f3d_flags>
0

> <r_lp_tautomer_probability>
1

> <s_lp_Force_Field>
OPLS_2005

> <r_lp_Energy>
66.565501

> <b_lp_Chiralities_Consistent>
1

> <s_lp_Variant>
CHEMBL4618_lig17-1

> <s_i_glide_gridfile>
glide-grid_3chp

> <i_i_glide_lignum>
18

> <i_i_glide_rotatable_bonds>
9

> <r_i_docking_score>
-8.44973502522598

> <r_i_glide_ligand_efficiency>
-0.301776250900928

> <r_i_glide_ligand_efficiency_sa>
-0.916370434441896

> <r_i_glide_ligand_efficiency_ln>
-1.9504469388229

> <r_i_glide_gscore>
-8.44973502522598

> <r_i_glide_lipo>
-5.20026762345817

> <r_i_glide_hbond>
-0.183797622303628

> <r_i_glide_metal>
0

> <r_i_glide_rewards>
-1.38094993128074

> <r_i_glide_evdw>
-42.7204551696777

> <r_i_glide_ecoul>
-4.17224740982056

> <r_i_glide_erotb>
1.07714002177352

> <r_i_glide_esite>
0

> <r_i_glide_emodel>
-48.1676535797806

> <r_i_glide_energy>
-46.8927025794983

> <r_i_glide_einternal>
13.2320547103882

> <i_i_glide_confnum>
73

> <i_i_glide_posenum>
276

> <r_i_glide_eff_state_penalty>
0

> <s_user_duplicate_titles>
CHEMBL4618_lig17

> <s_m_subgroup_title>
dock_pv

> <s_m_subgroupid>
dock_pv

> <b_m_subgroup_collapsed>
1

$$$$
CHEMBL4618_lig416
                    3D
 Schrodinger Suite 2021-1.
 42 45  0  0  1  0            999 V2000
   14.0572   43.0160   64.5082 C   0  0  0  0  0  0
   12.8357   43.6823   64.6029 C   0  0  0  0  0  0
   13.2677   41.1613   65.8595 N   0  0  0  0  0  0
   14.2218   41.7854   65.1284 C   0  0  0  0  0  0
   12.0913   41.7775   65.9400 C   0  0  0  0  0  0
   11.8188   43.0244   65.3102 C   0  0  0  0  0  0
   10.1210   43.4160   65.5400 S   0  0  0  0  0  0
    9.9628   41.9042   66.4035 C   0  0  0  0  0  0
   11.0447   41.1964   66.5663 N   0  0  0  0  0  0
    8.6921   41.5331   66.7584 O   0  0  0  0  0  0
    8.5345   40.4394   67.5737 C   0  0  0  0  0  0
    8.5210   39.1342   67.0726 C   0  0  0  0  0  0
    8.2940   38.0637   67.9400 C   0  0  0  0  0  0
    8.1181   38.2837   69.3079 C   0  0  0  0  0  0
    8.2202   39.5858   69.7903 C   0  0  0  0  0  0
    8.3946   40.6611   68.9331 C   0  0  0  0  0  0
    7.7210   37.1320   70.2387 C   0  0  0  0  0  0
    8.7728   36.7153   71.1727 N   0  0  0  0  0  0
    8.8460   37.5424   72.3803 C   0  0  0  0  0  0
   10.1210   37.1758   73.1400 C   0  0  0  0  0  0
   10.1506   35.7066   73.5802 C   0  0  0  0  0  0
    9.8691   34.8160   72.3690 C   0  0  0  0  0  0
    8.6303   35.3153   71.5960 C   0  0  0  0  0  0
   14.8768   43.4160   63.9400 H   0  0  0  0  0  0
   12.6748   44.6302   64.1126 H   0  0  0  0  0  0
   15.1525   41.2570   65.0289 H   0  0  0  0  0  0
    8.6531   38.9560   66.0151 H   0  0  0  0  0  0
    8.2491   37.0619   67.5439 H   0  0  0  0  0  0
    8.1210   39.8102   70.8327 H   0  0  0  0  0  0
    8.4161   41.6689   69.3211 H   0  0  0  0  0  0
    7.4352   36.2859   69.6116 H   0  0  0  0  0  0
    6.8189   37.4160   70.7846 H   0  0  0  0  0  0
    7.9457   37.4160   72.9843 H   0  0  0  0  0  0
    8.9210   38.5975   72.1504 H   0  0  0  0  0  0
   10.2782   37.8160   73.9923 H   0  0  0  0  0  0
   10.9210   37.4258   72.4646 H   0  0  0  0  0  0
   11.1112   35.4525   74.0296 H   0  0  0  0  0  0
    9.3916   35.5387   74.3455 H   0  0  0  0  0  0
   10.7298   34.7600   71.7035 H   0  0  0  0  0  0
    9.7210   33.7906   72.7050 H   0  0  0  0  0  0
    7.7210   35.1936   72.1772 H   0  0  0  0  0  0
    8.5210   34.6697   70.7400 H   0  0  0  0  0  0
  1  2  2  0  0  0
  1  4  1  0  0  0
  1 24  1  0  0  0
  2  6  1  0  0  0
  2 25  1  0  0  0
  3  5  1  0  0  0
  3  4  2  0  0  0
  4 26  1  0  0  0
  5  6  2  0  0  0
  5  9  1  0  0  0
  6  7  1  0  0  0
  7  8  1  0  0  0
  8  9  2  0  0  0
  8 10  1  0  0  0
 10 11  1  0  0  0
 11 12  2  0  0  0
 11 16  1  0  0  0
 12 13  1  0  0  0
 12 27  1  0  0  0
 13 14  2  0  0  0
 13 28  1  0  0  0
 14 15  1  0  0  0
 14 17  1  0  0  0
 15 16  2  0  0  0
 15 29  1  0  0  0
 16 30  1  0  0  0
 17 18  1  0  0  0
 17 31  1  0  0  0
 17 32  1  0  0  0
 18 19  1  0  0  0
 18 23  1  0  0  0
 19 20  1  0  0  0
 19 33  1  0  0  0
 19 34  1  0  0  0
 20 21  1  0  0  0
 20 35  1  0  0  0
 20 36  1  0  0  0
 21 22  1  0  0  0
 21 37  1  0  0  0
 21 38  1  0  0  0
 22 23  1  0  0  0
 22 39  1  0  0  0
 22 40  1  0  0  0
 23 41  1  0  0  0
 23 42  1  0  0  0
M  END
> <s_m_entry_id>
6941

> <s_m_entry_name>
dock_pv.371

> <s_m_Source_Path>
/home/csk/Desktop/cluster/DUD-E-result/lkha4

> <s_m_Source_File>
dock_pv.maegz

> <i_m_Source_File_Index>
371

> <chembl_id>
CHEMBL2207730

> <chembl_pref_name>
None

> <i_lp_mmshare_version>
53161

> <i_f3d_flags>
0

> <r_lp_tautomer_probability>
1

> <s_lp_Force_Field>
OPLS_2005

> <r_lp_Energy>
24.187776

> <b_lp_Chiralities_Consistent>
1

> <s_lp_Variant>
CHEMBL4618_lig416-1

> <s_i_glide_gridfile>
glide-grid_3chp

> <i_i_glide_lignum>
483

> <i_i_glide_rotatable_bonds>
4

> <r_i_docking_score>
-8.44847414048346

> <r_i_glide_ligand_efficiency>
-0.367324962629716

> <r_i_glide_ligand_efficiency_sa>
-1.04462333100606

> <r_i_glide_ligand_efficiency_ln>
-2.04291765369699

> <r_i_glide_gscore>
-8.44847414048346

> <r_i_glide_lipo>
-4.80574494989192

> <r_i_glide_hbond>
0

> <r_i_glide_metal>
0

> <r_i_glide_rewards>
-2.09025709090909

> <r_i_glide_evdw>
-41.7665328979492

> <r_i_glide_ecoul>
-1.14665365219116

> <r_i_glide_erotb>
0.707852593043687

> <r_i_glide_esite>
0

> <r_i_glide_emodel>
-55.4635060647113

> <r_i_glide_energy>
-42.9131865501404

> <r_i_glide_einternal>
3.75360798835754

> <i_i_glide_confnum>
35

> <i_i_glide_posenum>
206

> <r_i_glide_eff_state_penalty>
0

> <s_user_duplicate_titles>
CHEMBL4618_lig416

> <s_m_subgroup_title>
dock_pv

> <s_m_subgroupid>
dock_pv

> <b_m_subgroup_collapsed>
1

$$$$
CHEMBL4618_lig357
                    3D
 Schrodinger Suite 2021-1.
 45 47  0  0  1  0            999 V2000
   10.1208   37.8151   71.9650 C   0  0  0  0  0  0
    9.4333   37.0112   72.8742 C   0  0  0  0  0  0
    8.0650   36.8208   72.7040 C   0  0  0  0  0  0
    7.3904   37.4517   71.6610 C   0  0  0  0  0  0
    8.0811   38.2154   70.7342 C   0  0  0  0  0  0
    9.4550   38.4032   70.8997 C   0  0  0  0  0  0
    7.3511   38.7625   69.7000 O   0  0  0  0  0  0
    7.9745   39.5677   68.7873 C   0  0  0  0  0  0
    8.1204   40.9298   69.0438 C   0  0  0  0  0  0
    8.8458   41.7227   68.1707 C   0  0  0  0  0  0
    9.4685   41.1382   67.0626 C   0  0  0  0  0  0
    9.2828   39.7858   66.7916 C   0  0  0  0  0  0
    8.5236   38.9961   67.6448 C   0  0  0  0  0  0
   10.2887   41.8279   66.2051 O   0  0  0  0  0  0
   10.9392   42.9950   66.6931 C   0  0  0  0  0  0
   12.2463   43.2105   65.9169 C   0  0  1  0  0  0
   13.1699   41.9679   65.9536 C   0  0  0  0  0  0
   14.4357   42.0879   65.0995 C   0  0  0  0  0  0
   14.0824   42.6280   63.7158 C   0  0  0  0  0  0
   13.3218   43.9566   63.8306 C   0  0  0  0  0  0
   12.0903   43.8159   64.5959 N   0  0  2  0  0  0
   10.1497   36.4022   74.0793 C   0  0  0  0  0  0
   11.1363   37.1940   74.4981 F   0  0  0  0  0  0
   10.6592   35.2200   73.7322 F   0  0  0  0  0  0
    9.3153   36.2162   75.1037 F   0  0  0  0  0  0
   11.1736   38.0135   72.0904 H   0  0  0  0  0  0
    7.5123   36.2203   73.4088 H   0  0  0  0  0  0
    6.3161   37.4160   71.5741 H   0  0  0  0  0  0
   10.0178   39.0147   70.2107 H   0  0  0  0  0  0
    7.7108   41.3705   69.9382 H   0  0  0  0  0  0
    8.9450   42.7754   68.3847 H   0  0  0  0  0  0
    9.7639   39.3335   65.9399 H   0  0  0  0  0  0
    8.4116   37.9386   67.4551 H   0  0  0  0  0  0
   10.2552   43.8305   66.5730 H   0  0  0  0  0  0
   11.1833   42.9186   67.7539 H   0  0  0  0  0  0
   12.7844   44.0028   66.4355 H   0  0  0  0  0  0
   13.4791   41.8143   66.9816 H   0  0  0  0  0  0
   12.6214   41.0857   65.6188 H   0  0  0  0  0  0
   15.1462   42.7607   65.5805 H   0  0  0  0  0  0
   14.9220   41.1173   65.0126 H   0  0  0  0  0  0
   14.9952   42.7704   63.1387 H   0  0  0  0  0  0
   13.4855   41.9116   63.1503 H   0  0  0  0  0  0
   13.9360   44.6949   64.3479 H   0  0  0  0  0  0
   13.1051   44.3547   62.8414 H   0  0  0  0  0  0
   11.6900   44.7336   64.7338 H   0  0  0  0  0  0
  1  6  1  0  0  0
  1  2  2  0  0  0
  1 26  1  0  0  0
  2  3  1  0  0  0
  2 22  1  0  0  0
  3  4  2  0  0  0
  3 27  1  0  0  0
  4  5  1  0  0  0
  4 28  1  0  0  0
  5  7  1  0  0  0
  5  6  2  0  0  0
  6 29  1  0  0  0
  7  8  1  0  0  0
  8 13  1  0  0  0
  8  9  2  0  0  0
  9 10  1  0  0  0
  9 30  1  0  0  0
 10 11  2  0  0  0
 10 31  1  0  0  0
 11 14  1  0  0  0
 11 12  1  0  0  0
 12 13  2  0  0  0
 12 32  1  0  0  0
 13 33  1  0  0  0
 14 15  1  0  0  0
 15 16  1  0  0  0
 15 34  1  0  0  0
 15 35  1  0  0  0
 16 17  1  0  0  0
 16 21  1  0  0  0
 16 36  1  0  0  0
 17 18  1  0  0  0
 17 37  1  0  0  0
 17 38  1  0  0  0
 18 19  1  0  0  0
 18 39  1  0  0  0
 18 40  1  0  0  0
 19 20  1  0  0  0
 19 41  1  0  0  0
 19 42  1  0  0  0
 20 21  1  0  0  0
 20 43  1  0  0  0
 20 44  1  0  0  0
 21 45  1  0  0  0
 22 23  1  0  0  0
 22 24  1  0  0  0
 22 25  1  0  0  0
M  END
> <s_m_entry_id>
6942

> <s_m_entry_name>
dock_pv.372

> <s_m_Source_Path>
/home/csk/Desktop/cluster/DUD-E-result/lkha4

> <s_m_Source_File>
dock_pv.maegz

> <i_m_Source_File_Index>
372

> <chembl_id>
CHEMBL1099218

> <chembl_pref_name>
None

> <i_lp_mmshare_version>
53161

> <i_f3d_flags>
0

> <r_lp_tautomer_probability>
1

> <s_lp_Force_Field>
OPLS_2005

> <r_lp_Energy>
30.322311

> <b_lp_Chiralities_Consistent>
1

> <s_lp_Variant>
CHEMBL4618_lig357-1

> <s_i_glide_gridfile>
glide-grid_3chp

> <i_i_glide_lignum>
403

> <i_i_glide_rotatable_bonds>
6

> <r_i_docking_score>
-8.4429694903799

> <r_i_glide_ligand_efficiency>
-0.337718779615196

> <r_i_glide_ligand_efficiency_sa>
-0.987495701062893

> <r_i_glide_ligand_efficiency_ln>
-2.00123678459858

> <r_i_glide_gscore>
-8.4429694903799

> <r_i_glide_lipo>
-4.85507919934792

> <r_i_glide_hbond>
-0.0132799126898534

> <r_i_glide_metal>
0

> <r_i_glide_rewards>
-2.12069046161512

> <r_i_glide_evdw>
-38.7521629333496

> <r_i_glide_ecoul>
-1.92489051818848

> <r_i_glide_erotb>
0.77242180766874

> <r_i_glide_esite>
0

> <r_i_glide_emodel>
-56.1688166185051

> <r_i_glide_energy>
-40.6770534515381

> <r_i_glide_einternal>
4.0512113571167

> <i_i_glide_confnum>
62

> <i_i_glide_posenum>
211

> <r_i_glide_eff_state_penalty>
0

> <s_user_duplicate_titles>
CHEMBL4618_lig357,627474

> <s_m_subgroup_title>
dock_pv

> <s_m_subgroupid>
dock_pv

> <b_m_subgroup_collapsed>
1

$$$$
CHEMBL4618_lig73
                    3D
 Schrodinger Suite 2021-1.
 47 49  0  0  1  0            999 V2000
    8.3425   40.1685   68.3619 C   0  0  0  0  0  0
    9.1155   39.7505   67.2759 C   0  0  0  0  0  0
   14.7011   42.6162   65.5379 N   0  0  0  0  0  0
    7.3932   39.2041   69.0749 C   0  0  0  0  0  0
   10.0727   40.6112   66.7392 C   0  0  0  0  0  0
    8.3933   41.5138   68.7422 C   0  0  0  0  0  0
   10.1970   41.9331   67.1778 C   0  0  0  0  0  0
    9.2995   42.3885   68.1406 C   0  0  0  0  0  0
    8.0211   38.2372   70.0862 C   0  0  0  0  0  0
   11.1730   42.8117   66.7402 O   0  0  0  0  0  0
   13.4877   43.2313   66.0875 C   0  0  0  0  0  0
   12.2669   42.3008   65.9730 C   0  0  0  0  0  0
   15.8735   43.4649   65.6885 C   0  0  0  0  0  0
   14.6382   42.3929   64.0948 C   0  0  0  0  0  0
    8.8937   38.3866   66.6555 C   0  0  0  0  0  0
    8.0296   36.8599   69.8566 C   0  0  0  0  0  0
    8.5216   38.7147   71.2940 C   0  0  0  0  0  0
   16.9191   42.8766   64.7431 C   0  0  0  0  0  0
   16.0879   42.2097   63.6459 C   0  0  0  0  0  0
    8.5202   35.9901   70.8318 C   0  0  0  0  0  0
    9.0239   37.8379   72.2566 C   0  0  0  0  0  0
    9.0137   36.4763   72.0298 C   0  0  0  0  0  0
    6.6646   39.8165   69.5891 H   0  0  0  0  0  0
    6.8228   38.6396   68.3401 H   0  0  0  0  0  0
   10.6944   40.2401   65.9400 H   0  0  0  0  0  0
    7.7488   41.8817   69.5288 H   0  0  0  0  0  0
    9.3449   43.4152   68.4729 H   0  0  0  0  0  0
   13.6518   43.4614   67.1406 H   0  0  0  0  0  0
   13.2778   44.1804   65.5891 H   0  0  0  0  0  0
   11.9533   42.2152   64.9329 H   0  0  0  0  0  0
   12.5680   41.3103   66.3215 H   0  0  0  0  0  0
   16.1924   43.4510   66.7321 H   0  0  0  0  0  0
   15.6605   44.5115   65.4661 H   0  0  0  0  0  0
   14.1424   43.2093   63.5664 H   0  0  0  0  0  0
   14.0355   41.5076   63.8913 H   0  0  0  0  0  0
    9.0763   37.6025   67.3844 H   0  0  0  0  0  0
    7.8534   38.2959   66.3420 H   0  0  0  0  0  0
    9.4971   38.2183   65.7671 H   0  0  0  0  0  0
    7.6621   36.4562   68.9267 H   0  0  0  0  0  0
    8.5215   39.7773   71.4943 H   0  0  0  0  0  0
   17.5720   42.1708   65.2583 H   0  0  0  0  0  0
   17.5536   43.6675   64.3403 H   0  0  0  0  0  0
   16.2377   42.6844   62.6785 H   0  0  0  0  0  0
   16.3342   41.1601   63.5156 H   0  0  0  0  0  0
    8.5210   34.9276   70.6801 H   0  0  0  0  0  0
    9.4249   38.2156   73.1794 H   0  0  0  0  0  0
    9.3943   35.7947   72.7779 H   0  0  0  0  0  0
  1  2  1  0  0  0
  1  4  1  0  0  0
  1  6  2  0  0  0
  2  5  2  0  0  0
  2 15  1  0  0  0
  3 11  1  0  0  0
  3 13  1  0  0  0
  3 14  1  0  0  0
  4  9  1  0  0  0
  4 23  1  0  0  0
  4 24  1  0  0  0
  5  7  1  0  0  0
  5 25  1  0  0  0
  6  8  1  0  0  0
  6 26  1  0  0  0
  7  8  2  0  0  0
  7 10  1  0  0  0
  8 27  1  0  0  0
  9 16  1  0  0  0
  9 17  2  0  0  0
 10 12  1  0  0  0
 11 12  1  0  0  0
 11 28  1  0  0  0
 11 29  1  0  0  0
 12 30  1  0  0  0
 12 31  1  0  0  0
 13 18  1  0  0  0
 13 32  1  0  0  0
 13 33  1  0  0  0
 14 19  1  0  0  0
 14 34  1  0  0  0
 14 35  1  0  0  0
 15 36  1  0  0  0
 15 37  1  0  0  0
 15 38  1  0  0  0
 16 20  2  0  0  0
 16 39  1  0  0  0
 17 21  1  0  0  0
 17 40  1  0  0  0
 18 19  1  0  0  0
 18 41  1  0  0  0
 18 42  1  0  0  0
 19 43  1  0  0  0
 19 44  1  0  0  0
 20 22  1  0  0  0
 20 45  1  0  0  0
 21 22  2  0  0  0
 21 46  1  0  0  0
 22 47  1  0  0  0
M  END
> <s_m_entry_id>
6943

> <s_m_entry_name>
dock_pv.373

> <s_m_Source_Path>
/home/csk/Desktop/cluster/DUD-E-result/lkha4

> <s_m_Source_File>
dock_pv.maegz

> <i_m_Source_File_Index>
373

> <chembl_id>
CHEMBL349006

> <chembl_pref_name>
None

> <i_lp_mmshare_version>
53161

> <i_f3d_flags>
0

> <r_lp_tautomer_probability>
1

> <s_lp_Force_Field>
OPLS_2005

> <r_lp_Energy>
36.04292

> <b_lp_Chiralities_Consistent>
1

> <s_lp_Variant>
CHEMBL4618_lig73-1

> <s_i_glide_gridfile>
glide-grid_3chp

> <i_i_glide_lignum>
93

> <i_i_glide_rotatable_bonds>
6

> <r_i_docking_score>
-8.44036840868382

> <r_i_glide_ligand_efficiency>
-0.383653109485628

> <r_i_glide_ligand_efficiency_sa>
-1.07501110099933

> <r_i_glide_ligand_efficiency_ln>
-2.06313390900042

> <r_i_glide_gscore>
-8.44036840868382

> <r_i_glide_lipo>
-4.6765782698943

> <r_i_glide_hbond>
-0.0366281428610402

> <r_i_glide_metal>
0

> <r_i_glide_rewards>
-2.29069494924156

> <r_i_glide_evdw>
-36.8977508544922

> <r_i_glide_ecoul>
-4.26836729049683

> <r_i_glide_erotb>
1.04867558961221

> <r_i_glide_esite>
0

> <r_i_glide_emodel>
-54.1244405776079

> <r_i_glide_energy>
-41.166118144989

> <r_i_glide_einternal>
8.37118053436279

> <i_i_glide_confnum>
39

> <i_i_glide_posenum>
83

> <r_i_glide_eff_state_penalty>
0

> <s_user_duplicate_titles>
CHEMBL4618_lig73

> <s_m_subgroup_title>
dock_pv

> <s_m_subgroupid>
dock_pv

> <b_m_subgroup_collapsed>
1

$$$$
CHEMBL4618_lig22
                    3D
 Schrodinger Suite 2021-1.
 45 47  0  0  1  0            999 V2000
   12.6810   42.5693   65.2497 N   0  0  2  0  0  0
   13.7421   41.6677   65.6716 C   0  0  0  0  0  0
   14.2267   42.5636   63.5375 C   0  0  0  0  0  0
   13.3893   43.5046   64.3930 C   0  0  0  0  0  0
    8.0793   39.3073   68.8879 C   0  0  0  0  0  0
   14.6299   41.4014   64.4402 C   0  0  1  0  0  0
    7.3277   38.4255   69.8742 C   0  0  0  0  0  0
    9.4137   40.9117   67.0236 C   0  0  0  0  0  0
    8.1605   40.6891   69.0770 C   0  0  0  0  0  0
    8.6207   38.7365   67.7405 C   0  0  0  0  0  0
    9.2862   39.5386   66.8209 C   0  0  0  0  0  0
    8.8289   41.4910   68.1565 C   0  0  0  0  0  0
    8.1875   37.5987   70.8135 C   0  0  0  0  0  0
   11.9066   43.1626   66.3411 C   0  0  0  0  0  0
   10.1203   41.5830   66.0459 O   0  0  0  0  0  0
   10.3987   42.9798   66.1052 C   0  0  0  0  0  0
   16.0296   41.4162   64.7399 O   0  0  0  0  0  0
    8.1673   36.2160   70.7069 C   0  0  0  0  0  0
    8.9205   38.1998   71.8322 C   0  0  0  0  0  0
    8.8622   35.4228   71.6177 C   0  0  0  0  0  0
    9.6338   37.4160   72.7398 C   0  0  0  0  0  0
    9.5938   36.0283   72.6346 C   0  0  0  0  0  0
   13.3709   40.7685   66.1659 H   0  0  0  0  0  0
   14.2837   42.2170   66.4395 H   0  0  0  0  0  0
   15.0801   43.0160   63.0433 H   0  0  0  0  0  0
   13.5726   42.2161   62.7402 H   0  0  0  0  0  0
   13.9733   44.2316   64.9609 H   0  0  0  0  0  0
   12.6681   44.0850   63.8166 H   0  0  0  0  0  0
   14.3487   40.4731   63.9406 H   0  0  0  0  0  0
    6.6727   39.0160   70.5023 H   0  0  0  0  0  0
    6.6712   37.7684   69.3020 H   0  0  0  0  0  0
    7.7211   41.1577   69.9399 H   0  0  0  0  0  0
    8.5448   37.6733   67.5648 H   0  0  0  0  0  0
    9.7209   39.0851   65.9420 H   0  0  0  0  0  0
    8.8746   42.5489   68.3571 H   0  0  0  0  0  0
   12.1639   42.7075   67.2968 H   0  0  0  0  0  0
   12.1397   44.2160   66.4353 H   0  0  0  0  0  0
    9.8219   43.5400   66.8352 H   0  0  0  0  0  0
   10.1268   43.4098   65.1403 H   0  0  0  0  0  0
   16.3813   42.2160   64.3204 H   0  0  0  0  0  0
    7.5886   35.7845   69.9104 H   0  0  0  0  0  0
    8.9064   39.2727   71.9235 H   0  0  0  0  0  0
    8.8246   34.3459   71.5397 H   0  0  0  0  0  0
   10.2006   37.8782   73.5328 H   0  0  0  0  0  0
   10.1314   35.4186   73.3464 H   0  0  0  0  0  0
  1  2  1  0  0  0
  1  4  1  0  0  0
  1 14  1  0  0  0
  2  6  1  0  0  0
  2 23  1  0  0  0
  2 24  1  0  0  0
  3  4  1  0  0  0
  3  6  1  0  0  0
  3 25  1  0  0  0
  3 26  1  0  0  0
  4 27  1  0  0  0
  4 28  1  0  0  0
  5  9  2  0  0  0
  5  7  1  0  0  0
  5 10  1  0  0  0
  6 17  1  0  0  0
  6 29  1  0  0  0
  7 13  1  0  0  0
  7 30  1  0  0  0
  7 31  1  0  0  0
  8 15  1  0  0  0
  8 11  1  0  0  0
  8 12  2  0  0  0
  9 12  1  0  0  0
  9 32  1  0  0  0
 10 11  2  0  0  0
 10 33  1  0  0  0
 11 34  1  0  0  0
 12 35  1  0  0  0
 13 18  2  0  0  0
 13 19  1  0  0  0
 14 16  1  0  0  0
 14 36  1  0  0  0
 14 37  1  0  0  0
 15 16  1  0  0  0
 16 38  1  0  0  0
 16 39  1  0  0  0
 17 40  1  0  0  0
 18 20  1  0  0  0
 18 41  1  0  0  0
 19 21  2  0  0  0
 19 42  1  0  0  0
 20 22  2  0  0  0
 20 43  1  0  0  0
 21 22  1  0  0  0
 21 44  1  0  0  0
 22 45  1  0  0  0
M  END
> <s_m_entry_id>
6944

> <s_m_entry_name>
dock_pv.374

> <s_m_Source_Path>
/home/csk/Desktop/cluster/DUD-E-result/lkha4

> <s_m_Source_File>
dock_pv.maegz

> <i_m_Source_File_Index>
374

> <chembl_id>
CHEMBL115105

> <chembl_pref_name>
None

> <i_lp_mmshare_version>
53161

> <i_f3d_flags>
0

> <r_lp_tautomer_probability>
1

> <s_lp_Force_Field>
OPLS_2005

> <r_lp_Energy>
48.101816

> <b_lp_Chiralities_Consistent>
1

> <s_lp_Variant>
CHEMBL4618_lig22-1

> <s_i_glide_gridfile>
glide-grid_3chp

> <i_i_glide_lignum>
31

> <i_i_glide_rotatable_bonds>
7

> <r_i_docking_score>
-8.43528611145657

> <r_i_glide_ligand_efficiency>
-0.383422095975299

> <r_i_glide_ligand_efficiency_sa>
-1.07436379205814

> <r_i_glide_ligand_efficiency_ln>
-2.06189161017679

> <r_i_glide_gscore>
-8.43528611145657

> <r_i_glide_lipo>
-4.90872292353908

> <r_i_glide_hbond>
-0.197270452079428

> <r_i_glide_metal>
0

> <r_i_glide_rewards>
-2.28141084828343

> <r_i_glide_evdw>
-37.5993576049805

> <r_i_glide_ecoul>
-11.0375185012817

> <r_i_glide_erotb>
2.48771376788665

> <r_i_glide_esite>
0

> <r_i_glide_emodel>
-70.327987933777

> <r_i_glide_energy>
-48.6368761062622

> <r_i_glide_einternal>
7.4909782409668

> <i_i_glide_confnum>
210

> <i_i_glide_posenum>
14

> <r_i_glide_eff_state_penalty>
0

> <s_user_duplicate_titles>
CHEMBL4618_lig22

> <s_m_subgroup_title>
dock_pv

> <s_m_subgroupid>
dock_pv

> <b_m_subgroup_collapsed>
1

$$$$
CHEMBL4618_lig395
                    3D
 Schrodinger Suite 2021-1.
 53 57  0  0  1  0            999 V2000
   12.6285   43.0160   64.2047 C   0  0  1  0  0  0
   14.4187   43.8623   65.7870 C   0  0  2  0  0  0
   13.7108   42.9410   66.7400 C   0  0  0  0  0  0
   12.9350   41.7814   66.1029 C   0  0  1  0  0  0
   11.8934   42.3702   65.2920 N   0  0  1  0  0  0
   13.3594   44.2269   64.7151 C   0  0  0  0  0  0
   13.7218   41.0184   65.0449 C   0  0  0  0  0  0
   13.6553   41.9252   63.8193 C   0  0  0  0  0  0
    9.6485   35.4124   72.9051 C   0  0  0  0  0  0
    8.8897   35.3877   71.7362 C   0  0  0  0  0  0
    9.9409   37.8159   72.7400 N   0  0  0  0  0  0
   10.1210   36.6316   73.3799 C   0  0  0  0  0  0
    9.1898   37.8075   71.6390 C   0  0  0  0  0  0
    8.6333   36.6158   71.1091 C   0  0  0  0  0  0
    7.7210   37.0160   69.6642 S   0  0  0  0  0  0
    8.1132   38.6838   69.9491 C   0  0  0  0  0  0
    8.8955   38.9467   70.9566 N   0  0  0  0  0  0
    7.4971   39.6033   69.1400 O   0  0  0  0  0  0
    8.2785   40.4121   68.3589 C   0  0  0  0  0  0
    9.2491   39.8553   67.5317 C   0  0  0  0  0  0
   10.0287   40.6792   66.7400 C   0  0  0  0  0  0
    9.8570   42.0698   66.7594 C   0  0  0  0  0  0
    8.8377   42.6143   67.5462 C   0  0  0  0  0  0
    8.0506   41.7879   68.3463 C   0  0  0  0  0  0
   10.7422   43.0160   65.9362 C   0  0  0  0  0  0
   15.7452   43.4160   65.3138 N   0  0  0  0  0  0
   16.8811   43.4160   66.0303 C   0  0  0  0  0  0
   18.1270   42.8778   65.3473 C   0  0  0  0  0  0
   16.9484   43.7977   67.1952 O   0  0  0  0  0  0
   11.9521   43.2934   63.4048 H   0  0  0  0  0  0
   14.6363   44.6652   66.4533 H   0  0  0  0  0  0
   14.5203   42.6160   67.3247 H   0  0  0  0  0  0
   13.0725   43.4820   67.4375 H   0  0  0  0  0  0
   12.5555   41.1013   66.8566 H   0  0  0  0  0  0
   12.6134   44.8862   65.1400 H   0  0  0  0  0  0
   13.7210   44.8226   63.8875 H   0  0  0  0  0  0
   14.7406   40.7997   65.3529 H   0  0  0  0  0  0
   13.2219   40.0730   64.8314 H   0  0  0  0  0  0
   14.6117   42.3066   63.4705 H   0  0  0  0  0  0
   13.3210   41.3400   62.9781 H   0  0  0  0  0  0
    9.8559   34.4975   73.4412 H   0  0  0  0  0  0
    8.5201   34.4557   71.3386 H   0  0  0  0  0  0
   10.6992   36.6750   74.2911 H   0  0  0  0  0  0
    9.3945   38.7852   67.4979 H   0  0  0  0  0  0
   10.7539   40.2119   66.0909 H   0  0  0  0  0  0
    8.6473   43.6779   67.5400 H   0  0  0  0  0  0
    7.2660   42.2147   68.9557 H   0  0  0  0  0  0
   11.0814   43.8161   66.5873 H   0  0  0  0  0  0
   10.1175   43.4746   65.1688 H   0  0  0  0  0  0
   15.8230   43.2952   64.3115 H   0  0  0  0  0  0
   18.7357   43.7038   64.9784 H   0  0  0  0  0  0
   17.8769   42.2399   64.4982 H   0  0  0  0  0  0
   18.7291   42.2957   66.0455 H   0  0  0  0  0  0
  1  5  1  0  0  0
  1  6  1  0  0  0
  1  8  1  0  0  0
  1 30  1  0  0  0
  2  3  1  0  0  0
  2  6  1  0  0  0
  2 26  1  0  0  0
  2 31  1  0  0  0
  3  4  1  0  0  0
  3 32  1  0  0  0
  3 33  1  0  0  0
  4  5  1  0  0  0
  4  7  1  0  0  0
  4 34  1  0  0  0
  5 25  1  0  0  0
  6 35  1  0  0  0
  6 36  1  0  0  0
  7  8  1  0  0  0
  7 37  1  0  0  0
  7 38  1  0  0  0
  8 39  1  0  0  0
  8 40  1  0  0  0
  9 10  2  0  0  0
  9 12  1  0  0  0
  9 41  1  0  0  0
 10 14  1  0  0  0
 10 42  1  0  0  0
 11 13  1  0  0  0
 11 12  2  0  0  0
 12 43  1  0  0  0
 13 14  2  0  0  0
 13 17  1  0  0  0
 14 15  1  0  0  0
 15 16  1  0  0  0
 16 17  2  0  0  0
 16 18  1  0  0  0
 18 19  1  0  0  0
 19 20  2  0  0  0
 19 24  1  0  0  0
 20 21  1  0  0  0
 20 44  1  0  0  0
 21 22  2  0  0  0
 21 45  1  0  0  0
 22 23  1  0  0  0
 22 25  1  0  0  0
 23 24  2  0  0  0
 23 46  1  0  0  0
 24 47  1  0  0  0
 25 48  1  0  0  0
 25 49  1  0  0  0
 26 27  1  0  0  0
 26 50  1  0  0  0
 27 28  1  0  0  0
 27 29  2  0  0  0
 28 51  1  0  0  0
 28 52  1  0  0  0
 28 53  1  0  0  0
M  END
> <s_m_entry_id>
6945

> <s_m_entry_name>
dock_pv.375

> <s_m_Source_Path>
/home/csk/Desktop/cluster/DUD-E-result/lkha4

> <s_m_Source_File>
dock_pv.maegz

> <i_m_Source_File_Index>
375

> <chembl_id>
CHEMBL2207751

> <chembl_pref_name>
None

> <i_lp_mmshare_version>
53161

> <i_f3d_flags>
0

> <r_lp_tautomer_probability>
1

> <s_lp_Force_Field>
OPLS_2005

> <r_lp_Energy>
45.710961

> <b_lp_Chiralities_Consistent>
1

> <s_lp_Variant>
CHEMBL4618_lig395-2

> <s_i_glide_gridfile>
glide-grid_3chp

> <i_i_glide_lignum>
457

> <i_i_glide_rotatable_bonds>
6

> <r_i_docking_score>
-8.42872905441185

> <r_i_glide_ligand_efficiency>
-0.290645829462478

> <r_i_glide_ligand_efficiency_sa>
-0.892956071170707

> <r_i_glide_ligand_efficiency_ln>
-1.92996521933298

> <r_i_glide_gscore>
-8.42872905441185

> <r_i_glide_lipo>
-5.18998285444644

> <r_i_glide_hbond>
0

> <r_i_glide_metal>
0

> <r_i_glide_rewards>
-1.52374390909028

> <r_i_glide_evdw>
-28.6910514831543

> <r_i_glide_ecoul>
-4.73315906524658

> <r_i_glide_erotb>
0.589684082559454

> <r_i_glide_esite>
-0.160159939489891

> <r_i_glide_emodel>
-28.3670527390875

> <r_i_glide_energy>
-33.4242105484009

> <r_i_glide_einternal>
10.3403224945068

> <i_i_glide_confnum>
20

> <i_i_glide_posenum>
117

> <r_i_glide_eff_state_penalty>
0

> <s_user_duplicate_titles>
CHEMBL4618_lig395

> <s_m_subgroup_title>
dock_pv

> <s_m_subgroupid>
dock_pv

> <b_m_subgroup_collapsed>
1

$$$$
CHEMBL4618_lig361
                    3D
 Schrodinger Suite 2021-1.
 42 44  0  0  1  0            999 V2000
    9.5622   37.4280   72.6452 C   0  0  0  0  0  0
    9.5104   36.0411   72.5542 C   0  0  0  0  0  0
    8.7764   35.4382   71.5400 C   0  0  0  0  0  0
    8.1210   36.2343   70.5996 C   0  0  0  0  0  0
    8.1477   37.6168   70.6923 C   0  0  0  0  0  0
    8.8711   38.2160   71.7194 C   0  0  0  0  0  0
    7.3970   38.3506   69.8029 O   0  0  0  0  0  0
    8.0450   39.1517   68.8956 C   0  0  0  0  0  0
    8.1208   40.5241   69.1108 C   0  0  0  0  0  0
    8.8124   41.3459   68.2436 C   0  0  0  0  0  0
    9.4526   40.7910   67.1374 C   0  0  0  0  0  0
    9.2775   39.4377   66.8468 C   0  0  0  0  0  0
    8.5838   38.6132   67.7305 C   0  0  0  0  0  0
   10.2684   41.5308   66.3146 O   0  0  0  0  0  0
   10.9341   42.6560   66.8909 C   0  0  0  0  0  0
   12.2187   42.9854   66.1156 C   0  0  2  0  0  0
   11.8820   43.7085   64.7962 C   0  0  0  0  0  0
   13.1356   44.0549   63.9906 C   0  0  0  0  0  0
   13.9601   42.7822   63.7740 C   0  0  0  0  0  0
   14.3073   42.1047   65.1071 C   0  0  0  0  0  0
   13.1149   41.8367   65.9103 N   0  0  1  0  0  0
   10.3686   35.0672   73.6921 Cl  0  0  0  0  0  0
   10.1213   37.8900   73.4454 H   0  0  0  0  0  0
    8.7197   34.3614   71.4744 H   0  0  0  0  0  0
    7.5412   35.8160   69.7968 H   0  0  0  0  0  0
    8.8631   39.2905   71.7962 H   0  0  0  0  0  0
    7.6453   40.9878   69.9400 H   0  0  0  0  0  0
    8.8641   42.4033   68.4556 H   0  0  0  0  0  0
    9.7256   39.0160   65.9597 H   0  0  0  0  0  0
    8.4969   37.5555   67.5314 H   0  0  0  0  0  0
   11.2031   42.4731   67.9300 H   0  0  0  0  0  0
   10.2548   43.5085   66.8952 H   0  0  0  0  0  0
   12.7966   43.6715   66.7375 H   0  0  0  0  0  0
   11.3294   44.6160   65.0238 H   0  0  0  0  0  0
   11.2321   43.0768   64.1912 H   0  0  0  0  0  0
   13.7210   44.7936   64.5351 H   0  0  0  0  0  0
   12.8779   44.5180   63.0428 H   0  0  0  0  0  0
   14.8770   43.0153   63.2328 H   0  0  0  0  0  0
   13.4266   42.0751   63.1400 H   0  0  0  0  0  0
   14.9827   42.7387   65.6834 H   0  0  0  0  0  0
   14.8179   41.1599   64.9208 H   0  0  0  0  0  0
   13.3749   41.4084   66.7871 H   0  0  0  0  0  0
  1  6  1  0  0  0
  1  2  2  0  0  0
  1 23  1  0  0  0
  2  3  1  0  0  0
  2 22  1  0  0  0
  3  4  2  0  0  0
  3 24  1  0  0  0
  4  5  1  0  0  0
  4 25  1  0  0  0
  5  6  2  0  0  0
  5  7  1  0  0  0
  6 26  1  0  0  0
  7  8  1  0  0  0
  8 13  1  0  0  0
  8  9  2  0  0  0
  9 10  1  0  0  0
  9 27  1  0  0  0
 10 11  2  0  0  0
 10 28  1  0  0  0
 11 12  1  0  0  0
 11 14  1  0  0  0
 12 13  2  0  0  0
 12 29  1  0  0  0
 13 30  1  0  0  0
 14 15  1  0  0  0
 15 16  1  0  0  0
 15 31  1  0  0  0
 15 32  1  0  0  0
 16 17  1  0  0  0
 16 21  1  0  0  0
 16 33  1  0  0  0
 17 18  1  0  0  0
 17 34  1  0  0  0
 17 35  1  0  0  0
 18 19  1  0  0  0
 18 36  1  0  0  0
 18 37  1  0  0  0
 19 20  1  0  0  0
 19 38  1  0  0  0
 19 39  1  0  0  0
 20 21  1  0  0  0
 20 40  1  0  0  0
 20 41  1  0  0  0
 21 42  1  0  0  0
M  END
> <s_m_entry_id>
6946

> <s_m_entry_name>
dock_pv.376

> <s_m_Source_Path>
/home/csk/Desktop/cluster/DUD-E-result/lkha4

> <s_m_Source_File>
dock_pv.maegz

> <i_m_Source_File_Index>
376

> <chembl_id>
CHEMBL1099004

> <chembl_pref_name>
None

> <i_lp_mmshare_version>
53161

> <i_f3d_flags>
0

> <r_lp_tautomer_probability>
1

> <s_lp_Force_Field>
OPLS_2005

> <r_lp_Energy>
28.811755

> <b_lp_Chiralities_Consistent>
1

> <s_lp_Variant>
CHEMBL4618_lig361-1

> <s_i_glide_gridfile>
glide-grid_3chp

> <i_i_glide_lignum>
407

> <i_i_glide_rotatable_bonds>
5

> <r_i_docking_score>
-8.42104919881396

> <r_i_glide_ligand_efficiency>
-0.382774963582453

> <r_i_glide_ligand_efficiency_sa>
-1.07255050164312

> <r_i_glide_ligand_efficiency_ln>
-2.05841158942293

> <r_i_glide_gscore>
-8.42104919881396

> <r_i_glide_lipo>
-5.0766252352611

> <r_i_glide_hbond>
-0.0807126689152249

> <r_i_glide_metal>
0

> <r_i_glide_rewards>
-1.75107422328777

> <r_i_glide_evdw>
-43.5299301147461

> <r_i_glide_ecoul>
-1.72461438179016

> <r_i_glide_erotb>
0.922551591655967

> <r_i_glide_esite>
0

> <r_i_glide_emodel>
-60.6962211940132

> <r_i_glide_energy>
-45.2545444965363

> <r_i_glide_einternal>
9.18032455444336

> <i_i_glide_confnum>
91

> <i_i_glide_posenum>
112

> <r_i_glide_eff_state_penalty>
0

> <s_user_duplicate_titles>
CHEMBL4618_lig361,627478

> <s_m_subgroup_title>
dock_pv

> <s_m_subgroupid>
dock_pv

> <b_m_subgroup_collapsed>
1

$$$$
CHEMBL4618_lig56
                    3D
 Schrodinger Suite 2021-1.
 47 49  0  0  1  0            999 V2000
   13.7815   42.5910   65.7479 N   0  0  0  0  0  0
    8.8240   41.5302   68.1702 C   0  0  0  0  0  0
    9.4460   40.9836   67.0490 C   0  0  0  0  0  0
    8.1499   40.6999   69.0614 C   0  0  0  0  0  0
    8.0759   39.3238   68.8388 C   0  0  0  0  0  0
    9.3208   39.6146   66.7985 C   0  0  0  0  0  0
    7.3210   38.4290   69.8000 C   0  0  0  0  0  0
    8.6351   38.7873   67.6830 C   0  0  0  0  0  0
   10.1796   41.7968   66.2165 O   0  0  0  0  0  0
    8.1716   37.6001   70.7404 C   0  0  0  0  0  0
   12.3362   42.8145   65.8507 C   0  0  0  0  0  0
   11.5768   41.5166   66.1778 C   0  0  0  0  0  0
   14.5580   43.8171   65.8019 C   0  0  0  0  0  0
   14.2149   41.9734   64.4977 C   0  0  0  0  0  0
    8.9096   43.0153   68.4466 C   0  0  0  0  0  0
    8.1226   36.2181   70.6408 C   0  0  0  0  0  0
    8.9192   38.2008   71.7467 C   0  0  0  0  0  0
   15.9648   43.3781   65.4136 C   0  0  0  0  0  0
   15.7170   42.2776   64.3797 C   0  0  0  0  0  0
    8.8160   35.4211   71.5475 C   0  0  0  0  0  0
    9.6212   37.4127   72.6585 C   0  0  0  0  0  0
    9.5615   36.0239   72.5589 C   0  0  0  0  0  0
    7.7176   41.1364   69.9401 H   0  0  0  0  0  0
    9.7940   39.1748   65.9399 H   0  0  0  0  0  0
    6.6656   39.0160   70.4301 H   0  0  0  0  0  0
    6.6699   37.7805   69.2125 H   0  0  0  0  0  0
    8.5684   37.7287   67.4833 H   0  0  0  0  0  0
   12.1421   43.5275   66.6531 H   0  0  0  0  0  0
   11.9462   43.2693   64.9383 H   0  0  0  0  0  0
   11.7773   40.7295   65.4546 H   0  0  0  0  0  0
   11.9239   41.1403   67.1392 H   0  0  0  0  0  0
   14.5192   44.2157   66.8161 H   0  0  0  0  0  0
   14.1470   44.6022   65.1576 H   0  0  0  0  0  0
   13.6647   42.3507   63.6321 H   0  0  0  0  0  0
   14.0080   40.9034   64.5258 H   0  0  0  0  0  0
    8.3424   43.3124   69.3300 H   0  0  0  0  0  0
    9.9548   43.2973   68.5824 H   0  0  0  0  0  0
    8.5189   43.5677   67.5902 H   0  0  0  0  0  0
    7.5263   35.7994   69.8520 H   0  0  0  0  0  0
    8.9210   39.2753   71.8241 H   0  0  0  0  0  0
   16.4994   43.0149   66.2922 H   0  0  0  0  0  0
   16.5560   44.2042   65.0201 H   0  0  0  0  0  0
   15.9619   42.6161   63.3706 H   0  0  0  0  0  0
   16.3334   41.4136   64.5976 H   0  0  0  0  0  0
    8.7602   34.3445   71.4820 H   0  0  0  0  0  0
   10.1919   37.8686   73.4544 H   0  0  0  0  0  0
   10.0914   35.4101   73.2723 H   0  0  0  0  0  0
  1 11  1  0  0  0
  1 13  1  0  0  0
  1 14  1  0  0  0
  2  3  1  0  0  0
  2  4  2  0  0  0
  2 15  1  0  0  0
  3  9  1  0  0  0
  3  6  2  0  0  0
  4  5  1  0  0  0
  4 23  1  0  0  0
  5  8  2  0  0  0
  5  7  1  0  0  0
  6  8  1  0  0  0
  6 24  1  0  0  0
  7 10  1  0  0  0
  7 25  1  0  0  0
  7 26  1  0  0  0
  8 27  1  0  0  0
  9 12  1  0  0  0
 10 16  1  0  0  0
 10 17  2  0  0  0
 11 12  1  0  0  0
 11 28  1  0  0  0
 11 29  1  0  0  0
 12 30  1  0  0  0
 12 31  1  0  0  0
 13 18  1  0  0  0
 13 32  1  0  0  0
 13 33  1  0  0  0
 14 19  1  0  0  0
 14 34  1  0  0  0
 14 35  1  0  0  0
 15 36  1  0  0  0
 15 37  1  0  0  0
 15 38  1  0  0  0
 16 20  2  0  0  0
 16 39  1  0  0  0
 17 21  1  0  0  0
 17 40  1  0  0  0
 18 19  1  0  0  0
 18 41  1  0  0  0
 18 42  1  0  0  0
 19 43  1  0  0  0
 19 44  1  0  0  0
 20 22  1  0  0  0
 20 45  1  0  0  0
 21 22  2  0  0  0
 21 46  1  0  0  0
 22 47  1  0  0  0
M  END
> <s_m_entry_id>
6947

> <s_m_entry_name>
dock_pv.377

> <s_m_Source_Path>
/home/csk/Desktop/cluster/DUD-E-result/lkha4

> <s_m_Source_File>
dock_pv.maegz

> <i_m_Source_File_Index>
377

> <chembl_id>
CHEMBL162829

> <chembl_pref_name>
None

> <i_lp_mmshare_version>
53161

> <i_f3d_flags>
0

> <r_lp_tautomer_probability>
1

> <s_lp_Force_Field>
OPLS_2005

> <r_lp_Energy>
34.511919

> <b_lp_Chiralities_Consistent>
1

> <s_lp_Variant>
CHEMBL4618_lig56-1

> <s_i_glide_gridfile>
glide-grid_3chp

> <i_i_glide_lignum>
73

> <i_i_glide_rotatable_bonds>
6

> <r_i_docking_score>
-8.42067092686035

> <r_i_glide_ligand_efficiency>
-0.382757769402743

> <r_i_glide_ligand_efficiency_sa>
-1.07250232287536

> <r_i_glide_ligand_efficiency_ln>
-2.05831912595966

> <r_i_glide_gscore>
-8.42067092686035

> <r_i_glide_lipo>
-4.8417216909967

> <r_i_glide_hbond>
0

> <r_i_glide_metal>
0

> <r_i_glide_rewards>
-2.29487318181818

> <r_i_glide_evdw>
-39.2337760925293

> <r_i_glide_ecoul>
-2.47375226020813

> <r_i_glide_erotb>
1.04867558961221

> <r_i_glide_esite>
0

> <r_i_glide_emodel>
-54.6488455929327

> <r_i_glide_energy>
-41.7075283527374

> <r_i_glide_einternal>
7.0524525642395

> <i_i_glide_confnum>
1

> <i_i_glide_posenum>
214

> <r_i_glide_eff_state_penalty>
0

> <s_user_duplicate_titles>
CHEMBL4618_lig56

> <s_m_subgroup_title>
dock_pv

> <s_m_subgroupid>
dock_pv

> <b_m_subgroup_collapsed>
1

$$$$
CHEMBL4618_lig300
                    3D
 Schrodinger Suite 2021-1.
 51 54  0  0  1  0            999 V2000
    9.7441   34.9729   73.0620 C   0  0  0  0  0  0
   10.3149   36.1016   73.6379 C   0  0  0  0  0  0
   10.1204   37.3638   73.0823 C   0  0  0  0  0  0
    8.9211   35.0532   71.9399 C   0  0  0  0  0  0
    8.6863   36.3271   71.4114 C   0  0  0  0  0  0
    9.2861   37.4892   71.9593 C   0  0  0  0  0  0
    8.9207   38.6121   71.2580 N   0  0  0  0  0  0
    8.1030   38.1678   70.3377 C   0  0  0  0  0  0
    7.9286   36.8057   70.3642 N   0  0  0  0  0  0
    7.4146   38.9832   69.4752 O   0  0  0  0  0  0
    8.1211   39.8417   68.6658 C   0  0  0  0  0  0
    8.9692   39.3292   67.6917 C   0  0  0  0  0  0
    9.7330   40.1900   66.9121 C   0  0  0  0  0  0
    9.6593   41.5752   67.0886 C   0  0  0  0  0  0
    8.7323   42.0877   67.9961 C   0  0  0  0  0  0
    7.9695   41.2253   68.7855 C   0  0  0  0  0  0
   10.4471   42.4752   66.3923 O   0  0  0  0  0  0
   11.7606   42.0791   65.9822 C   0  0  0  0  0  0
   12.2787   43.0769   64.9397 C   0  0  0  0  0  0
   13.6091   42.6743   64.2539 C   0  0  0  0  0  0
   14.7888   42.5633   65.1338 N   0  0  0  0  0  0
   15.9435   42.2190   64.2801 C   0  0  0  0  0  0
   17.2879   42.2333   65.0397 C   0  0  0  0  0  0
   17.5371   43.5719   65.7384 C   0  0  0  0  0  0
   16.3430   43.8877   66.6430 C   0  0  0  0  0  0
   15.0019   43.8154   65.8776 C   0  0  0  0  0  0
    9.9289   34.0082   73.5140 H   0  0  0  0  0  0
   10.9247   35.9928   74.5227 H   0  0  0  0  0  0
   10.5830   38.2169   73.5401 H   0  0  0  0  0  0
    8.4551   34.1657   71.5373 H   0  0  0  0  0  0
    7.3242   36.3056   69.7309 H   0  0  0  0  0  0
    9.0604   38.2601   67.5577 H   0  0  0  0  0  0
   10.3847   39.7427   66.1804 H   0  0  0  0  0  0
    8.6270   43.1570   68.1121 H   0  0  0  0  0  0
    7.2862   41.6322   69.5144 H   0  0  0  0  0  0
   11.7924   41.0855   65.5397 H   0  0  0  0  0  0
   12.4228   42.0688   66.8465 H   0  0  0  0  0  0
   12.3429   44.0794   65.3630 H   0  0  0  0  0  0
   11.5220   43.1614   64.1584 H   0  0  0  0  0  0
   13.8040   43.3778   63.4412 H   0  0  0  0  0  0
   13.4612   41.7026   63.7804 H   0  0  0  0  0  0
   16.0121   42.9337   63.4572 H   0  0  0  0  0  0
   15.7684   41.2515   63.8067 H   0  0  0  0  0  0
   18.1049   42.0547   64.3401 H   0  0  0  0  0  0
   17.3264   41.4161   65.7552 H   0  0  0  0  0  0
   18.4615   43.5349   66.3163 H   0  0  0  0  0  0
   17.6632   44.3555   64.9890 H   0  0  0  0  0  0
   16.3188   43.2160   67.5003 H   0  0  0  0  0  0
   16.4600   44.8824   67.0705 H   0  0  0  0  0  0
   14.9759   44.6160   65.1404 H   0  0  0  0  0  0
   14.1722   43.9878   66.5649 H   0  0  0  0  0  0
  1  4  1  0  0  0
  1  2  2  0  0  0
  1 27  1  0  0  0
  2  3  1  0  0  0
  2 28  1  0  0  0
  3  6  2  0  0  0
  3 29  1  0  0  0
  4  5  2  0  0  0
  4 30  1  0  0  0
  5  9  1  0  0  0
  5  6  1  0  0  0
  6  7  1  0  0  0
  7  8  2  0  0  0
  8  9  1  0  0  0
  8 10  1  0  0  0
  9 31  1  0  0  0
 10 11  1  0  0  0
 11 16  1  0  0  0
 11 12  2  0  0  0
 12 13  1  0  0  0
 12 32  1  0  0  0
 13 14  2  0  0  0
 13 33  1  0  0  0
 14 15  1  0  0  0
 14 17  1  0  0  0
 15 16  2  0  0  0
 15 34  1  0  0  0
 16 35  1  0  0  0
 17 18  1  0  0  0
 18 19  1  0  0  0
 18 36  1  0  0  0
 18 37  1  0  0  0
 19 20  1  0  0  0
 19 38  1  0  0  0
 19 39  1  0  0  0
 20 21  1  0  0  0
 20 40  1  0  0  0
 20 41  1  0  0  0
 21 22  1  0  0  0
 21 26  1  0  0  0
 22 23  1  0  0  0
 22 42  1  0  0  0
 22 43  1  0  0  0
 23 24  1  0  0  0
 23 44  1  0  0  0
 23 45  1  0  0  0
 24 25  1  0  0  0
 24 46  1  0  0  0
 24 47  1  0  0  0
 25 26  1  0  0  0
 25 48  1  0  0  0
 25 49  1  0  0  0
 26 50  1  0  0  0
 26 51  1  0  0  0
M  END
> <s_m_entry_id>
6948

> <s_m_entry_name>
dock_pv.378

> <s_m_Source_Path>
/home/csk/Desktop/cluster/DUD-E-result/lkha4

> <s_m_Source_File>
dock_pv.maegz

> <i_m_Source_File_Index>
378

> <chembl_id>
CHEMBL481690

> <chembl_pref_name>
None

> <i_lp_mmshare_version>
53161

> <i_f3d_flags>
0

> <r_lp_tautomer_probability>
1

> <s_lp_Force_Field>
OPLS_2005

> <r_lp_Energy>
31.924241

> <b_lp_Chiralities_Consistent>
1

> <s_lp_Variant>
CHEMBL4618_lig300-1

> <s_i_glide_gridfile>
glide-grid_3chp

> <i_i_glide_lignum>
338

> <i_i_glide_rotatable_bonds>
7

> <r_i_docking_score>
-8.4142366066869

> <r_i_glide_ligand_efficiency>
-0.323624484872573

> <r_i_glide_ligand_efficiency_sa>
-0.95873626303414

> <r_i_glide_ligand_efficiency_ln>
-1.97605585771819

> <r_i_glide_gscore>
-8.4142366066869

> <r_i_glide_lipo>
-4.86839968325511

> <r_i_glide_hbond>
0

> <r_i_glide_metal>
0

> <r_i_glide_rewards>
-1.3099376266122

> <r_i_glide_evdw>
-53.065372467041

> <r_i_glide_ecoul>
-3.39443302154541

> <r_i_glide_erotb>
0.926534279764276

> <r_i_glide_esite>
0

> <r_i_glide_emodel>
-77.9935850001133

> <r_i_glide_energy>
-56.4598054885864

> <r_i_glide_einternal>
11.2595453262329

> <i_i_glide_confnum>
29

> <i_i_glide_posenum>
69

> <r_i_glide_eff_state_penalty>
0

> <s_user_duplicate_titles>
CHEMBL4618_lig300,467586

> <s_m_subgroup_title>
dock_pv

> <s_m_subgroupid>
dock_pv

> <b_m_subgroup_collapsed>
1

$$$$
CHEMBL4618_lig372
                    3D
 Schrodinger Suite 2021-1.
 43 45  0  0  1  0            999 V2000
    9.6096   37.4160   72.6470 C   0  0  0  0  0  0
    9.5399   36.0287   72.5522 C   0  0  0  0  0  0
    8.7959   35.4294   71.5401 C   0  0  0  0  0  0
    8.1213   36.2293   70.6205 C   0  0  0  0  0  0
    8.1732   37.6130   70.7175 C   0  0  0  0  0  0
    8.9178   38.2087   71.7309 C   0  0  0  0  0  0
    7.3214   38.4527   69.7808 C   0  0  0  0  0  0
    8.0727   39.3790   68.8392 C   0  0  0  0  0  0
    8.6438   38.8634   67.6797 C   0  0  0  0  0  0
    9.3211   39.7109   66.8123 C   0  0  0  0  0  0
    9.4331   41.0696   67.0939 C   0  0  0  0  0  0
    8.7898   41.6002   68.2114 C   0  0  0  0  0  0
    8.1210   40.7535   69.0808 C   0  0  0  0  0  0
   10.1898   41.8337   66.2377 O   0  0  0  0  0  0
   10.9435   42.9039   66.8109 C   0  0  0  0  0  0
   12.2792   43.0411   66.0635 C   0  0  2  0  0  0
   12.0761   43.7165   64.6879 C   0  0  0  0  0  0
   13.3205   43.8154   63.9370 N   0  0  2  0  0  0
   13.9555   42.5144   63.7680 C   0  0  0  0  0  0
   14.2066   41.8526   65.1389 C   0  0  0  0  0  0
   12.9875   41.7639   65.9400 N   0  0  2  0  0  0
   10.1764   37.8706   73.4464 H   0  0  0  0  0  0
   10.0592   35.4139   73.2727 H   0  0  0  0  0  0
    8.7294   34.3529   71.4799 H   0  0  0  0  0  0
    7.5203   35.8155   69.8328 H   0  0  0  0  0  0
    8.9165   39.2831   71.8100 H   0  0  0  0  0  0
    6.6835   37.8105   69.1747 H   0  0  0  0  0  0
    6.6499   39.0157   70.4162 H   0  0  0  0  0  0
    8.5888   37.8076   67.4604 H   0  0  0  0  0  0
    9.8015   39.2988   65.9400 H   0  0  0  0  0  0
    8.8206   42.6601   68.4207 H   0  0  0  0  0  0
    7.6539   41.1920   69.9400 H   0  0  0  0  0  0
   10.3534   43.8158   66.7401 H   0  0  0  0  0  0
   11.1578   42.7434   67.8690 H   0  0  0  0  0  0
   12.9194   43.6948   66.6584 H   0  0  0  0  0  0
   11.3466   43.1615   64.0985 H   0  0  0  0  0  0
   11.7210   44.7319   64.8330 H   0  0  0  0  0  0
   13.9673   44.5421   64.2210 H   0  0  0  0  0  0
   13.3211   41.8736   63.1535 H   0  0  0  0  0  0
   14.9010   42.6368   63.2376 H   0  0  0  0  0  0
   14.5908   40.8454   64.9816 H   0  0  0  0  0  0
   14.9569   42.4267   65.6826 H   0  0  0  0  0  0
   12.3621   41.0402   65.6084 H   0  0  0  0  0  0
  1  6  1  0  0  0
  1  2  2  0  0  0
  1 22  1  0  0  0
  2  3  1  0  0  0
  2 23  1  0  0  0
  3  4  2  0  0  0
  3 24  1  0  0  0
  4  5  1  0  0  0
  4 25  1  0  0  0
  5  6  2  0  0  0
  5  7  1  0  0  0
  6 26  1  0  0  0
  7  8  1  0  0  0
  7 27  1  0  0  0
  7 28  1  0  0  0
  8 13  1  0  0  0
  8  9  2  0  0  0
  9 10  1  0  0  0
  9 29  1  0  0  0
 10 11  2  0  0  0
 10 30  1  0  0  0
 11 12  1  0  0  0
 11 14  1  0  0  0
 12 13  2  0  0  0
 12 31  1  0  0  0
 13 32  1  0  0  0
 14 15  1  0  0  0
 15 16  1  0  0  0
 15 33  1  0  0  0
 15 34  1  0  0  0
 16 17  1  0  0  0
 16 21  1  0  0  0
 16 35  1  0  0  0
 17 18  1  0  0  0
 17 36  1  0  0  0
 17 37  1  0  0  0
 18 19  1  0  0  0
 18 38  1  0  0  0
 19 20  1  0  0  0
 19 39  1  0  0  0
 19 40  1  0  0  0
 20 21  1  0  0  0
 20 41  1  0  0  0
 20 42  1  0  0  0
 21 43  1  0  0  0
M  END
> <s_m_entry_id>
6949

> <s_m_entry_name>
dock_pv.379

> <s_m_Source_Path>
/home/csk/Desktop/cluster/DUD-E-result/lkha4

> <s_m_Source_File>
dock_pv.maegz

> <i_m_Source_File_Index>
379

> <chembl_id>
CHEMBL1098820

> <chembl_pref_name>
None

> <i_lp_mmshare_version>
53161

> <i_f3d_flags>
0

> <r_lp_tautomer_probability>
1

> <s_lp_Force_Field>
OPLS_2005

> <r_lp_Energy>
36.343978

> <b_lp_Chiralities_Consistent>
1

> <s_lp_Variant>
CHEMBL4618_lig372-1

> <s_i_glide_gridfile>
glide-grid_3chp

> <i_i_glide_lignum>
419

> <i_i_glide_rotatable_bonds>
5

> <r_i_docking_score>
-8.41345595491271

> <r_i_glide_ligand_efficiency>
-0.400640759757748

> <r_i_glide_ligand_efficiency_sa>
-1.10533747701761

> <r_i_glide_ligand_efficiency_ln>
-2.08020998386363

> <r_i_glide_gscore>
-8.41345595491271

> <r_i_glide_lipo>
-4.86966962543845

> <r_i_glide_hbond>
-0.119661400063218

> <r_i_glide_metal>
0

> <r_i_glide_rewards>
-2.14967420523693

> <r_i_glide_evdw>
-38.0632705688477

> <r_i_glide_ecoul>
-3.37195420265198

> <r_i_glide_erotb>
1.13450593466607

> <r_i_glide_esite>
0

> <r_i_glide_emodel>
-55.7361439417317

> <r_i_glide_energy>
-41.4352247714996

> <r_i_glide_einternal>
2.83716559410095

> <i_i_glide_confnum>
361

> <i_i_glide_posenum>
264

> <r_i_glide_eff_state_penalty>
0

> <s_user_duplicate_titles>
CHEMBL4618_lig372

> <s_m_subgroup_title>
dock_pv

> <s_m_subgroupid>
dock_pv

> <b_m_subgroup_collapsed>
1

$$$$
CHEMBL4618_lig391
                    3D
 Schrodinger Suite 2021-1.
 44 46  0  0  1  0            999 V2000
   10.0713   35.7695   73.0552 N   0  0  0  0  0  0
    9.5732   36.3414   74.2932 C   0  0  0  0  0  0
   10.6034   35.9471   75.3477 C   0  0  0  0  0  0
   11.1756   34.6222   74.8302 C   0  0  0  0  0  0
   10.5210   34.4413   73.4563 C   0  0  0  0  0  0
    9.0950   35.7939   71.9602 C   0  0  0  0  0  0
    8.8210   37.2293   71.4495 C   0  0  0  0  0  0
    8.3696   37.1656   70.0960 O   0  0  0  0  0  0
    8.4153   38.3048   69.3134 C   0  0  0  0  0  0
    8.4000   38.1202   67.9343 C   0  0  0  0  0  0
    8.5210   39.2006   67.0638 C   0  0  0  0  0  0
    8.6088   40.4989   67.5735 C   0  0  0  0  0  0
    8.5210   40.7009   68.9484 C   0  0  0  0  0  0
    8.4827   39.6085   69.8168 C   0  0  0  0  0  0
    8.8152   41.5810   66.7400 O   0  0  0  0  0  0
   10.0975   41.9140   66.3123 C   0  0  0  0  0  0
   10.3443   43.1660   65.7286 C   0  0  0  0  0  0
   11.6288   43.5204   65.3065 C   0  0  0  0  0  0
   12.6858   42.6242   65.4196 C   0  0  0  0  0  0
   12.4499   41.3582   65.9400 C   0  0  0  0  0  0
   11.1682   41.0160   66.3781 C   0  0  0  0  0  0
    9.3210   44.0879   65.5400 N   0  0  0  0  0  0
    8.5615   36.0081   74.5340 H   0  0  0  0  0  0
    9.5008   37.4160   74.1539 H   0  0  0  0  0  0
   10.1210   35.8367   76.3201 H   0  0  0  0  0  0
   11.3698   36.7151   75.4517 H   0  0  0  0  0  0
   12.2609   34.6160   74.7537 H   0  0  0  0  0  0
   10.9210   33.8160   75.5102 H   0  0  0  0  0  0
   11.2168   34.0561   72.7134 H   0  0  0  0  0  0
    9.7210   33.7074   73.4827 H   0  0  0  0  0  0
    9.4733   35.1885   71.1400 H   0  0  0  0  0  0
    8.1592   35.3276   72.2709 H   0  0  0  0  0  0
    8.0695   37.7192   72.0708 H   0  0  0  0  0  0
    9.7381   37.8204   71.5087 H   0  0  0  0  0  0
    8.3576   37.1178   67.5400 H   0  0  0  0  0  0
    8.5739   39.0233   65.9991 H   0  0  0  0  0  0
    8.5634   41.7054   69.3421 H   0  0  0  0  0  0
    8.4868   39.7909   70.8801 H   0  0  0  0  0  0
   11.8130   44.4935   64.8765 H   0  0  0  0  0  0
   13.6717   42.9006   65.0750 H   0  0  0  0  0  0
   13.2523   40.6361   65.9942 H   0  0  0  0  0  0
   10.9724   40.0254   66.7439 H   0  0  0  0  0  0
    9.4854   44.9647   66.0148 H   0  0  0  0  0  0
    8.3831   43.7165   65.6571 H   0  0  0  0  0  0
  1  2  1  0  0  0
  1  5  1  0  0  0
  1  6  1  0  0  0
  2  3  1  0  0  0
  2 23  1  0  0  0
  2 24  1  0  0  0
  3  4  1  0  0  0
  3 25  1  0  0  0
  3 26  1  0  0  0
  4  5  1  0  0  0
  4 27  1  0  0  0
  4 28  1  0  0  0
  5 29  1  0  0  0
  5 30  1  0  0  0
  6  7  1  0  0  0
  6 31  1  0  0  0
  6 32  1  0  0  0
  7  8  1  0  0  0
  7 33  1  0  0  0
  7 34  1  0  0  0
  8  9  1  0  0  0
  9 10  1  0  0  0
  9 14  2  0  0  0
 10 11  2  0  0  0
 10 35  1  0  0  0
 11 12  1  0  0  0
 11 36  1  0  0  0
 12 13  2  0  0  0
 12 15  1  0  0  0
 13 14  1  0  0  0
 13 37  1  0  0  0
 14 38  1  0  0  0
 15 16  1  0  0  0
 16 17  1  0  0  0
 16 21  2  0  0  0
 17 18  2  0  0  0
 17 22  1  0  0  0
 18 19  1  0  0  0
 18 39  1  0  0  0
 19 20  2  0  0  0
 19 40  1  0  0  0
 20 21  1  0  0  0
 20 41  1  0  0  0
 21 42  1  0  0  0
 22 43  1  0  0  0
 22 44  1  0  0  0
M  END
> <s_m_entry_id>
6950

> <s_m_entry_name>
dock_pv.380

> <s_m_Source_Path>
/home/csk/Desktop/cluster/DUD-E-result/lkha4

> <s_m_Source_File>
dock_pv.maegz

> <i_m_Source_File_Index>
380

> <chembl_id>
CHEMBL1775105

> <chembl_pref_name>
None

> <i_lp_mmshare_version>
53161

> <i_f3d_flags>
0

> <r_lp_tautomer_probability>
1

> <s_lp_Force_Field>
OPLS_2005

> <r_lp_Energy>
38.56647

> <b_lp_Chiralities_Consistent>
1

> <s_lp_Variant>
CHEMBL4618_lig391-1

> <s_i_glide_gridfile>
glide-grid_3chp

> <i_i_glide_lignum>
452

> <i_i_glide_rotatable_bonds>
6

> <r_i_docking_score>
-8.39646467236474

> <r_i_glide_ligand_efficiency>
-0.381657485107488

> <r_i_glide_ligand_efficiency_sa>
-1.06941928300833

> <r_i_glide_ligand_efficiency_ln>
-2.05240223441635

> <r_i_glide_gscore>
-8.39646467236474

> <r_i_glide_lipo>
-4.96623073216286

> <r_i_glide_hbond>
-0.198201161195169

> <r_i_glide_metal>
0

> <r_i_glide_rewards>
-1.60949316665693

> <r_i_glide_evdw>
-36.717586517334

> <r_i_glide_ecoul>
-5.42306995391846

> <r_i_glide_erotb>
1.03055262903003

> <r_i_glide_esite>
-0.00375242242535175

> <r_i_glide_emodel>
-55.9247204291496

> <r_i_glide_energy>
-42.1406564712524

> <r_i_glide_einternal>
8.72293472290039

> <i_i_glide_confnum>
91

> <i_i_glide_posenum>
395

> <r_i_glide_eff_state_penalty>
0

> <s_user_duplicate_titles>
CHEMBL4618_lig391

> <s_m_subgroup_title>
dock_pv

> <s_m_subgroupid>
dock_pv

> <b_m_subgroup_collapsed>
1

$$$$
CHEMBL4618_lig430
                    3D
 Schrodinger Suite 2021-1.
 56 61  0  0  1  0            999 V2000
   12.0993   42.7899   65.0841 O   0  0  0  0  0  0
   14.5379   41.9540   64.3416 S   0  0  0  0  0  0
   13.4381   42.8051   65.4001 C   0  0  0  0  0  0
   13.9851   43.5196   66.3378 N   0  0  0  0  0  0
   15.3471   43.4977   66.2738 C   0  0  0  0  0  0
   15.8758   42.6655   65.2486 C   0  0  0  0  0  0
   16.1211   44.2128   67.1111 N   0  0  0  0  0  0
   17.4641   44.0874   66.9479 C   0  0  0  0  0  0
   18.0650   43.2959   65.9685 C   0  0  0  0  0  0
   17.2645   42.5650   65.0924 C   0  0  0  0  0  0
   10.1639   40.2161   66.9209 C   0  0  0  0  0  0
   11.1533   40.8419   66.1421 C   0  0  0  0  0  0
   11.1896   42.2229   65.9507 C   0  0  0  0  0  0
   10.2306   43.0175   66.5759 C   0  0  0  0  0  0
    8.2199   40.7466   68.5921 C   0  0  0  0  0  0
    9.2683   40.9947   67.6449 C   0  0  0  0  0  0
    9.3212   42.3944   67.4471 C   0  0  0  0  0  0
    8.3706   43.0116   68.1974 O   0  0  0  0  0  0
    7.7284   42.0069   68.8601 C   0  0  0  0  0  0
    7.6235   39.4549   69.1191 C   0  0  0  0  0  0
    8.4820   38.4897   69.8197 N   0  0  1  0  0  0
    8.9500   38.9458   71.1358 C   0  0  0  0  0  0
    9.7933   37.8795   71.8868 C   0  0  0  0  0  0
    9.0918   36.5156   72.0221 C   0  0  0  0  0  0
    8.4064   36.1662   70.6990 C   0  0  0  0  0  0
    7.6455   37.3012   70.0222 C   0  0  0  0  0  0
    9.8563   35.4233   72.6612 N   0  0  0  0  0  0
   10.2419   34.1866   71.9699 C   0  0  0  0  0  0
   10.8444   33.3114   73.0528 C   0  0  0  0  0  0
   11.1238   34.2552   74.2004 C   0  0  0  0  0  0
   10.2874   35.5011   73.9442 C   0  0  0  0  0  0
   10.0868   36.3867   74.7698 O   0  0  0  0  0  0
   18.0740   44.6565   67.6318 H   0  0  0  0  0  0
   19.1395   43.2640   65.8684 H   0  0  0  0  0  0
   17.7044   41.9968   64.2863 H   0  0  0  0  0  0
   10.1195   39.1415   67.0001 H   0  0  0  0  0  0
   11.8499   40.2332   65.5773 H   0  0  0  0  0  0
   10.2028   44.0798   66.3984 H   0  0  0  0  0  0
    6.9091   42.2879   69.5036 H   0  0  0  0  0  0
    7.0922   38.9656   68.3026 H   0  0  0  0  0  0
    6.8364   39.7258   69.8158 H   0  0  0  0  0  0
    8.1210   39.2724   71.7617 H   0  0  0  0  0  0
    9.5653   39.8158   70.9668 H   0  0  0  0  0  0
   10.0075   38.2159   72.8980 H   0  0  0  0  0  0
   10.7556   37.8156   71.3831 H   0  0  0  0  0  0
    8.2572   36.7146   72.6980 H   0  0  0  0  0  0
    9.0966   35.8161   69.9513 H   0  0  0  0  0  0
    7.7211   35.3658   70.9048 H   0  0  0  0  0  0
    6.7412   37.5477   70.5836 H   0  0  0  0  0  0
    7.3195   36.9420   69.0453 H   0  0  0  0  0  0
    9.3679   33.6970   71.5414 H   0  0  0  0  0  0
   10.9496   34.3758   71.1571 H   0  0  0  0  0  0
   11.7187   32.7558   72.7168 H   0  0  0  0  0  0
   10.1220   32.5633   73.3821 H   0  0  0  0  0  0
   12.1623   34.5751   74.1945 H   0  0  0  0  0  0
   10.9219   33.8159   75.1776 H   0  0  0  0  0  0
  1  3  1  0  0  0
  1 13  1  0  0  0
  2  3  1  0  0  0
  2  6  1  0  0  0
  3  4  2  0  0  0
  4  5  1  0  0  0
  5  6  1  0  0  0
  5  7  2  0  0  0
  6 10  2  0  0  0
  7  8  1  0  0  0
  8  9  2  0  0  0
  8 33  1  0  0  0
  9 10  1  0  0  0
  9 34  1  0  0  0
 10 35  1  0  0  0
 11 16  2  0  0  0
 11 12  1  0  0  0
 11 36  1  0  0  0
 12 13  2  0  0  0
 12 37  1  0  0  0
 13 14  1  0  0  0
 14 17  2  0  0  0
 14 38  1  0  0  0
 15 16  1  0  0  0
 15 19  2  0  0  0
 15 20  1  0  0  0
 16 17  1  0  0  0
 17 18  1  0  0  0
 18 19  1  0  0  0
 19 39  1  0  0  0
 20 21  1  0  0  0
 20 40  1  0  0  0
 20 41  1  0  0  0
 21 22  1  0  0  0
 21 26  1  0  0  0
 22 23  1  0  0  0
 22 42  1  0  0  0
 22 43  1  0  0  0
 23 24  1  0  0  0
 23 44  1  0  0  0
 23 45  1  0  0  0
 24 25  1  0  0  0
 24 27  1  0  0  0
 24 46  1  0  0  0
 25 26  1  0  0  0
 25 47  1  0  0  0
 25 48  1  0  0  0
 26 49  1  0  0  0
 26 50  1  0  0  0
 27 28  1  0  0  0
 27 31  1  0  0  0
 28 29  1  0  0  0
 28 51  1  0  0  0
 28 52  1  0  0  0
 29 30  1  0  0  0
 29 53  1  0  0  0
 29 54  1  0  0  0
 30 31  1  0  0  0
 30 55  1  0  0  0
 30 56  1  0  0  0
 31 32  2  0  0  0
M  END
> <s_m_entry_id>
6951

> <s_m_entry_name>
dock_pv.381

> <s_m_Source_Path>
/home/csk/Desktop/cluster/DUD-E-result/lkha4

> <s_m_Source_File>
dock_pv.maegz

> <i_m_Source_File_Index>
381

> <chembl_id>
CHEMBL2313571

> <chembl_pref_name>
None

> <i_lp_mmshare_version>
53161

> <i_f3d_flags>
0

> <r_lp_tautomer_probability>
1

> <s_lp_Force_Field>
OPLS_2005

> <r_lp_Energy>
43.931128

> <b_lp_Chiralities_Consistent>
1

> <s_lp_Variant>
CHEMBL4618_lig430-1

> <s_i_glide_gridfile>
glide-grid_3chp

> <i_i_glide_lignum>
497

> <i_i_glide_rotatable_bonds>
5

> <r_i_docking_score>
-8.38293812510703

> <r_i_glide_ligand_efficiency>
-0.261966816409595

> <r_i_glide_ligand_efficiency_sa>
-0.831692798937893

> <r_i_glide_ligand_efficiency_ln>
-1.87716835647434

> <r_i_glide_gscore>
-8.38293812510703

> <r_i_glide_lipo>
-4.89973586113619

> <r_i_glide_hbond>
0

> <r_i_glide_metal>
0

> <r_i_glide_rewards>
-1.25087481818182

> <r_i_glide_evdw>
-47.9622840881348

> <r_i_glide_ecoul>
-2.08255243301392

> <r_i_glide_erotb>
0.497885518020915

> <r_i_glide_esite>
-0.0197158944511184

> <r_i_glide_emodel>
-51.2538754930689

> <r_i_glide_energy>
-50.0448365211487

> <r_i_glide_einternal>
10.4902496337891

> <i_i_glide_confnum>
1

> <i_i_glide_posenum>
72

> <r_i_glide_eff_state_penalty>
0

> <s_user_duplicate_titles>
CHEMBL4618_lig430

> <s_m_subgroup_title>
dock_pv

> <s_m_subgroupid>
dock_pv

> <b_m_subgroup_collapsed>
1

$$$$
CHEMBL4618_lig336
                    3D
 Schrodinger Suite 2021-1.
 37 38  0  0  1  0            999 V2000
   10.1807   42.6826   66.1219 O   0  0  0  0  0  0
    9.5544   41.7699   66.9458 C   0  0  0  0  0  0
    8.7585   42.2639   67.9764 C   0  0  0  0  0  0
    8.1216   41.3872   68.8499 C   0  0  0  0  0  0
    8.2712   40.0076   68.7060 C   0  0  0  0  0  0
    8.9787   39.5107   67.6085 C   0  0  0  0  0  0
    9.6081   40.3883   66.7410 C   0  0  0  0  0  0
   11.5129   42.6167   65.7431 C   0  0  0  0  0  0
   12.0163   43.7254   65.0632 C   0  0  0  0  0  0
   13.3214   43.7369   64.5765 C   0  0  0  0  0  0
   14.1420   42.6278   64.7739 C   0  0  0  0  0  0
   13.6531   41.5137   65.4374 C   0  0  0  0  0  0
   12.3600   41.5146   65.9403 C   0  0  0  0  0  0
    7.7097   39.2052   69.6735 O   0  0  0  0  0  0
    7.9566   37.8039   69.6644 C   0  0  0  0  0  0
    7.6015   37.2277   71.0413 C   0  0  0  0  0  0
    8.4205   37.7909   72.2195 C   0  0  0  0  0  0
    9.9273   37.5081   72.1447 C   0  0  0  0  0  0
   15.4419   42.6145   64.3390 O   0  0  0  0  0  0
    8.6513   43.3317   68.1070 H   0  0  0  0  0  0
    7.5368   41.7830   69.6669 H   0  0  0  0  0  0
    9.0768   38.4530   67.4202 H   0  0  0  0  0  0
   10.1603   39.9579   65.9272 H   0  0  0  0  0  0
   11.3889   44.5887   64.9227 H   0  0  0  0  0  0
   13.6962   44.6072   64.0593 H   0  0  0  0  0  0
   14.2675   40.6383   65.5667 H   0  0  0  0  0  0
   12.0507   40.6385   66.4745 H   0  0  0  0  0  0
    8.9980   37.5706   69.4468 H   0  0  0  0  0  0
    7.3465   37.3369   68.8878 H   0  0  0  0  0  0
    7.7210   36.1426   71.0057 H   0  0  0  0  0  0
    6.5451   37.4168   71.2319 H   0  0  0  0  0  0
    8.0361   37.3545   73.1401 H   0  0  0  0  0  0
    8.2506   38.8655   72.3048 H   0  0  0  0  0  0
   10.4277   37.8155   73.0632 H   0  0  0  0  0  0
   10.3971   38.0417   71.3187 H   0  0  0  0  0  0
   10.1202   36.4442   72.0096 H   0  0  0  0  0  0
   15.6373   43.3404   63.7285 H   0  0  0  0  0  0
  1  2  1  0  0  0
  1  8  1  0  0  0
  2  7  2  0  0  0
  2  3  1  0  0  0
  3  4  2  0  0  0
  3 20  1  0  0  0
  4  5  1  0  0  0
  4 21  1  0  0  0
  5 14  1  0  0  0
  5  6  2  0  0  0
  6  7  1  0  0  0
  6 22  1  0  0  0
  7 23  1  0  0  0
  8  9  1  0  0  0
  8 13  2  0  0  0
  9 10  2  0  0  0
  9 24  1  0  0  0
 10 11  1  0  0  0
 10 25  1  0  0  0
 11 12  2  0  0  0
 11 19  1  0  0  0
 12 13  1  0  0  0
 12 26  1  0  0  0
 13 27  1  0  0  0
 14 15  1  0  0  0
 15 16  1  0  0  0
 15 28  1  0  0  0
 15 29  1  0  0  0
 16 17  1  0  0  0
 16 30  1  0  0  0
 16 31  1  0  0  0
 17 18  1  0  0  0
 17 32  1  0  0  0
 17 33  1  0  0  0
 18 34  1  0  0  0
 18 35  1  0  0  0
 18 36  1  0  0  0
 19 37  1  0  0  0
M  END
> <s_m_entry_id>
6952

> <s_m_entry_name>
dock_pv.382

> <s_m_Source_Path>
/home/csk/Desktop/cluster/DUD-E-result/lkha4

> <s_m_Source_File>
dock_pv.maegz

> <i_m_Source_File_Index>
382

> <chembl_id>
CHEMBL467374

> <chembl_pref_name>
None

> <i_lp_mmshare_version>
53161

> <i_f3d_flags>
0

> <r_lp_tautomer_probability>
1

> <s_lp_Force_Field>
OPLS_2005

> <r_lp_Energy>
15.174514

> <b_lp_Chiralities_Consistent>
1

> <s_lp_Variant>
CHEMBL4618_lig336-1

> <s_i_glide_gridfile>
glide-grid_3chp

> <i_i_glide_lignum>
380

> <i_i_glide_rotatable_bonds>
7

> <r_i_docking_score>
-8.36540048432803

> <r_i_glide_ligand_efficiency>
-0.440284236017265

> <r_i_glide_ligand_efficiency_sa>
-1.17485518014165

> <r_i_glide_ligand_efficiency_ln>
-2.12080869510519

> <r_i_glide_gscore>
-8.36540048432803

> <r_i_glide_lipo>
-4.64979709767393

> <r_i_glide_hbond>
-0.32

> <r_i_glide_metal>
0

> <r_i_glide_rewards>
-1.87532909574903

> <r_i_glide_evdw>
-39.2830772399902

> <r_i_glide_ecoul>
-5.86424350738525

> <r_i_glide_erotb>
1.32351609720223

> <r_i_glide_esite>
0

> <r_i_glide_emodel>
-67.0770803457617

> <r_i_glide_energy>
-45.1473207473755

> <r_i_glide_einternal>
4.72014188766479

> <i_i_glide_confnum>
23

> <i_i_glide_posenum>
30

> <r_i_glide_eff_state_penalty>
0

> <s_user_duplicate_titles>
CHEMBL4618_lig336

> <s_m_subgroup_title>
dock_pv

> <s_m_subgroupid>
dock_pv

> <b_m_subgroup_collapsed>
1

$$$$
CHEMBL4618_lig74
                    3D
 Schrodinger Suite 2021-1.
 28 29  0  0  1  0            999 V2000
   12.1338   42.8645   65.6358 C   0  0  0  0  0  0
   12.1198   41.2835   66.3400 S   0  0  0  0  0  0
   14.4442   42.4149   64.6060 N   0  0  0  0  0  0
   13.3816   43.4220   64.9222 C   0  0  1  0  0  0
   10.8777   43.4226   65.8230 C   0  0  0  0  0  0
   15.7663   42.3781   64.9377 C   0  0  0  0  0  0
   10.4666   41.3812   66.8681 C   0  0  0  0  0  0
    9.9372   42.6462   66.5528 C   0  0  0  0  0  0
   16.5208   41.4163   64.7398 O   0  0  0  0  0  0
   16.2489   43.4608   65.5400 N   0  0  0  0  0  0
   13.9952   41.2653   63.9400 O   0  0  0  0  0  0
   12.9577   44.2252   63.6825 C   0  0  0  0  0  0
    9.7188   40.4038   67.5399 C   0  0  0  0  0  0
    8.6324   42.9459   66.9774 C   0  0  0  0  0  0
    7.9054   41.9945   67.6934 C   0  0  0  0  0  0
    8.4397   40.7414   67.9631 C   0  0  0  0  0  0
   13.8188   44.1548   65.5999 H   0  0  0  0  0  0
   10.6373   44.4151   65.4897 H   0  0  0  0  0  0
   17.2381   43.5074   65.7279 H   0  0  0  0  0  0
   15.6719   44.2810   65.6229 H   0  0  0  0  0  0
   14.2192   41.4165   63.0050 H   0  0  0  0  0  0
   12.7599   45.2658   63.9391 H   0  0  0  0  0  0
   13.7208   44.2156   62.9092 H   0  0  0  0  0  0
   12.0514   43.8151   63.2456 H   0  0  0  0  0  0
   10.1211   39.4243   67.7555 H   0  0  0  0  0  0
    8.1905   43.9090   66.7658 H   0  0  0  0  0  0
    6.9047   42.2176   68.0345 H   0  0  0  0  0  0
    7.8483   40.0196   68.5085 H   0  0  0  0  0  0
  1  2  1  0  0  0
  1  4  1  0  0  0
  1  5  2  0  0  0
  2  7  1  0  0  0
  3  4  1  0  0  0
  3  6  1  0  0  0
  3 11  1  0  0  0
  4 12  1  0  0  0
  4 17  1  0  0  0
  5  8  1  0  0  0
  5 18  1  0  0  0
  6  9  2  0  0  0
  6 10  1  0  0  0
  7 13  2  0  0  0
  7  8  1  0  0  0
  8 14  2  0  0  0
 10 19  1  0  0  0
 10 20  1  0  0  0
 11 21  1  0  0  0
 12 22  1  0  0  0
 12 23  1  0  0  0
 12 24  1  0  0  0
 13 16  1  0  0  0
 13 25  1  0  0  0
 14 15  1  0  0  0
 14 26  1  0  0  0
 15 16  2  0  0  0
 15 27  1  0  0  0
 16 28  1  0  0  0
M  END
> <s_m_entry_id>
6953

> <s_m_entry_name>
dock_pv.383

> <s_m_Source_Path>
/home/csk/Desktop/cluster/DUD-E-result/lkha4

> <s_m_Source_File>
dock_pv.maegz

> <i_m_Source_File_Index>
383

> <chembl_id>
CHEMBL93

> <chembl_pref_name>
ZILEUTON

> <i_lp_mmshare_version>
53161

> <i_f3d_flags>
0

> <r_lp_tautomer_probability>
1

> <s_lp_Force_Field>
OPLS_2005

> <r_lp_Energy>
5.458219

> <b_lp_Chiralities_Consistent>
1

> <s_lp_Variant>
CHEMBL4618_lig74-1

> <s_i_glide_gridfile>
glide-grid_3chp

> <i_i_glide_lignum>
94

> <i_i_glide_rotatable_bonds>
4

> <r_i_docking_score>
-8.36403122681322

> <r_i_glide_ligand_efficiency>
-0.522751951675826

> <r_i_glide_ligand_efficiency_sa>
-1.3172523743626

> <r_i_glide_ligand_efficiency_ln>
-2.21705355198313

> <r_i_glide_gscore>
-8.36403122681322

> <r_i_glide_lipo>
-2.84117304471352

> <r_i_glide_hbond>
-0.15790412148644

> <r_i_glide_metal>
0

> <r_i_glide_rewards>
-2.52406849057472

> <r_i_glide_evdw>
-26.5735912322998

> <r_i_glide_ecoul>
-10.5409374237061

> <r_i_glide_erotb>
0.308320993090307

> <r_i_glide_esite>
-0.239386387957954

> <r_i_glide_emodel>
-55.4653080845183

> <r_i_glide_energy>
-37.1145286560059

> <r_i_glide_einternal>
5.67268371582031

> <i_i_glide_confnum>
1

> <i_i_glide_posenum>
4

> <r_i_glide_eff_state_penalty>
0

> <s_user_duplicate_titles>
CHEMBL4618_lig74,9217

> <s_m_subgroup_title>
dock_pv

> <s_m_subgroupid>
dock_pv

> <b_m_subgroup_collapsed>
1

$$$$
CHEMBL4618_lig304
                    3D
 Schrodinger Suite 2021-1.
 62 66  0  0  1  0            999 V2000
    8.5498   36.7017   71.0117 C   0  0  0  0  0  0
    7.9863   36.6392   69.7322 C   0  0  0  0  0  0
    7.7352   37.7945   68.9977 C   0  0  0  0  0  0
    8.0935   39.0230   69.5415 C   0  0  0  0  0  0
    8.7707   39.0703   70.7482 C   0  0  0  0  0  0
    8.9939   37.9301   71.4920 C   0  0  0  0  0  0
    7.7605   40.2383   68.9415 N   0  0  0  0  0  0
    9.6681   43.0611   66.8536 N   0  0  2  0  0  0
   10.1405   42.7513   65.5004 C   0  0  0  0  0  0
   11.6683   42.6941   65.3986 C   0  0  0  0  0  0
   12.3950   43.8315   65.0888 C   0  0  0  0  0  0
   13.7825   43.7940   64.9793 C   0  0  0  0  0  0
   14.4686   42.5904   65.1369 C   0  0  0  0  0  0
   13.7231   41.4398   65.3948 C   0  0  0  0  0  0
   12.3562   41.4904   65.5466 C   0  0  0  0  0  0
   15.9642   42.4937   64.9586 C   0  0  0  0  0  0
   16.6668   43.6432   65.1399 O   0  0  0  0  0  0
   16.5211   41.4160   64.7408 O   0  0  0  0  0  0
   10.1927   42.2684   67.9400 C   0  0  2  0  0  0
    9.8176   40.7607   67.6902 C   0  0  0  0  0  0
    8.3102   40.5025   67.6252 C   0  0  2  0  0  0
    7.6172   41.7090   66.9651 C   0  0  0  0  0  0
    8.2318   43.0973   67.1523 C   0  0  1  0  0  0
    9.4974   42.9976   69.1301 C   0  0  0  0  0  0
    8.1203   43.4170   68.6371 C   0  0  0  0  0  0
    7.7237   43.8586   66.5643 H   0  0  0  0  0  0
   11.2723   42.4059   67.9408 H   0  0  0  0  0  0
    8.6219   35.4351   71.8533 C   0  0  0  0  0  0
    9.6621   35.2993   72.9658 C   0  0  0  0  0  0
   10.5219   34.1969   72.9501 C   0  0  0  0  0  0
   11.3303   33.9281   74.0473 C   0  0  0  0  0  0
   11.3208   34.7901   75.1403 C   0  0  0  0  0  0
   10.4997   35.9109   75.1507 C   0  0  0  0  0  0
    9.6409   36.1460   74.0827 C   0  0  0  0  0  0
    7.7210   35.6937   69.3047 H   0  0  0  0  0  0
    7.2370   37.7342   68.0447 H   0  0  0  0  0  0
    9.0815   40.0131   71.1401 H   0  0  0  0  0  0
    9.4903   38.0405   72.4397 H   0  0  0  0  0  0
    7.8132   41.0307   69.5666 H   0  0  0  0  0  0
    9.7713   43.5232   64.8270 H   0  0  0  0  0  0
    9.7217   41.8161   65.1416 H   0  0  0  0  0  0
   11.8809   44.7616   64.9272 H   0  0  0  0  0  0
   14.3188   44.6942   64.7403 H   0  0  0  0  0  0
   14.1950   40.4866   65.5005 H   0  0  0  0  0  0
   11.8578   40.5515   65.6977 H   0  0  0  0  0  0
   17.5708   43.5003   64.8477 H   0  0  0  0  0  0
   10.1727   40.4225   66.7300 H   0  0  0  0  0  0
   10.3295   40.0648   68.3401 H   0  0  0  0  0  0
    8.1401   39.6145   67.0116 H   0  0  0  0  0  0
    6.5606   41.8151   67.2145 H   0  0  0  0  0  0
    7.7212   41.4814   65.9398 H   0  0  0  0  0  0
    9.3204   42.3370   69.9400 H   0  0  0  0  0  0
   10.0960   43.8113   69.5395 H   0  0  0  0  0  0
    7.3437   42.8262   69.1305 H   0  0  0  0  0  0
    7.7730   44.4341   68.8341 H   0  0  0  0  0  0
    7.6555   35.3714   72.3391 H   0  0  0  0  0  0
    8.6735   34.5705   71.1922 H   0  0  0  0  0  0
   10.5226   33.5095   72.1159 H   0  0  0  0  0  0
   11.9622   33.0520   74.0545 H   0  0  0  0  0  0
   11.9465   34.5780   75.9922 H   0  0  0  0  0  0
   10.4836   36.5648   76.0103 H   0  0  0  0  0  0
    8.9313   36.9561   74.1601 H   0  0  0  0  0  0
  1  6  1  0  0  0
  1  2  2  0  0  0
  1 28  1  0  0  0
  2  3  1  0  0  0
  2 35  1  0  0  0
  3  4  2  0  0  0
  3 36  1  0  0  0
  4  7  1  0  0  0
  4  5  1  0  0  0
  5  6  2  0  0  0
  5 37  1  0  0  0
  6 38  1  0  0  0
  7 21  1  0  0  0
  7 39  1  0  0  0
  8 19  1  0  0  0
  8 23  1  0  0  0
  8  9  1  0  0  0
  9 10  1  0  0  0
  9 40  1  0  0  0
  9 41  1  0  0  0
 10 15  1  0  0  0
 10 11  2  0  0  0
 11 12  1  0  0  0
 11 42  1  0  0  0
 12 13  2  0  0  0
 12 43  1  0  0  0
 13 16  1  0  0  0
 13 14  1  0  0  0
 14 15  2  0  0  0
 14 44  1  0  0  0
 15 45  1  0  0  0
 16 17  1  0  0  0
 16 18  2  0  0  0
 17 46  1  0  0  0
 19 20  1  0  0  0
 19 24  1  0  0  0
 19 27  1  0  0  0
 20 21  1  0  0  0
 20 47  1  0  0  0
 20 48  1  0  0  0
 21 22  1  0  0  0
 21 49  1  0  0  0
 22 23  1  0  0  0
 22 50  1  0  0  0
 22 51  1  0  0  0
 23 25  1  0  0  0
 23 26  1  0  0  0
 24 25  1  0  0  0
 24 52  1  0  0  0
 24 53  1  0  0  0
 25 54  1  0  0  0
 25 55  1  0  0  0
 28 29  1  0  0  0
 28 56  1  0  0  0
 28 57  1  0  0  0
 29 30  2  0  0  0
 29 34  1  0  0  0
 30 31  1  0  0  0
 30 58  1  0  0  0
 31 32  2  0  0  0
 31 59  1  0  0  0
 32 33  1  0  0  0
 32 60  1  0  0  0
 33 34  2  0  0  0
 33 61  1  0  0  0
 34 62  1  0  0  0
M  END
> <s_m_entry_id>
6954

> <s_m_entry_name>
dock_pv.384

> <s_m_Source_Path>
/home/csk/Desktop/cluster/DUD-E-result/lkha4

> <s_m_Source_File>
dock_pv.maegz

> <i_m_Source_File_Index>
384

> <chembl_id>
CHEMBL480334

> <chembl_pref_name>
None

> <i_lp_mmshare_version>
53161

> <i_f3d_flags>
0

> <r_lp_tautomer_probability>
1

> <s_lp_Force_Field>
OPLS_2005

> <r_lp_Energy>
61.307547

> <b_lp_Chiralities_Consistent>
1

> <s_lp_Variant>
CHEMBL4618_lig304-1

> <s_i_glide_gridfile>
glide-grid_3chp

> <i_i_glide_lignum>
342

> <i_i_glide_rotatable_bonds>
8

> <r_i_docking_score>
-8.34728140722718

> <r_i_glide_ligand_efficiency>
-0.260852543975849

> <r_i_glide_ligand_efficiency_sa>
-0.828155204474966

> <r_i_glide_ligand_efficiency_ln>
-1.86918384537562

> <r_i_glide_gscore>
-8.34728140722718

> <r_i_glide_lipo>
-5.93766910912675

> <r_i_glide_hbond>
-0.165028269238674

> <r_i_glide_metal>
0

> <r_i_glide_rewards>
-0.42725866778949

> <r_i_glide_evdw>
-30.3322925567627

> <r_i_glide_ecoul>
-6.42860507965088

> <r_i_glide_erotb>
0.763580028713502

> <r_i_glide_esite>
-0.1

> <r_i_glide_emodel>
-26.5962425455278

> <r_i_glide_energy>
-36.7608976364136

> <r_i_glide_einternal>
17.6331119537354

> <i_i_glide_confnum>
23

> <i_i_glide_posenum>
317

> <r_i_glide_eff_state_penalty>
0

> <s_user_duplicate_titles>
CHEMBL4618_lig304

> <s_m_subgroup_title>
dock_pv

> <s_m_subgroupid>
dock_pv

> <b_m_subgroup_collapsed>
1

$$$$
CHEMBL4618_lig223
                    3D
 Schrodinger Suite 2021-1.
 52 53  0  0  1  0            999 V2000
   10.6441   42.2536   66.0507 C   0  0  0  0  0  0
   11.6539   41.3375   66.3400 C   0  0  0  0  0  0
   12.9577   41.5310   65.8911 C   0  0  0  0  0  0
   13.2874   42.6869   65.1705 C   0  0  0  0  0  0
   12.2878   43.6287   64.9109 C   0  0  0  0  0  0
   10.9766   43.4103   65.3445 C   0  0  0  0  0  0
   14.6010   43.0160   64.7704 N   0  0  0  0  0  0
   15.7103   42.2451   64.7400 C   0  0  0  0  0  0
   17.0629   42.9711   64.8621 C   0  0  0  0  0  0
   15.7210   41.0160   64.7400 O   0  0  0  0  0  0
   17.5020   43.0844   66.2624 N   0  0  2  0  0  0
    9.3210   42.0486   66.4085 O   0  0  0  0  0  0
    8.9392   40.9847   67.2071 C   0  0  0  0  0  0
    8.5826   41.2405   68.5266 C   0  0  0  0  0  0
    8.2785   40.1790   69.3732 C   0  0  0  0  0  0
    8.2236   38.8766   68.8941 C   0  0  0  0  0  0
    8.5280   38.6160   67.5667 C   0  0  0  0  0  0
    8.9210   39.6617   66.7400 C   0  0  0  0  0  0
   16.6820   44.0067   67.0559 C   0  0  0  0  0  0
   18.9024   43.5225   66.3932 C   0  0  0  0  0  0
   19.9165   42.5151   65.8127 C   0  0  0  0  0  0
   21.3925   42.7371   66.1997 C   0  0  0  0  0  0
   21.6557   42.6101   67.6373 N   0  0  0  0  0  0
   21.3796   41.2556   68.1199 C   0  0  0  0  0  0
   23.0638   42.9080   67.8877 C   0  0  0  0  0  0
   11.3960   40.4520   66.8878 H   0  0  0  0  0  0
   13.6981   40.7817   66.1265 H   0  0  0  0  0  0
   12.5242   44.5405   64.3822 H   0  0  0  0  0  0
   10.2076   44.1381   65.1400 H   0  0  0  0  0  0
   14.7513   43.9888   64.5390 H   0  0  0  0  0  0
   17.0663   43.9240   64.3400 H   0  0  0  0  0  0
   17.7634   42.3361   64.3260 H   0  0  0  0  0  0
    8.6073   42.2515   68.9065 H   0  0  0  0  0  0
    8.1210   40.3598   70.4164 H   0  0  0  0  0  0
    7.9731   38.0644   69.5609 H   0  0  0  0  0  0
    8.5210   37.6027   67.1943 H   0  0  0  0  0  0
    9.2417   39.4160   65.7419 H   0  0  0  0  0  0
   15.6403   43.6908   67.0975 H   0  0  0  0  0  0
   17.0285   44.0506   68.0898 H   0  0  0  0  0  0
   16.7089   45.0160   66.6438 H   0  0  0  0  0  0
   19.1579   43.7025   67.4391 H   0  0  0  0  0  0
   19.0267   44.4867   65.8958 H   0  0  0  0  0  0
   19.9152   42.6596   64.7327 H   0  0  0  0  0  0
   19.6010   41.4809   65.9400 H   0  0  0  0  0  0
   21.6860   43.7367   65.8738 H   0  0  0  0  0  0
   22.0212   42.0365   65.6449 H   0  0  0  0  0  0
   20.3202   41.0160   68.0325 H   0  0  0  0  0  0
   21.6368   41.1583   69.1758 H   0  0  0  0  0  0
   21.9467   40.5049   67.5647 H   0  0  0  0  0  0
   23.3109   43.9198   67.5657 H   0  0  0  0  0  0
   23.2926   42.8406   68.9522 H   0  0  0  0  0  0
   23.7210   42.2160   67.3570 H   0  0  0  0  0  0
  1  6  1  0  0  0
  1  2  2  0  0  0
  1 12  1  0  0  0
  2  3  1  0  0  0
  2 26  1  0  0  0
  3  4  2  0  0  0
  3 27  1  0  0  0
  4  7  1  0  0  0
  4  5  1  0  0  0
  5  6  2  0  0  0
  5 28  1  0  0  0
  6 29  1  0  0  0
  7  8  1  0  0  0
  7 30  1  0  0  0
  8  9  1  0  0  0
  8 10  2  0  0  0
  9 11  1  0  0  0
  9 31  1  0  0  0
  9 32  1  0  0  0
 11 19  1  0  0  0
 11 20  1  0  0  0
 12 13  1  0  0  0
 13 14  2  0  0  0
 13 18  1  0  0  0
 14 15  1  0  0  0
 14 33  1  0  0  0
 15 16  2  0  0  0
 15 34  1  0  0  0
 16 17  1  0  0  0
 16 35  1  0  0  0
 17 18  2  0  0  0
 17 36  1  0  0  0
 18 37  1  0  0  0
 19 38  1  0  0  0
 19 39  1  0  0  0
 19 40  1  0  0  0
 20 21  1  0  0  0
 20 41  1  0  0  0
 20 42  1  0  0  0
 21 22  1  0  0  0
 21 43  1  0  0  0
 21 44  1  0  0  0
 22 23  1  0  0  0
 22 45  1  0  0  0
 22 46  1  0  0  0
 23 24  1  0  0  0
 23 25  1  0  0  0
 24 47  1  0  0  0
 24 48  1  0  0  0
 24 49  1  0  0  0
 25 50  1  0  0  0
 25 51  1  0  0  0
 25 52  1  0  0  0
M  END
> <s_m_entry_id>
6955

> <s_m_entry_name>
dock_pv.385

> <s_m_Source_Path>
/home/csk/Desktop/cluster/DUD-E-result/lkha4

> <s_m_Source_File>
dock_pv.maegz

> <i_m_Source_File_Index>
385

> <chembl_id>
CHEMBL482122

> <chembl_pref_name>
None

> <i_lp_mmshare_version>
53161

> <i_f3d_flags>
0

> <r_lp_tautomer_probability>
1

> <s_lp_Force_Field>
OPLS_2005

> <r_lp_Energy>
29.175908

> <b_lp_Chiralities_Consistent>
1

> <s_lp_Variant>
CHEMBL4618_lig223-1

> <s_i_glide_gridfile>
glide-grid_3chp

> <i_i_glide_lignum>
252

> <i_i_glide_rotatable_bonds>
10

> <r_i_docking_score>
-8.33609605338871

> <r_i_glide_ligand_efficiency>
-0.333443842135548

> <r_i_glide_ligand_efficiency_sa>
-0.974995708056064

> <r_i_glide_ligand_efficiency_ln>
-1.9759045772932

> <r_i_glide_gscore>
-8.33609605338871

> <r_i_glide_lipo>
-3.61389335436473

> <r_i_glide_hbond>
-0.379193795163571

> <r_i_glide_metal>
0

> <r_i_glide_rewards>
-1.88011913530072

> <r_i_glide_evdw>
-45.1501998901367

> <r_i_glide_ecoul>
-10.0556926727295

> <r_i_glide_erotb>
1.46287120412619

> <r_i_glide_esite>
-0.159897077269622

> <r_i_glide_emodel>
-86.0384566718897

> <r_i_glide_energy>
-55.2058925628662

> <r_i_glide_einternal>
11.9238090515137

> <i_i_glide_confnum>
28

> <i_i_glide_posenum>
56

> <r_i_glide_eff_state_penalty>
0

> <s_user_duplicate_titles>
CHEMBL4618_lig223,467568

> <s_m_subgroup_title>
dock_pv

> <s_m_subgroupid>
dock_pv

> <b_m_subgroup_collapsed>
1

$$$$
CHEMBL4618_lig71
                    3D
 Schrodinger Suite 2021-1.
 47 49  0  0  1  0            999 V2000
   14.7344   42.6342   65.5054 N   0  0  0  0  0  0
   11.3101   42.9859   66.7720 O   0  0  0  0  0  0
   13.5993   43.3902   66.0531 C   0  0  0  0  0  0
   10.3736   42.0156   67.0896 C   0  0  0  0  0  0
   12.2145   42.8062   65.6774 C   0  0  2  0  0  0
    8.5210   40.1228   67.9943 C   0  0  0  0  0  0
    7.5667   39.0551   68.4946 C   0  0  0  0  0  0
   10.4268   40.6873   66.6450 C   0  0  0  0  0  0
    9.3309   42.3929   67.9410 C   0  0  0  0  0  0
    9.4908   39.7632   67.0749 C   0  0  0  0  0  0
    8.4100   41.4545   68.3987 C   0  0  0  0  0  0
    8.0719   38.2387   69.6832 C   0  0  0  0  0  0
   14.7328   42.4994   64.0508 C   0  0  0  0  0  0
   16.0083   43.2884   65.7684 C   0  0  0  0  0  0
   11.5679   43.5552   64.5092 C   0  0  0  0  0  0
    8.0690   36.8432   69.6403 C   0  0  0  0  0  0
    8.5208   38.8808   70.8349 C   0  0  0  0  0  0
   16.1581   42.1096   63.6713 C   0  0  0  0  0  0
   17.0056   42.5727   64.8614 C   0  0  0  0  0  0
    8.5089   36.1057   70.7406 C   0  0  0  0  0  0
    8.9217   38.1366   71.9401 C   0  0  0  0  0  0
    8.9200   36.7525   71.8932 C   0  0  0  0  0  0
   13.6964   43.4144   67.1397 H   0  0  0  0  0  0
   13.6657   44.4234   65.7131 H   0  0  0  0  0  0
   12.3636   41.7727   65.3842 H   0  0  0  0  0  0
    6.6401   39.5636   68.7401 H   0  0  0  0  0  0
    7.3202   38.3864   67.6687 H   0  0  0  0  0  0
   11.1827   40.3115   65.9758 H   0  0  0  0  0  0
    9.2519   43.4155   68.2744 H   0  0  0  0  0  0
    9.5546   38.7442   66.7268 H   0  0  0  0  0  0
    7.6288   41.7582   69.0819 H   0  0  0  0  0  0
   14.4077   43.4099   63.5518 H   0  0  0  0  0  0
   14.0096   41.7393   63.7514 H   0  0  0  0  0  0
   16.2510   43.1966   66.8285 H   0  0  0  0  0  0
   15.9687   44.3611   65.5751 H   0  0  0  0  0  0
   12.1214   43.4191   63.5811 H   0  0  0  0  0  0
   10.5391   43.2270   64.3477 H   0  0  0  0  0  0
   11.5432   44.6158   64.7419 H   0  0  0  0  0  0
    7.7230   36.3213   68.7594 H   0  0  0  0  0  0
    8.5242   39.9553   70.8911 H   0  0  0  0  0  0
   16.4504   42.6134   62.7467 H   0  0  0  0  0  0
   16.2295   41.0409   63.4883 H   0  0  0  0  0  0
   17.4953   41.7499   65.3807 H   0  0  0  0  0  0
   17.7897   43.2598   64.5468 H   0  0  0  0  0  0
    8.5209   35.0292   70.7295 H   0  0  0  0  0  0
    9.2313   38.6104   72.8523 H   0  0  0  0  0  0
    9.2418   36.1782   72.7512 H   0  0  0  0  0  0
  1  3  1  0  0  0
  1 13  1  0  0  0
  1 14  1  0  0  0
  2  5  1  0  0  0
  2  4  1  0  0  0
  3  5  1  0  0  0
  3 23  1  0  0  0
  3 24  1  0  0  0
  4  8  2  0  0  0
  4  9  1  0  0  0
  5 15  1  0  0  0
  5 25  1  0  0  0
  6 11  1  0  0  0
  6  7  1  0  0  0
  6 10  2  0  0  0
  7 12  1  0  0  0
  7 26  1  0  0  0
  7 27  1  0  0  0
  8 10  1  0  0  0
  8 28  1  0  0  0
  9 11  2  0  0  0
  9 29  1  0  0  0
 10 30  1  0  0  0
 11 31  1  0  0  0
 12 16  1  0  0  0
 12 17  2  0  0  0
 13 18  1  0  0  0
 13 32  1  0  0  0
 13 33  1  0  0  0
 14 19  1  0  0  0
 14 34  1  0  0  0
 14 35  1  0  0  0
 15 36  1  0  0  0
 15 37  1  0  0  0
 15 38  1  0  0  0
 16 20  2  0  0  0
 16 39  1  0  0  0
 17 21  1  0  0  0
 17 40  1  0  0  0
 18 19  1  0  0  0
 18 41  1  0  0  0
 18 42  1  0  0  0
 19 43  1  0  0  0
 19 44  1  0  0  0
 20 22  1  0  0  0
 20 45  1  0  0  0
 21 22  2  0  0  0
 21 46  1  0  0  0
 22 47  1  0  0  0
M  END
> <s_m_entry_id>
6956

> <s_m_entry_name>
dock_pv.386

> <s_m_Source_Path>
/home/csk/Desktop/cluster/DUD-E-result/lkha4

> <s_m_Source_File>
dock_pv.maegz

> <i_m_Source_File_Index>
386

> <chembl_id>
CHEMBL348927

> <chembl_pref_name>
None

> <i_lp_mmshare_version>
53161

> <i_f3d_flags>
0

> <r_lp_tautomer_probability>
1

> <s_lp_Force_Field>
OPLS_2005

> <r_lp_Energy>
36.844071

> <b_lp_Chiralities_Consistent>
1

> <s_lp_Variant>
CHEMBL4618_lig71-1

> <s_i_glide_gridfile>
glide-grid_3chp

> <i_i_glide_lignum>
90

> <i_i_glide_rotatable_bonds>
6

> <r_i_docking_score>
-8.33236435049166

> <r_i_glide_ligand_efficiency>
-0.378743834113257

> <r_i_glide_ligand_efficiency_sa>
-1.0612551183351

> <r_i_glide_ligand_efficiency_ln>
-2.03673377763451

> <r_i_glide_gscore>
-8.33236435049166

> <r_i_glide_lipo>
-4.70242597574395

> <r_i_glide_hbond>
-0.0360689799457445

> <r_i_glide_metal>
0

> <r_i_glide_rewards>
-2.28224695880611

> <r_i_glide_evdw>
-37.0530776977539

> <r_i_glide_ecoul>
-3.38429427146912

> <r_i_glide_erotb>
1.04867558961221

> <r_i_glide_esite>
0

> <r_i_glide_emodel>
-51.9496943968049

> <r_i_glide_energy>
-40.437371969223

> <r_i_glide_einternal>
11.767765045166

> <i_i_glide_confnum>
16

> <i_i_glide_posenum>
370

> <r_i_glide_eff_state_penalty>
0

> <s_user_duplicate_titles>
CHEMBL4618_lig71

> <s_m_subgroup_title>
dock_pv

> <s_m_subgroupid>
dock_pv

> <b_m_subgroup_collapsed>
1

$$$$
CHEMBL4618_lig84
                    3D
 Schrodinger Suite 2021-1.
 42 44  0  0  1  0            999 V2000
   10.9689   42.6788   65.6595 N   0  0  0  0  0  0
    7.8640   36.8301   70.5031 O   0  0  0  0  0  0
    8.1190   37.8617   69.6190 C   0  0  0  0  0  0
    8.5937   39.9351   67.7615 C   0  0  0  0  0  0
    8.7212   36.4963   71.5404 C   0  0  0  0  0  0
    8.1330   39.1893   70.0158 C   0  0  0  0  0  0
    8.2624   37.5847   68.2662 C   0  0  0  0  0  0
    8.5208   38.6055   67.3465 C   0  0  0  0  0  0
    8.3593   40.2252   69.1113 C   0  0  0  0  0  0
    8.8834   40.8802   66.7915 O   0  0  0  0  0  0
    9.6144   43.1052   66.0318 C   0  0  0  0  0  0
    8.9744   42.2610   67.1589 C   0  0  0  0  0  0
   11.9366   42.5896   66.7400 C   0  0  0  0  0  0
   11.6129   43.5591   64.7013 C   0  0  0  0  0  0
    9.3147   37.4266   72.4015 C   0  0  0  0  0  0
    8.9600   35.1400   71.7738 C   0  0  0  0  0  0
   13.0854   43.1526   64.6852 C   0  0  0  0  0  0
   13.3033   42.5072   66.0554 C   0  0  0  0  0  0
   10.1216   37.0104   73.4570 C   0  0  0  0  0  0
    9.7971   34.7166   72.8012 C   0  0  0  0  0  0
   10.3578   35.6551   73.6578 C   0  0  0  0  0  0
    7.9308   39.4156   71.0424 H   0  0  0  0  0  0
    8.2109   36.5621   67.9401 H   0  0  0  0  0  0
    8.6825   38.3633   66.3063 H   0  0  0  0  0  0
    8.3429   41.2393   69.4774 H   0  0  0  0  0  0
    9.6212   44.1520   66.3398 H   0  0  0  0  0  0
    8.9854   43.0509   65.1420 H   0  0  0  0  0  0
    9.5619   42.3962   68.0689 H   0  0  0  0  0  0
    7.9726   42.6399   67.3696 H   0  0  0  0  0  0
   11.7197   41.6866   67.3068 H   0  0  0  0  0  0
   11.8599   43.4155   67.4475 H   0  0  0  0  0  0
   11.4781   44.6132   64.9529 H   0  0  0  0  0  0
   11.1342   43.4162   63.7314 H   0  0  0  0  0  0
    9.1540   38.4805   72.3055 H   0  0  0  0  0  0
    8.5208   34.3924   71.1399 H   0  0  0  0  0  0
   13.7293   44.0198   64.5382 H   0  0  0  0  0  0
   13.2915   42.4534   63.8725 H   0  0  0  0  0  0
   13.6212   41.4696   65.9510 H   0  0  0  0  0  0
   14.0614   43.0330   66.6361 H   0  0  0  0  0  0
   10.5688   37.7399   74.1136 H   0  0  0  0  0  0
    9.9873   33.6643   72.9528 H   0  0  0  0  0  0
   10.9876   35.3300   74.4730 H   0  0  0  0  0  0
  1 11  1  0  0  0
  1 13  1  0  0  0
  1 14  1  0  0  0
  2  3  1  0  0  0
  2  5  1  0  0  0
  3  6  1  0  0  0
  3  7  2  0  0  0
  4 10  1  0  0  0
  4  8  2  0  0  0
  4  9  1  0  0  0
  5 15  2  0  0  0
  5 16  1  0  0  0
  6  9  2  0  0  0
  6 22  1  0  0  0
  7  8  1  0  0  0
  7 23  1  0  0  0
  8 24  1  0  0  0
  9 25  1  0  0  0
 10 12  1  0  0  0
 11 12  1  0  0  0
 11 26  1  0  0  0
 11 27  1  0  0  0
 12 28  1  0  0  0
 12 29  1  0  0  0
 13 18  1  0  0  0
 13 30  1  0  0  0
 13 31  1  0  0  0
 14 17  1  0  0  0
 14 32  1  0  0  0
 14 33  1  0  0  0
 15 19  1  0  0  0
 15 34  1  0  0  0
 16 20  2  0  0  0
 16 35  1  0  0  0
 17 18  1  0  0  0
 17 36  1  0  0  0
 17 37  1  0  0  0
 18 38  1  0  0  0
 18 39  1  0  0  0
 19 21  2  0  0  0
 19 40  1  0  0  0
 20 21  1  0  0  0
 20 41  1  0  0  0
 21 42  1  0  0  0
M  END
> <s_m_entry_id>
6957

> <s_m_entry_name>
dock_pv.387

> <s_m_Source_Path>
/home/csk/Desktop/cluster/DUD-E-result/lkha4

> <s_m_Source_File>
dock_pv.maegz

> <i_m_Source_File_Index>
387

> <chembl_id>
CHEMBL162424

> <chembl_pref_name>
None

> <i_lp_mmshare_version>
53161

> <i_f3d_flags>
0

> <r_lp_tautomer_probability>
1

> <s_lp_Force_Field>
OPLS_2005

> <r_lp_Energy>
39.905877

> <b_lp_Chiralities_Consistent>
1

> <s_lp_Variant>
CHEMBL4618_lig84-1

> <s_i_glide_gridfile>
glide-grid_3chp

> <i_i_glide_lignum>
105

> <i_i_glide_rotatable_bonds>
6

> <r_i_docking_score>
-8.32929637850975

> <r_i_glide_ligand_efficiency>
-0.396633160881417

> <r_i_glide_ligand_efficiency_sa>
-1.09428081559968

> <r_i_glide_ligand_efficiency_ln>
-2.05940169865843

> <r_i_glide_gscore>
-8.32929637850975

> <r_i_glide_lipo>
-5.40013440940791

> <r_i_glide_hbond>
0

> <r_i_glide_metal>
0

> <r_i_glide_rewards>
-1.86872453428401

> <r_i_glide_evdw>
-37.732738494873

> <r_i_glide_ecoul>
-2.00973105430603

> <r_i_glide_erotb>
1.12765914807172

> <r_i_glide_esite>
0

> <r_i_glide_emodel>
-62.5901397576961

> <r_i_glide_energy>
-39.7424695491791

> <r_i_glide_einternal>
3.41496276855469

> <i_i_glide_confnum>
6

> <i_i_glide_posenum>
229

> <r_i_glide_eff_state_penalty>
0

> <s_user_duplicate_titles>
CHEMBL4618_lig84,270929

> <s_m_subgroup_title>
dock_pv

> <s_m_subgroupid>
dock_pv

> <b_m_subgroup_collapsed>
1

$$$$
CHEMBL4618_lig65
                    3D
 Schrodinger Suite 2021-1.
 50 52  0  0  1  0            999 V2000
   17.3213   42.8734   66.0608 N   0  0  0  0  0  0
   10.3263   42.0751   66.3702 C   0  0  0  0  0  0
    8.8881   41.8816   66.8791 C   0  0  0  0  0  0
   13.0089   42.4489   65.6053 C   0  0  0  0  0  0
   10.7656   43.3283   65.9404 C   0  0  0  0  0  0
   11.2294   41.0157   66.3401 C   0  0  0  0  0  0
   12.5459   41.1899   65.9400 C   0  0  0  0  0  0
   12.0988   43.5166   65.5611 C   0  0  0  0  0  0
    8.6052   40.5875   67.6588 C   0  0  0  0  0  0
   14.3630   42.5321   65.3621 O   0  0  0  0  0  0
   16.4948   43.6746   65.1400 C   0  0  0  0  0  0
   14.9908   43.7990   65.4715 C   0  0  0  0  0  0
   18.5837   42.5655   65.3773 C   0  0  0  0  0  0
   17.4351   43.5040   67.3866 C   0  0  0  0  0  0
    8.3993   40.6137   69.0388 C   0  0  0  0  0  0
    8.5771   39.3587   66.9984 C   0  0  0  0  0  0
   18.6626   43.2339   68.2849 C   0  0  0  0  0  0
   19.7129   43.6134   65.3366 C   0  0  0  0  0  0
    8.2426   39.4198   69.7539 C   0  0  0  0  0  0
    8.4241   38.1798   67.7093 C   0  0  0  0  0  0
   19.9255   44.0325   67.9019 C   0  0  0  0  0  0
    8.2507   38.2067   69.0843 C   0  0  0  0  0  0
   20.6074   43.6125   66.5892 C   0  0  0  0  0  0
    8.2074   41.9387   66.0307 H   0  0  0  0  0  0
    8.6310   42.7385   67.5053 H   0  0  0  0  0  0
   10.0837   44.1661   65.9389 H   0  0  0  0  0  0
   10.9209   40.0267   66.6265 H   0  0  0  0  0  0
   13.2291   40.3525   65.9393 H   0  0  0  0  0  0
   12.4136   44.5059   65.2713 H   0  0  0  0  0  0
   16.5438   43.2303   64.1433 H   0  0  0  0  0  0
   16.9256   44.6697   65.0381 H   0  0  0  0  0  0
   14.5211   44.4666   64.7442 H   0  0  0  0  0  0
   14.8374   44.2167   66.4673 H   0  0  0  0  0  0
   18.9916   41.7253   65.9396 H   0  0  0  0  0  0
   18.3965   42.1668   64.3806 H   0  0  0  0  0  0
   17.5173   44.5732   67.1831 H   0  0  0  0  0  0
   16.5077   43.4228   67.9398 H   0  0  0  0  0  0
    8.3919   41.5667   69.5414 H   0  0  0  0  0  0
    8.7482   39.3001   65.9401 H   0  0  0  0  0  0
   18.3955   43.4735   69.3146 H   0  0  0  0  0  0
   18.9137   42.1739   68.2687 H   0  0  0  0  0  0
   20.3332   43.4157   64.4614 H   0  0  0  0  0  0
   19.2958   44.6125   65.2118 H   0  0  0  0  0  0
    8.1209   39.4216   70.8269 H   0  0  0  0  0  0
    8.4874   37.2397   67.1935 H   0  0  0  0  0  0
   19.6809   45.0944   67.8571 H   0  0  0  0  0  0
   20.6550   43.9359   68.7075 H   0  0  0  0  0  0
    8.1455   37.2823   69.6338 H   0  0  0  0  0  0
   21.0437   42.6204   66.7142 H   0  0  0  0  0  0
   21.4530   44.2739   66.4099 H   0  0  0  0  0  0
  1 11  1  0  0  0
  1 13  1  0  0  0
  1 14  1  0  0  0
  2  5  1  0  0  0
  2  3  1  0  0  0
  2  6  2  0  0  0
  3  9  1  0  0  0
  3 24  1  0  0  0
  3 25  1  0  0  0
  4 10  1  0  0  0
  4  7  2  0  0  0
  4  8  1  0  0  0
  5  8  2  0  0  0
  5 26  1  0  0  0
  6  7  1  0  0  0
  6 27  1  0  0  0
  7 28  1  0  0  0
  8 29  1  0  0  0
  9 15  2  0  0  0
  9 16  1  0  0  0
 10 12  1  0  0  0
 11 12  1  0  0  0
 11 30  1  0  0  0
 11 31  1  0  0  0
 12 32  1  0  0  0
 12 33  1  0  0  0
 13 18  1  0  0  0
 13 34  1  0  0  0
 13 35  1  0  0  0
 14 17  1  0  0  0
 14 36  1  0  0  0
 14 37  1  0  0  0
 15 19  1  0  0  0
 15 38  1  0  0  0
 16 20  2  0  0  0
 16 39  1  0  0  0
 17 21  1  0  0  0
 17 40  1  0  0  0
 17 41  1  0  0  0
 18 23  1  0  0  0
 18 42  1  0  0  0
 18 43  1  0  0  0
 19 22  2  0  0  0
 19 44  1  0  0  0
 20 22  1  0  0  0
 20 45  1  0  0  0
 21 23  1  0  0  0
 21 46  1  0  0  0
 21 47  1  0  0  0
 22 48  1  0  0  0
 23 49  1  0  0  0
 23 50  1  0  0  0
M  END
> <s_m_entry_id>
6958

> <s_m_entry_name>
dock_pv.388

> <s_m_Source_Path>
/home/csk/Desktop/cluster/DUD-E-result/lkha4

> <s_m_Source_File>
dock_pv.maegz

> <i_m_Source_File_Index>
388

> <chembl_id>
CHEMBL159263

> <chembl_pref_name>
None

> <i_lp_mmshare_version>
53161

> <i_f3d_flags>
0

> <r_lp_tautomer_probability>
1

> <s_lp_Force_Field>
OPLS_2005

> <r_lp_Energy>
35.871937

> <b_lp_Chiralities_Consistent>
1

> <s_lp_Variant>
CHEMBL4618_lig65-1

> <s_i_glide_gridfile>
glide-grid_3chp

> <i_i_glide_lignum>
83

> <i_i_glide_rotatable_bonds>
6

> <r_i_docking_score>
-8.30858585103648

> <r_i_glide_ligand_efficiency>
-0.361242863088543

> <r_i_glide_ligand_efficiency_sa>
-1.02732664897082

> <r_i_glide_ligand_efficiency_ln>
-2.00909139687183

> <r_i_glide_gscore>
-8.30858585103648

> <r_i_glide_lipo>
-4.08702481173959

> <r_i_glide_hbond>
-0.13644327020045

> <r_i_glide_metal>
0

> <r_i_glide_rewards>
-2.16462786068408

> <r_i_glide_evdw>
-37.1269683837891

> <r_i_glide_ecoul>
-6.87323951721191

> <r_i_glide_erotb>
0.96684443835889

> <r_i_glide_esite>
0

> <r_i_glide_emodel>
-63.3209957940112

> <r_i_glide_energy>
-44.000207901001

> <r_i_glide_einternal>
2.79028367996216

> <i_i_glide_confnum>
62

> <i_i_glide_posenum>
11

> <r_i_glide_eff_state_penalty>
0

> <s_user_duplicate_titles>
CHEMBL4618_lig65,271480

> <s_m_subgroup_title>
dock_pv

> <s_m_subgroupid>
dock_pv

> <b_m_subgroup_collapsed>
1

$$$$
CHEMBL4618_lig386
                    3D
 Schrodinger Suite 2021-1.
 45 47  0  0  1  0            999 V2000
   14.8902   42.7032   65.3762 N   0  0  0  0  0  0
   16.0922   43.4946   65.5736 C   0  0  0  0  0  0
   17.1615   42.6757   64.8654 C   0  0  0  0  0  0
   16.4322   42.2160   63.6010 C   0  0  0  0  0  0
   14.9608   42.1916   64.0049 C   0  0  0  0  0  0
   13.6501   43.4350   65.6644 C   0  0  0  0  0  0
   12.4523   42.4881   65.5156 C   0  0  0  0  0  0
   11.2154   43.0718   65.9348 O   0  0  0  0  0  0
   10.2840   42.2769   66.5816 C   0  0  0  0  0  0
    9.1735   42.9093   67.1400 C   0  0  0  0  0  0
    8.3061   42.2138   67.9807 C   0  0  0  0  0  0
    8.5212   40.8623   68.2425 C   0  0  0  0  0  0
    9.5435   40.1947   67.5619 C   0  0  0  0  0  0
   10.4097   40.8913   66.7400 C   0  0  0  0  0  0
    7.7210   40.2542   69.1861 O   0  0  0  0  0  0
    7.9673   38.9645   69.6007 C   0  0  0  0  0  0
    8.5210   38.6806   70.8609 C   0  0  0  0  0  0
    8.7495   37.3519   71.2609 C   0  0  0  0  0  0
    8.3782   36.3254   70.4003 C   0  0  0  0  0  0
    7.8852   36.6160   69.1398 C   0  0  0  0  0  0
    7.6546   37.9194   68.7401 C   0  0  0  0  0  0
    9.4283   36.9830   72.5778 C   0  0  0  0  0  0
    9.9409   35.7498   72.5545 F   0  0  0  0  0  0
   10.4233   37.8160   72.8672 F   0  0  0  0  0  0
    8.5210   37.0160   73.5400 F   0  0  0  0  0  0
   16.2755   43.6193   66.6417 H   0  0  0  0  0  0
   15.9866   44.4979   65.1587 H   0  0  0  0  0  0
   17.4968   41.8480   65.4906 H   0  0  0  0  0  0
   18.0426   43.2815   64.6570 H   0  0  0  0  0  0
   16.5210   42.9588   62.8085 H   0  0  0  0  0  0
   16.7984   41.2711   63.2043 H   0  0  0  0  0  0
   14.3933   42.8202   63.3142 H   0  0  0  0  0  0
   14.5438   41.1856   63.9364 H   0  0  0  0  0  0
   13.6800   43.8160   66.6860 H   0  0  0  0  0  0
   13.5421   44.2945   65.0005 H   0  0  0  0  0  0
   12.3424   42.2160   64.4702 H   0  0  0  0  0  0
   12.7279   41.5944   66.0730 H   0  0  0  0  0  0
    9.0101   43.9601   66.9652 H   0  0  0  0  0  0
    7.4878   42.7315   68.4607 H   0  0  0  0  0  0
    9.7210   39.1391   67.6979 H   0  0  0  0  0  0
   11.1798   40.3154   66.2541 H   0  0  0  0  0  0
    8.7662   39.4968   71.5211 H   0  0  0  0  0  0
    8.5210   35.2911   70.6771 H   0  0  0  0  0  0
    7.7210   35.8160   68.4433 H   0  0  0  0  0  0
    7.2553   38.1234   67.7571 H   0  0  0  0  0  0
  1  5  1  0  0  0
  1  6  1  0  0  0
  1  2  1  0  0  0
  2  3  1  0  0  0
  2 26  1  0  0  0
  2 27  1  0  0  0
  3  4  1  0  0  0
  3 28  1  0  0  0
  3 29  1  0  0  0
  4  5  1  0  0  0
  4 30  1  0  0  0
  4 31  1  0  0  0
  5 32  1  0  0  0
  5 33  1  0  0  0
  6  7  1  0  0  0
  6 34  1  0  0  0
  6 35  1  0  0  0
  7  8  1  0  0  0
  7 36  1  0  0  0
  7 37  1  0  0  0
  8  9  1  0  0  0
  9 10  1  0  0  0
  9 14  2  0  0  0
 10 11  2  0  0  0
 10 38  1  0  0  0
 11 12  1  0  0  0
 11 39  1  0  0  0
 12 13  2  0  0  0
 12 15  1  0  0  0
 13 14  1  0  0  0
 13 40  1  0  0  0
 14 41  1  0  0  0
 15 16  1  0  0  0
 16 17  1  0  0  0
 16 21  2  0  0  0
 17 18  2  0  0  0
 17 42  1  0  0  0
 18 19  1  0  0  0
 18 22  1  0  0  0
 19 20  2  0  0  0
 19 43  1  0  0  0
 20 21  1  0  0  0
 20 44  1  0  0  0
 21 45  1  0  0  0
 22 23  1  0  0  0
 22 24  1  0  0  0
 22 25  1  0  0  0
M  END
> <s_m_entry_id>
6959

> <s_m_entry_name>
dock_pv.389

> <s_m_Source_Path>
/home/csk/Desktop/cluster/DUD-E-result/lkha4

> <s_m_Source_File>
dock_pv.maegz

> <i_m_Source_File_Index>
389

> <chembl_id>
CHEMBL1775100

> <chembl_pref_name>
None

> <i_lp_mmshare_version>
53161

> <i_f3d_flags>
0

> <r_lp_tautomer_probability>
1

> <s_lp_Force_Field>
OPLS_2005

> <r_lp_Energy>
37.913426

> <b_lp_Chiralities_Consistent>
1

> <s_lp_Variant>
CHEMBL4618_lig386-1

> <s_i_glide_gridfile>
glide-grid_3chp

> <i_i_glide_lignum>
447

> <i_i_glide_rotatable_bonds>
7

> <r_i_docking_score>
-8.3059751279701

> <r_i_glide_ligand_efficiency>
-0.332239005118804

> <r_i_glide_ligand_efficiency_sa>
-0.971472743251228

> <r_i_glide_ligand_efficiency_ln>
-1.9687650153177

> <r_i_glide_gscore>
-8.3059751279701

> <r_i_glide_lipo>
-4.54841757437423

> <r_i_glide_hbond>
-0.0302225496892018

> <r_i_glide_metal>
0

> <r_i_glide_rewards>
-1.81742679925394

> <r_i_glide_evdw>
-40.9844093322754

> <r_i_glide_ecoul>
-4.22073030471802

> <r_i_glide_erotb>
0.772421807668739

> <r_i_glide_esite>
0

> <r_i_glide_emodel>
-61.8428714400821

> <r_i_glide_energy>
-45.2051396369934

> <r_i_glide_einternal>
5.17706727981567

> <i_i_glide_confnum>
2

> <i_i_glide_posenum>
6

> <r_i_glide_eff_state_penalty>
0

> <s_user_duplicate_titles>
CHEMBL4618_lig386

> <s_m_subgroup_title>
dock_pv

> <s_m_subgroupid>
dock_pv

> <b_m_subgroup_collapsed>
1

$$$$
CHEMBL4618_lig370
                    3D
 Schrodinger Suite 2021-1.
 63 66  0  0  1  0            999 V2000
    8.4386   40.5145   69.2331 C   0  0  0  0  0  0
    8.5025   39.1369   69.0126 C   0  0  0  0  0  0
    8.8719   38.6946   67.7421 C   0  0  0  0  0  0
    9.3466   39.6007   66.7972 C   0  0  0  0  0  0
    9.4812   40.9537   67.1125 C   0  0  0  0  0  0
    8.9210   41.4229   68.2982 C   0  0  0  0  0  0
   10.1756   41.9299   66.1601 C   0  0  0  0  0  0
   11.7190   41.9779   66.1440 C   0  0  0  0  0  0
   12.5201   41.0111   65.5391 C   0  0  0  0  0  0
   13.8386   41.3065   65.1659 C   0  0  0  0  0  0
   14.4668   42.4700   65.5949 C   0  0  0  0  0  0
   13.6972   43.3625   66.3371 C   0  0  0  0  0  0
   12.3467   43.1248   66.5843 C   0  0  0  0  0  0
   15.8568   42.5471   65.5198 O   0  0  0  0  0  0
   16.4912   43.8168   65.2860 C   0  0  0  0  0  0
   17.4470   44.3958   66.3801 C   0  0  1  0  0  0
   16.5609   44.8287   67.5542 C   0  0  0  0  0  0
   17.2926   45.5081   68.7137 C   0  0  0  0  0  0
   18.3824   44.5544   69.1929 C   0  0  0  0  0  0
   19.3037   44.1479   68.0336 C   0  0  0  0  0  0
   18.5952   43.5894   66.8621 N   0  0  2  0  0  0
    8.3681   38.1628   70.1534 C   0  0  0  0  0  0
    8.4787   38.5096   71.5122 C   0  0  0  0  0  0
    8.5870   37.4309   72.3759 C   0  0  0  0  0  0
    8.5210   35.9328   71.5405 S   0  0  0  0  0  0
    8.2147   36.7796   70.0491 C   0  0  0  0  0  0
   19.5516   43.3530   65.7680 C   0  0  0  0  0  0
   20.5892   42.2532   66.0790 C   0  0  0  0  0  0
   21.9019   42.7060   66.7803 C   0  0  0  0  0  0
   22.3676   41.8100   67.9354 C   0  0  0  0  0  0
   23.5691   42.2196   68.4179 O   0  0  0  0  0  0
   21.7349   40.8552   68.3826 O   0  0  0  0  0  0
    8.1211   40.8936   70.1848 H   0  0  0  0  0  0
    8.9196   37.6415   67.5126 H   0  0  0  0  0  0
    9.7269   39.2113   65.8704 H   0  0  0  0  0  0
    8.9411   42.4764   68.5387 H   0  0  0  0  0  0
    9.8056   42.9275   66.4040 H   0  0  0  0  0  0
    9.8163   41.8149   65.1404 H   0  0  0  0  0  0
   12.0818   40.0894   65.1851 H   0  0  0  0  0  0
   14.4117   40.6096   64.5864 H   0  0  0  0  0  0
   14.1494   44.2161   66.7762 H   0  0  0  0  0  0
   11.7526   43.8161   67.1400 H   0  0  0  0  0  0
   15.7351   44.5854   65.1400 H   0  0  0  0  0  0
   17.0255   43.7383   64.3410 H   0  0  0  0  0  0
   17.8811   45.3222   65.9975 H   0  0  0  0  0  0
   16.1214   43.9185   67.9393 H   0  0  0  0  0  0
   15.7662   45.4591   67.1612 H   0  0  0  0  0  0
   16.5986   45.7268   69.5267 H   0  0  0  0  0  0
   17.7225   46.4588   68.3944 H   0  0  0  0  0  0
   17.9522   43.6590   69.6473 H   0  0  0  0  0  0
   18.9679   45.0168   69.9877 H   0  0  0  0  0  0
   20.0104   43.4124   68.4120 H   0  0  0  0  0  0
   19.8852   45.0154   67.7183 H   0  0  0  0  0  0
    8.5216   39.5263   71.8656 H   0  0  0  0  0  0
    8.7238   37.4512   73.4481 H   0  0  0  0  0  0
    8.0853   36.2090   69.1430 H   0  0  0  0  0  0
   20.0723   44.2852   65.5443 H   0  0  0  0  0  0
   19.0357   43.0757   64.8501 H   0  0  0  0  0  0
   20.8880   41.8162   65.1405 H   0  0  0  0  0  0
   20.0899   41.4581   66.6354 H   0  0  0  0  0  0
   21.8200   43.7232   67.1577 H   0  0  0  0  0  0
   22.7032   42.7449   66.0395 H   0  0  0  0  0  0
   23.8725   41.5773   69.0628 H   0  0  0  0  0  0
  1  6  1  0  0  0
  1  2  2  0  0  0
  1 33  1  0  0  0
  2  3  1  0  0  0
  2 22  1  0  0  0
  3  4  2  0  0  0
  3 34  1  0  0  0
  4  5  1  0  0  0
  4 35  1  0  0  0
  5  6  2  0  0  0
  5  7  1  0  0  0
  6 36  1  0  0  0
  7  8  1  0  0  0
  7 37  1  0  0  0
  7 38  1  0  0  0
  8  9  2  0  0  0
  8 13  1  0  0  0
  9 10  1  0  0  0
  9 39  1  0  0  0
 10 11  2  0  0  0
 10 40  1  0  0  0
 11 12  1  0  0  0
 11 14  1  0  0  0
 12 13  2  0  0  0
 12 41  1  0  0  0
 13 42  1  0  0  0
 14 15  1  0  0  0
 15 16  1  0  0  0
 15 43  1  0  0  0
 15 44  1  0  0  0
 16 17  1  0  0  0
 16 21  1  0  0  0
 16 45  1  0  0  0
 17 18  1  0  0  0
 17 46  1  0  0  0
 17 47  1  0  0  0
 18 19  1  0  0  0
 18 48  1  0  0  0
 18 49  1  0  0  0
 19 20  1  0  0  0
 19 50  1  0  0  0
 19 51  1  0  0  0
 20 21  1  0  0  0
 20 52  1  0  0  0
 20 53  1  0  0  0
 21 27  1  0  0  0
 22 23  1  0  0  0
 22 26  2  0  0  0
 23 24  2  0  0  0
 23 54  1  0  0  0
 24 25  1  0  0  0
 24 55  1  0  0  0
 25 26  1  0  0  0
 26 56  1  0  0  0
 27 28  1  0  0  0
 27 57  1  0  0  0
 27 58  1  0  0  0
 28 29  1  0  0  0
 28 59  1  0  0  0
 28 60  1  0  0  0
 29 30  1  0  0  0
 29 61  1  0  0  0
 29 62  1  0  0  0
 30 31  1  0  0  0
 30 32  2  0  0  0
 31 63  1  0  0  0
M  END
> <s_m_entry_id>
6960

> <s_m_entry_name>
dock_pv.390

> <s_m_Source_Path>
/home/csk/Desktop/cluster/DUD-E-result/lkha4

> <s_m_Source_File>
dock_pv.maegz

> <i_m_Source_File_Index>
390

> <chembl_id>
CHEMBL1098532

> <chembl_pref_name>
None

> <i_lp_mmshare_version>
53161

> <i_f3d_flags>
0

> <r_lp_tautomer_probability>
1

> <s_lp_Force_Field>
OPLS_2005

> <r_lp_Energy>
34.424714

> <b_lp_Chiralities_Consistent>
1

> <s_lp_Variant>
CHEMBL4618_lig370-1

> <s_i_glide_gridfile>
glide-grid_3chp

> <i_i_glide_lignum>
416

> <i_i_glide_rotatable_bonds>
11

> <r_i_docking_score>
-8.30435809151115

> <r_i_glide_ligand_efficiency>
-0.259511190359724

> <r_i_glide_ligand_efficiency_sa>
-0.823896672197287

> <r_i_glide_ligand_efficiency_ln>
-1.85957214494141

> <r_i_glide_gscore>
-8.30435809151115

> <r_i_glide_lipo>
-5.09665779305086

> <r_i_glide_hbond>
-0.27803489176838

> <r_i_glide_metal>
0

> <r_i_glide_rewards>
-0.884976461090399

> <r_i_glide_evdw>
-42.0333251953125

> <r_i_glide_ecoul>
-6.2299976348877

> <r_i_glide_erotb>
0.99147695939726

> <r_i_glide_esite>
0

> <r_i_glide_emodel>
-78.780963959421

> <r_i_glide_energy>
-48.2633228302002

> <r_i_glide_einternal>
16.3643207550049

> <i_i_glide_confnum>
31

> <i_i_glide_posenum>
374

> <r_i_glide_eff_state_penalty>
0

> <s_user_duplicate_titles>
CHEMBL4618_lig370,627629

> <s_m_subgroup_title>
dock_pv

> <s_m_subgroupid>
dock_pv

> <b_m_subgroup_collapsed>
1

$$$$
CHEMBL4618_lig235
                    3D
 Schrodinger Suite 2021-1.
 60 63  0  0  1  0            999 V2000
   18.1078   44.4238   66.5913 N   0  0  0  0  0  0
   19.2041   44.9315   67.4213 C   0  0  0  0  0  0
   19.9517   43.8661   68.2109 C   0  0  0  0  0  0
   21.1248   43.3214   67.6854 C   0  0  0  0  0  0
   21.7789   42.3002   68.3619 C   0  0  0  0  0  0
   21.2652   41.8191   69.5722 C   0  0  0  0  0  0
   20.0976   42.3864   70.1036 C   0  0  0  0  0  0
   19.4462   43.4100   69.4273 C   0  0  0  0  0  0
   21.9800   40.7075   70.2925 C   0  0  0  0  0  0
   21.3209   40.2160   71.3756 O   0  0  0  0  0  0
   23.0791   40.2884   69.9373 O   0  0  0  0  0  0
   16.1202   42.6064   65.4151 N   0  0  0  0  0  0
   17.3782   42.9759   64.7400 C   0  0  0  0  0  0
   18.5238   43.3275   65.7032 C   0  0  0  0  0  0
   16.9186   43.9997   67.3398 C   0  0  0  0  0  0
   15.7805   43.7151   66.3288 C   0  0  0  0  0  0
    9.3753   41.2277   67.4669 C   0  0  0  0  0  0
    9.7536   42.5704   67.4177 C   0  0  0  0  0  0
   10.9185   42.9540   66.7425 C   0  0  0  0  0  0
   11.7230   42.0091   66.1101 C   0  0  0  0  0  0
   11.2953   40.6828   66.0987 C   0  0  0  0  0  0
   10.1233   40.3021   66.7406 C   0  0  0  0  0  0
   12.9382   42.4496   65.5405 N   0  0  0  0  0  0
   13.8205   41.7611   64.7754 C   0  0  0  0  0  0
   15.1064   42.4683   64.3422 C   0  0  0  0  0  0
   13.6432   40.6300   64.3400 O   0  0  0  0  0  0
    8.2789   40.8628   68.2263 O   0  0  0  0  0  0
    8.2050   39.5975   68.7762 C   0  0  0  0  0  0
    7.8067   38.5078   68.0030 C   0  0  0  0  0  0
    7.7222   37.2485   68.5725 C   0  0  0  0  0  0
    8.0175   37.0574   69.9183 C   0  0  0  0  0  0
    8.4204   38.1335   70.7001 C   0  0  0  0  0  0
    8.5210   39.3951   70.1212 C   0  0  0  0  0  0
   18.8305   45.6984   68.1009 H   0  0  0  0  0  0
   19.9173   45.4259   66.7614 H   0  0  0  0  0  0
   21.5171   43.6648   66.7388 H   0  0  0  0  0  0
   22.6759   41.8759   67.9278 H   0  0  0  0  0  0
   19.6766   42.0367   71.0360 H   0  0  0  0  0  0
   18.5365   43.8250   69.8363 H   0  0  0  0  0  0
   21.9038   39.5632   71.8151 H   0  0  0  0  0  0
   17.2365   43.8158   64.0602 H   0  0  0  0  0  0
   17.7033   42.1417   64.1182 H   0  0  0  0  0  0
   19.3955   43.6315   65.1211 H   0  0  0  0  0  0
   18.8114   42.4399   66.2695 H   0  0  0  0  0  0
   17.1245   43.1085   67.9356 H   0  0  0  0  0  0
   16.6078   44.7827   68.0325 H   0  0  0  0  0  0
   14.8746   43.4813   66.8848 H   0  0  0  0  0  0
   15.5732   44.6159   65.7531 H   0  0  0  0  0  0
    9.1592   43.3115   67.9326 H   0  0  0  0  0  0
   11.2208   43.9842   66.7358 H   0  0  0  0  0  0
   11.8328   39.9067   65.5776 H   0  0  0  0  0  0
    9.8447   39.2628   66.6950 H   0  0  0  0  0  0
   13.1701   43.4121   65.7280 H   0  0  0  0  0  0
   14.7938   43.4159   63.9342 H   0  0  0  0  0  0
   15.5131   41.9163   63.4914 H   0  0  0  0  0  0
    7.5888   38.6160   66.9517 H   0  0  0  0  0  0
    7.4557   36.4217   67.9402 H   0  0  0  0  0  0
    7.9474   36.0683   70.3487 H   0  0  0  0  0  0
    8.6522   37.9937   71.7457 H   0  0  0  0  0  0
    8.8213   40.2160   70.7399 H   0  0  0  0  0  0
  1  2  1  0  0  0
  1 14  1  0  0  0
  1 15  1  0  0  0
  2  3  1  0  0  0
  2 34  1  0  0  0
  2 35  1  0  0  0
  3  8  1  0  0  0
  3  4  2  0  0  0
  4  5  1  0  0  0
  4 36  1  0  0  0
  5  6  2  0  0  0
  5 37  1  0  0  0
  6  7  1  0  0  0
  6  9  1  0  0  0
  7  8  2  0  0  0
  7 38  1  0  0  0
  8 39  1  0  0  0
  9 10  1  0  0  0
  9 11  2  0  0  0
 10 40  1  0  0  0
 12 13  1  0  0  0
 12 16  1  0  0  0
 12 25  1  0  0  0
 13 14  1  0  0  0
 13 41  1  0  0  0
 13 42  1  0  0  0
 14 43  1  0  0  0
 14 44  1  0  0  0
 15 16  1  0  0  0
 15 45  1  0  0  0
 15 46  1  0  0  0
 16 47  1  0  0  0
 16 48  1  0  0  0
 17 27  1  0  0  0
 17 22  1  0  0  0
 17 18  2  0  0  0
 18 19  1  0  0  0
 18 49  1  0  0  0
 19 20  2  0  0  0
 19 50  1  0  0  0
 20 21  1  0  0  0
 20 23  1  0  0  0
 21 22  2  0  0  0
 21 51  1  0  0  0
 22 52  1  0  0  0
 23 24  1  0  0  0
 23 53  1  0  0  0
 24 25  1  0  0  0
 24 26  2  0  0  0
 25 54  1  0  0  0
 25 55  1  0  0  0
 27 28  1  0  0  0
 28 33  1  0  0  0
 28 29  2  0  0  0
 29 30  1  0  0  0
 29 56  1  0  0  0
 30 31  2  0  0  0
 30 57  1  0  0  0
 31 32  1  0  0  0
 31 58  1  0  0  0
 32 33  2  0  0  0
 32 59  1  0  0  0
 33 60  1  0  0  0
M  END
> <s_m_entry_id>
6961

> <s_m_entry_name>
dock_pv.391

> <s_m_Source_Path>
/home/csk/Desktop/cluster/DUD-E-result/lkha4

> <s_m_Source_File>
dock_pv.maegz

> <i_m_Source_File_Index>
391

> <chembl_id>
CHEMBL519264

> <chembl_pref_name>
None

> <i_lp_mmshare_version>
53161

> <i_f3d_flags>
0

> <r_lp_tautomer_probability>
1

> <s_lp_Force_Field>
OPLS_2005

> <r_lp_Energy>
50.386536

> <b_lp_Chiralities_Consistent>
1

> <s_lp_Variant>
CHEMBL4618_lig235-1

> <s_i_glide_gridfile>
glide-grid_3chp

> <i_i_glide_lignum>
270

> <i_i_glide_rotatable_bonds>
10

> <r_i_docking_score>
-8.30256692978208

> <r_i_glide_ligand_efficiency>
-0.251592937266124

> <r_i_glide_ligand_efficiency_sa>
-0.806992982525026

> <r_i_glide_ligand_efficiency_ln>
-1.84644789679266

> <r_i_glide_gscore>
-8.30256692978208

> <r_i_glide_lipo>
-3.6394387292997

> <r_i_glide_hbond>
-0.468755935209359

> <r_i_glide_metal>
0

> <r_i_glide_rewards>
-0.845479065155143

> <r_i_glide_evdw>
-42.0060691833496

> <r_i_glide_ecoul>
-14.3725566864014

> <r_i_glide_erotb>
0.907293762009807

> <r_i_glide_esite>
0

> <r_i_glide_emodel>
-63.2748158215451

> <r_i_glide_energy>
-56.378625869751

> <r_i_glide_einternal>
26.3244781494141

> <i_i_glide_confnum>
10

> <i_i_glide_posenum>
119

> <r_i_glide_eff_state_penalty>
0

> <s_user_duplicate_titles>
CHEMBL4618_lig235

> <s_m_subgroup_title>
dock_pv

> <s_m_subgroupid>
dock_pv

> <b_m_subgroup_collapsed>
1

$$$$
CHEMBL4618_lig254
                    3D
 Schrodinger Suite 2021-1.
 67 69  0  0  1  0            999 V2000
    8.8100   40.7719   67.6876 C   0  0  0  0  0  0
    9.7189   40.0116   66.9553 C   0  0  0  0  0  0
   10.8092   40.6162   66.3420 C   0  0  0  0  0  0
   11.0123   41.9975   66.4416 C   0  0  0  0  0  0
   10.0327   42.7533   67.0840 C   0  0  0  0  0  0
    8.9379   42.1566   67.7044 C   0  0  0  0  0  0
   12.1686   42.6861   65.9891 N   0  0  0  0  0  0
   13.2972   42.1746   65.4410 C   0  0  0  0  0  0
   14.4875   43.1487   65.2272 C   0  0  0  0  0  0
   13.4160   40.9926   65.1394 O   0  0  0  0  0  0
   15.7786   42.4464   65.0360 N   0  0  1  0  0  0
    7.7762   40.1881   68.3816 O   0  0  0  0  0  0
    8.0448   39.0823   69.1540 C   0  0  0  0  0  0
    8.6411   39.2308   70.4023 C   0  0  0  0  0  0
    8.8693   38.1281   71.2219 C   0  0  0  0  0  0
    8.5194   36.8638   70.7668 C   0  0  0  0  0  0
    7.9504   36.7079   69.5071 C   0  0  0  0  0  0
    7.7012   37.8136   68.7001 C   0  0  0  0  0  0
   15.9061   41.8610   63.6952 C   0  0  0  0  0  0
   16.9969   43.2414   65.2412 C   0  0  0  0  0  0
   17.0342   44.0769   66.5340 C   0  0  0  0  0  0
   18.4601   44.4605   66.9450 C   0  0  0  0  0  0
   18.9373   43.5626   68.0018 N   0  0  2  0  0  0
   19.3646   44.2918   69.2026 C   0  0  0  0  0  0
   19.9993   42.6975   67.4876 C   0  0  0  0  0  0
   18.3017   44.3431   70.3134 C   0  0  0  0  0  0
   18.3643   43.3226   71.2728 C   0  0  0  0  0  0
   17.5521   43.3350   72.4047 C   0  0  0  0  0  0
   16.6325   44.3688   72.5989 C   0  0  0  0  0  0
   16.5202   45.3529   71.6146 C   0  0  0  0  0  0
   17.3352   45.3684   70.4719 C   0  0  0  0  0  0
   17.1492   46.4982   69.5294 N   0  3  0  0  0  0
   15.7689   44.4378   73.8356 C   0  0  0  0  0  0
   16.1263   43.5968   74.8420 O   0  0  0  0  0  0
   14.8317   45.2267   73.9410 O   0  0  0  0  0  0
   16.0352   47.0026   69.4268 O   0  0  0  0  0  0
   18.1211   46.9855   68.9722 O   0  5  0  0  0  0
    9.6042   38.9406   66.8881 H   0  0  0  0  0  0
   11.4826   39.9660   65.8120 H   0  0  0  0  0  0
   10.1352   43.8160   67.1399 H   0  0  0  0  0  0
    8.2100   42.7631   68.2243 H   0  0  0  0  0  0
   12.1772   43.6752   66.1816 H   0  0  0  0  0  0
   14.2524   43.8026   64.3848 H   0  0  0  0  0  0
   14.5101   43.7937   66.1056 H   0  0  0  0  0  0
    8.8979   40.2159   70.7388 H   0  0  0  0  0  0
    9.3167   38.2436   72.1980 H   0  0  0  0  0  0
    8.7033   35.9947   71.3816 H   0  0  0  0  0  0
    7.7210   35.7249   69.1408 H   0  0  0  0  0  0
    7.2499   37.6882   67.7242 H   0  0  0  0  0  0
   16.8883   41.4208   63.5135 H   0  0  0  0  0  0
   15.1757   41.0700   63.5400 H   0  0  0  0  0  0
   15.7517   42.6175   62.9209 H   0  0  0  0  0  0
   17.8641   42.5803   65.2227 H   0  0  0  0  0  0
   17.1407   43.9116   64.3919 H   0  0  0  0  0  0
   16.5144   45.0157   66.3489 H   0  0  0  0  0  0
   16.4897   43.5581   67.3273 H   0  0  0  0  0  0
   19.1160   44.4141   66.0717 H   0  0  0  0  0  0
   18.4904   45.5069   67.2255 H   0  0  0  0  0  0
   20.2097   43.7609   69.6482 H   0  0  0  0  0  0
   19.7860   45.2674   68.9779 H   0  0  0  0  0  0
   20.3002   41.9648   68.2366 H   0  0  0  0  0  0
   19.6620   42.1387   66.6121 H   0  0  0  0  0  0
   20.8820   43.2732   67.2021 H   0  0  0  0  0  0
   19.0762   42.5159   71.1591 H   0  0  0  0  0  0
   17.6548   42.5443   73.1355 H   0  0  0  0  0  0
   15.7969   46.1458   71.7522 H   0  0  0  0  0  0
   15.5659   43.7734   75.5998 H   0  0  0  0  0  0
  1 12  1  0  0  0
  1  6  1  0  0  0
  1  2  2  0  0  0
  2  3  1  0  0  0
  2 38  1  0  0  0
  3  4  2  0  0  0
  3 39  1  0  0  0
  4  5  1  0  0  0
  4  7  1  0  0  0
  5  6  2  0  0  0
  5 40  1  0  0  0
  6 41  1  0  0  0
  7  8  1  0  0  0
  7 42  1  0  0  0
  8  9  1  0  0  0
  8 10  2  0  0  0
  9 11  1  0  0  0
  9 43  1  0  0  0
  9 44  1  0  0  0
 11 19  1  0  0  0
 11 20  1  0  0  0
 12 13  1  0  0  0
 13 18  1  0  0  0
 13 14  2  0  0  0
 14 15  1  0  0  0
 14 45  1  0  0  0
 15 16  2  0  0  0
 15 46  1  0  0  0
 16 17  1  0  0  0
 16 47  1  0  0  0
 17 18  2  0  0  0
 17 48  1  0  0  0
 18 49  1  0  0  0
 19 50  1  0  0  0
 19 51  1  0  0  0
 19 52  1  0  0  0
 20 21  1  0  0  0
 20 53  1  0  0  0
 20 54  1  0  0  0
 21 22  1  0  0  0
 21 55  1  0  0  0
 21 56  1  0  0  0
 22 23  1  0  0  0
 22 57  1  0  0  0
 22 58  1  0  0  0
 23 24  1  0  0  0
 23 25  1  0  0  0
 24 26  1  0  0  0
 24 59  1  0  0  0
 24 60  1  0  0  0
 25 61  1  0  0  0
 25 62  1  0  0  0
 25 63  1  0  0  0
 26 27  2  0  0  0
 26 31  1  0  0  0
 27 28  1  0  0  0
 27 64  1  0  0  0
 28 29  2  0  0  0
 28 65  1  0  0  0
 29 30  1  0  0  0
 29 33  1  0  0  0
 30 31  2  0  0  0
 30 66  1  0  0  0
 31 32  1  0  0  0
 32 36  2  0  0  0
 32 37  1  0  0  0
 33 34  1  0  0  0
 33 35  2  0  0  0
 34 67  1  0  0  0
M  CHG  2  32   1  37  -1
M  END
> <s_m_entry_id>
6962

> <s_m_entry_name>
dock_pv.392

> <s_m_Source_Path>
/home/csk/Desktop/cluster/DUD-E-result/lkha4

> <s_m_Source_File>
dock_pv.maegz

> <i_m_Source_File_Index>
392

> <chembl_id>
CHEMBL479790

> <chembl_pref_name>
None

> <i_lp_mmshare_version>
53161

> <i_f3d_flags>
0

> <r_lp_tautomer_probability>
1

> <s_lp_Force_Field>
OPLS_2005

> <r_lp_Energy>
45.402799

> <b_lp_Chiralities_Consistent>
1

> <s_lp_Variant>
CHEMBL4618_lig254-1

> <s_i_glide_gridfile>
glide-grid_3chp

> <i_i_glide_lignum>
291

> <i_i_glide_rotatable_bonds>
15

> <r_i_docking_score>
-8.2973977080934

> <r_i_glide_ligand_efficiency>
-0.224253992110632

> <r_i_glide_ligand_efficiency_sa>
-0.747264051930452

> <r_i_glide_ligand_efficiency_ln>
-1.79951104428469

> <r_i_glide_gscore>
-8.2973977080934

> <r_i_glide_lipo>
-4.42707434954446

> <r_i_glide_hbond>
-0.154692822829233

> <r_i_glide_metal>
0

> <r_i_glide_rewards>
-0.498756945237664

> <r_i_glide_evdw>
-62.7970695495605

> <r_i_glide_ecoul>
-6.37628221511841

> <r_i_glide_erotb>
1.03662108430839

> <r_i_glide_esite>
-0.157198865044642

> <r_i_glide_emodel>
-89.9000460686661

> <r_i_glide_energy>
-69.173351764679

> <r_i_glide_einternal>
18.6477317810059

> <i_i_glide_confnum>
53

> <i_i_glide_posenum>
8

> <r_i_glide_eff_state_penalty>
0

> <s_user_duplicate_titles>
CHEMBL4618_lig254,467629

> <s_m_subgroup_title>
dock_pv

> <s_m_subgroupid>
dock_pv

> <b_m_subgroup_collapsed>
1

$$$$
CHEMBL4618_lig161
                    3D
 Schrodinger Suite 2021-1.
 46 47  0  0  1  0            999 V2000
   15.8529   42.6749   65.1399 C   0  0  0  0  0  0
   14.8168   42.2143   64.1129 C   0  0  0  0  0  0
   15.6370   43.5905   65.9397 O   0  0  0  0  0  0
    8.0969   39.3583   68.8594 C   0  0  0  0  0  0
    7.3382   38.4458   69.8123 C   0  0  0  0  0  0
    9.4518   41.0083   67.0575 C   0  0  0  0  0  0
   12.7576   42.8363   65.3110 N   0  0  2  0  0  0
   16.9949   41.9624   65.0635 O   0  0  0  0  0  0
    8.1701   40.7374   69.0803 C   0  0  0  0  0  0
    8.6514   38.8156   67.7052 C   0  0  0  0  0  0
    8.8488   41.5620   68.1893 C   0  0  0  0  0  0
    9.3221   39.6424   66.8142 C   0  0  0  0  0  0
    8.1780   37.6058   70.7588 C   0  0  0  0  0  0
   10.1718   41.7275   66.1291 O   0  0  0  0  0  0
   13.5025   43.0155   64.0720 C   0  0  0  0  0  0
   11.4799   43.5420   65.2670 C   0  0  0  0  0  0
   10.5546   43.0702   66.4039 C   0  0  0  0  0  0
   18.1490   42.4402   65.7472 C   0  0  0  0  0  0
    8.9170   38.2040   71.7747 C   0  0  0  0  0  0
    8.1214   36.2202   70.6699 C   0  0  0  0  0  0
    8.7925   35.4244   71.5960 C   0  0  0  0  0  0
    9.6003   37.4159   72.7021 C   0  0  0  0  0  0
    9.5306   36.0278   72.6118 C   0  0  0  0  0  0
   15.2964   42.3024   63.1396 H   0  0  0  0  0  0
   14.5909   41.1564   64.2475 H   0  0  0  0  0  0
    6.6628   39.0160   70.4372 H   0  0  0  0  0  0
    6.6988   37.7972   69.2120 H   0  0  0  0  0  0
   13.3202   43.1863   66.0758 H   0  0  0  0  0  0
    7.7203   41.1924   69.9400 H   0  0  0  0  0  0
    8.5831   37.7563   67.5057 H   0  0  0  0  0  0
    8.9008   42.6200   68.3925 H   0  0  0  0  0  0
    9.7763   39.2058   65.9401 H   0  0  0  0  0  0
   13.7207   44.0773   63.9389 H   0  0  0  0  0  0
   12.9217   42.6838   63.2124 H   0  0  0  0  0  0
   11.6626   44.6143   65.3472 H   0  0  0  0  0  0
   10.9750   43.3697   64.3154 H   0  0  0  0  0  0
   11.0610   43.1451   67.3686 H   0  0  0  0  0  0
    9.6700   43.7066   66.4388 H   0  0  0  0  0  0
   19.0158   41.8159   65.5401 H   0  0  0  0  0  0
   17.9899   42.4614   66.8264 H   0  0  0  0  0  0
   18.3988   43.4517   65.4207 H   0  0  0  0  0  0
    8.9192   39.2779   71.8523 H   0  0  0  0  0  0
    7.5267   35.8084   69.8762 H   0  0  0  0  0  0
    8.7241   34.3489   71.5390 H   0  0  0  0  0  0
   10.1616   37.8724   73.5050 H   0  0  0  0  0  0
   10.0440   35.4150   73.3372 H   0  0  0  0  0  0
  1  2  1  0  0  0
  1  3  2  0  0  0
  1  8  1  0  0  0
  2 15  1  0  0  0
  2 24  1  0  0  0
  2 25  1  0  0  0
  4 10  1  0  0  0
  4  5  1  0  0  0
  4  9  2  0  0  0
  5 13  1  0  0  0
  5 26  1  0  0  0
  5 27  1  0  0  0
  6 14  1  0  0  0
  6 11  2  0  0  0
  6 12  1  0  0  0
  7 15  1  0  0  0
  7 16  1  0  0  0
  7 28  1  0  0  0
  8 18  1  0  0  0
  9 11  1  0  0  0
  9 29  1  0  0  0
 10 12  2  0  0  0
 10 30  1  0  0  0
 11 31  1  0  0  0
 12 32  1  0  0  0
 13 19  1  0  0  0
 13 20  2  0  0  0
 14 17  1  0  0  0
 15 33  1  0  0  0
 15 34  1  0  0  0
 16 17  1  0  0  0
 16 35  1  0  0  0
 16 36  1  0  0  0
 17 37  1  0  0  0
 17 38  1  0  0  0
 18 39  1  0  0  0
 18 40  1  0  0  0
 18 41  1  0  0  0
 19 22  2  0  0  0
 19 42  1  0  0  0
 20 21  1  0  0  0
 20 43  1  0  0  0
 21 23  2  0  0  0
 21 44  1  0  0  0
 22 23  1  0  0  0
 22 45  1  0  0  0
 23 46  1  0  0  0
M  END
> <s_m_entry_id>
6963

> <s_m_entry_name>
dock_pv.393

> <s_m_Source_Path>
/home/csk/Desktop/cluster/DUD-E-result/lkha4

> <s_m_Source_File>
dock_pv.maegz

> <i_m_Source_File_Index>
393

> <chembl_id>
CHEMBL119240

> <chembl_pref_name>
None

> <i_lp_mmshare_version>
53161

> <i_f3d_flags>
0

> <r_lp_tautomer_probability>
1

> <s_lp_Force_Field>
OPLS_2005

> <r_lp_Energy>
13.639962

> <b_lp_Chiralities_Consistent>
1

> <s_lp_Variant>
CHEMBL4618_lig161-1

> <s_i_glide_gridfile>
glide-grid_3chp

> <i_i_glide_lignum>
187

> <i_i_glide_rotatable_bonds>
10

> <r_i_docking_score>
-8.29668384129675

> <r_i_glide_ligand_efficiency>
-0.360725384404207

> <r_i_glide_ligand_efficiency_sa>
-1.0258550084292

> <r_i_glide_ligand_efficiency_ln>
-2.00621338299531

> <r_i_glide_gscore>
-8.29668384129675

> <r_i_glide_lipo>
-4.66005592905737

> <r_i_glide_hbond>
-0.171982332259989

> <r_i_glide_metal>
0

> <r_i_glide_rewards>
-2.15619645042253

> <r_i_glide_evdw>
-44.2355537414551

> <r_i_glide_ecoul>
-4.65786027908325

> <r_i_glide_erotb>
1.70200759937838

> <r_i_glide_esite>
-0.1

> <r_i_glide_emodel>
-75.1425782722249

> <r_i_glide_energy>
-48.8934140205383

> <r_i_glide_einternal>
2.94202709197998

> <i_i_glide_confnum>
161

> <i_i_glide_posenum>
389

> <r_i_glide_eff_state_penalty>
0

> <s_user_duplicate_titles>
CHEMBL4618_lig161,192767

> <s_m_subgroup_title>
dock_pv

> <s_m_subgroupid>
dock_pv

> <b_m_subgroup_collapsed>
1

$$$$
CHEMBL4618_lig507 
                    3D
 Schrodinger Suite 2021-1.
 46 48  0  0  1  0            999 V2000
    8.8898   39.5769   67.6028 C   0  0  0  0  0  0
    8.0886   40.0726   68.6271 C   0  0  0  0  0  0
    7.9028   41.4427   68.7737 C   0  0  0  0  0  0
    8.5888   42.3317   67.9546 C   0  0  0  0  0  0
    9.4485   41.8522   66.9686 C   0  0  0  0  0  0
    9.5387   40.4673   66.7561 C   0  0  0  0  0  0
   10.1173   42.7992   66.2176 O   0  0  0  0  0  0
   11.4179   42.6554   65.7643 C   0  0  0  0  0  0
   11.9093   43.6592   64.9316 C   0  0  0  0  0  0
   13.1778   43.5681   64.3695 C   0  0  0  0  0  0
   13.9721   42.4563   64.6394 C   0  0  0  0  0  0
   13.5044   41.4637   65.4966 C   0  0  0  0  0  0
   12.2591   41.5855   66.0850 C   0  0  0  0  0  0
   15.3850   42.3602   64.0850 C   0  0  0  0  0  0
   16.4504   42.7016   65.1396 C   0  0  0  0  0  0
   17.7212   42.6221   64.7401 N   0  0  0  0  0  0
   16.1417   43.0164   66.2883 O   0  0  0  0  0  0
   18.9044   42.8528   65.5721 C   0  0  0  0  0  0
   19.1073   44.3015   66.0794 C   0  0  0  0  0  0
   18.6536   44.5248   67.5174 C   0  0  0  0  0  0
   19.3918   43.9867   68.5754 C   0  0  0  0  0  0
   18.9444   44.1423   69.8856 C   0  0  0  0  0  0
   17.7702   44.8503   70.1380 C   0  0  0  0  0  0
   17.0449   45.4135   69.0912 C   0  0  0  0  0  0
   17.4836   45.2418   67.7812 C   0  0  0  0  0  0
   17.2039   45.0145   71.7609 Cl  0  0  0  0  0  0
    8.9948   38.5115   67.4548 H   0  0  0  0  0  0
    7.5664   39.3883   69.2814 H   0  0  0  0  0  0
    7.2323   41.8228   69.5274 H   0  0  0  0  0  0
    8.4563   43.3973   68.0862 H   0  0  0  0  0  0
   10.1247   40.0659   65.9429 H   0  0  0  0  0  0
   11.3086   44.5282   64.7411 H   0  0  0  0  0  0
   13.5471   44.3606   63.7351 H   0  0  0  0  0  0
   14.1209   40.6158   65.7411 H   0  0  0  0  0  0
   11.9683   40.8292   66.7873 H   0  0  0  0  0  0
   15.4988   43.0153   63.2214 H   0  0  0  0  0  0
   15.5487   41.3492   63.7132 H   0  0  0  0  0  0
   17.9158   42.6227   63.7347 H   0  0  0  0  0  0
   19.7603   42.6133   64.9390 H   0  0  0  0  0  0
   18.9869   42.1219   66.3773 H   0  0  0  0  0  0
   18.6349   45.0142   65.4022 H   0  0  0  0  0  0
   20.1669   44.5524   66.0233 H   0  0  0  0  0  0
   20.2915   43.4198   68.3808 H   0  0  0  0  0  0
   19.4961   43.6974   70.7005 H   0  0  0  0  0  0
   16.1235   45.9411   69.2895 H   0  0  0  0  0  0
   16.8880   45.6190   66.9658 H   0  0  0  0  0  0
  1  2  2  0  0  0
  1  6  1  0  0  0
  1 27  1  0  0  0
  2  3  1  0  0  0
  2 28  1  0  0  0
  3  4  2  0  0  0
  3 29  1  0  0  0
  4  5  1  0  0  0
  4 30  1  0  0  0
  5  6  2  0  0  0
  5  7  1  0  0  0
  6 31  1  0  0  0
  7  8  1  0  0  0
  8  9  2  0  0  0
  8 13  1  0  0  0
  9 10  1  0  0  0
  9 32  1  0  0  0
 10 11  2  0  0  0
 10 33  1  0  0  0
 11 12  1  0  0  0
 11 14  1  0  0  0
 12 13  2  0  0  0
 12 34  1  0  0  0
 13 35  1  0  0  0
 14 15  1  0  0  0
 14 36  1  0  0  0
 14 37  1  0  0  0
 15 16  1  0  0  0
 15 17  2  0  0  0
 16 18  1  0  0  0
 16 38  1  0  0  0
 18 19  1  0  0  0
 18 39  1  0  0  0
 18 40  1  0  0  0
 19 20  1  0  0  0
 19 41  1  0  0  0
 19 42  1  0  0  0
 20 21  2  0  0  0
 20 25  1  0  0  0
 21 22  1  0  0  0
 21 43  1  0  0  0
 22 23  2  0  0  0
 22 44  1  0  0  0
 23 24  1  0  0  0
 23 26  1  0  0  0
 24 25  2  0  0  0
 24 45  1  0  0  0
 25 46  1  0  0  0
M  END
> <s_m_entry_id>
6964

> <s_m_entry_name>
dock_pv.394

> <s_m_Source_Path>
/home/csk/Desktop/cluster/DUD-E-result/lkha4

> <s_m_Source_File>
dock_pv.maegz

> <i_m_Source_File_Index>
394

> <chembl_id>
CHEMBL4461553

> <chembl_pref_name>
None

> <i_lp_mmshare_version>
53161

> <i_f3d_flags>
0

> <r_lp_tautomer_probability>
1

> <s_lp_Force_Field>
OPLS_2005

> <r_lp_Energy>
17.1327

> <b_lp_Chiralities_Consistent>
1

> <s_lp_Variant>
CHEMBL4618_lig507 -1

> <s_i_glide_gridfile>
glide-grid_3chp

> <i_i_glide_lignum>
607

> <i_i_glide_rotatable_bonds>
8

> <r_i_docking_score>
-8.29657809199538

> <r_i_glide_ligand_efficiency>
-0.319099157384438

> <r_i_glide_ligand_efficiency_sa>
-0.945329998156843

> <r_i_glide_ligand_efficiency_ln>
-1.94842414161196

> <r_i_glide_gscore>
-8.29657809199538

> <r_i_glide_lipo>
-3.45797892654919

> <r_i_glide_hbond>
-0.358143687343302

> <r_i_glide_metal>
0

> <r_i_glide_rewards>
-1.67513901335443

> <r_i_glide_evdw>
-47.8782920837402

> <r_i_glide_ecoul>
-8.11774063110352

> <r_i_glide_erotb>
1.00625923410408

> <r_i_glide_esite>
-0.2

> <r_i_glide_emodel>
-82.5064290380103

> <r_i_glide_energy>
-55.9960327148438

> <r_i_glide_einternal>
6.04798936843872

> <i_i_glide_confnum>
24

> <i_i_glide_posenum>
189

> <r_i_glide_eff_state_penalty>
0

> <s_user_duplicate_titles>
CHEMBL4618_lig507 

> <s_m_subgroup_title>
dock_pv

> <s_m_subgroupid>
dock_pv

> <b_m_subgroup_collapsed>
1

$$$$
CHEMBL4618_lig381
                    3D
 Schrodinger Suite 2021-1.
 41 43  0  0  1  0            999 V2000
    8.5211   36.9076   71.0018 N   0  0  0  0  0  0
    8.4535   35.9280   72.0719 C   0  0  0  0  0  0
    9.7198   36.1815   72.8860 C   0  0  0  0  0  0
   10.0410   37.6563   72.6127 C   0  0  0  0  0  0
    8.9192   38.1257   71.6898 C   0  0  0  0  0  0
    7.3094   37.0028   70.1931 C   0  0  0  0  0  0
    7.5570   37.7797   68.8888 C   0  0  0  0  0  0
    7.4899   39.1827   69.1454 O   0  0  0  0  0  0
    8.2417   40.0701   68.4061 C   0  0  0  0  0  0
    8.1225   41.4176   68.7414 C   0  0  0  0  0  0
    8.8979   42.3780   68.0966 C   0  0  0  0  0  0
    9.8167   42.0073   67.1151 C   0  0  0  0  0  0
    9.8834   40.6620   66.7398 C   0  0  0  0  0  0
    9.1014   39.7042   67.3657 C   0  0  0  0  0  0
   10.5653   43.0163   66.5337 O   0  0  0  0  0  0
   11.7181   42.8228   65.7940 C   0  0  0  0  0  0
   11.9665   43.8159   64.8997 N   0  0  0  0  0  0
   13.0828   43.7311   64.1319 C   0  0  0  0  0  0
   13.9758   42.6631   64.2061 C   0  0  0  0  0  0
   13.7319   41.6653   65.1451 C   0  0  0  0  0  0
   12.6183   41.7627   65.9772 C   0  0  0  0  0  0
    8.4183   34.9274   71.6376 H   0  0  0  0  0  0
    7.5382   36.0192   72.6599 H   0  0  0  0  0  0
   10.5211   35.5185   72.5624 H   0  0  0  0  0  0
    9.5444   35.9925   73.9458 H   0  0  0  0  0  0
   10.0879   38.2159   73.5396 H   0  0  0  0  0  0
   10.9930   37.8160   72.1132 H   0  0  0  0  0  0
    8.0887   38.6080   72.2093 H   0  0  0  0  0  0
    9.2625   38.8566   70.9567 H   0  0  0  0  0  0
    6.9905   35.9931   69.9399 H   0  0  0  0  0  0
    6.4986   37.4482   70.7691 H   0  0  0  0  0  0
    8.5122   37.4385   68.4906 H   0  0  0  0  0  0
    6.7969   37.5349   68.1468 H   0  0  0  0  0  0
    7.4350   41.7171   69.5205 H   0  0  0  0  0  0
    8.7900   43.4159   68.3701 H   0  0  0  0  0  0
   10.5239   40.3312   65.9402 H   0  0  0  0  0  0
    9.1999   38.6876   67.0205 H   0  0  0  0  0  0
   13.2571   44.5316   63.4270 H   0  0  0  0  0  0
   14.8349   42.6179   63.5497 H   0  0  0  0  0  0
   14.4025   40.8267   65.2414 H   0  0  0  0  0  0
   12.4612   41.0162   66.7386 H   0  0  0  0  0  0
  1  2  1  0  0  0
  1  5  1  0  0  0
  1  6  1  0  0  0
  2  3  1  0  0  0
  2 22  1  0  0  0
  2 23  1  0  0  0
  3  4  1  0  0  0
  3 24  1  0  0  0
  3 25  1  0  0  0
  4  5  1  0  0  0
  4 26  1  0  0  0
  4 27  1  0  0  0
  5 28  1  0  0  0
  5 29  1  0  0  0
  6  7  1  0  0  0
  6 30  1  0  0  0
  6 31  1  0  0  0
  7  8  1  0  0  0
  7 32  1  0  0  0
  7 33  1  0  0  0
  8  9  1  0  0  0
  9 10  1  0  0  0
  9 14  2  0  0  0
 10 11  2  0  0  0
 10 34  1  0  0  0
 11 12  1  0  0  0
 11 35  1  0  0  0
 12 13  2  0  0  0
 12 15  1  0  0  0
 13 14  1  0  0  0
 13 36  1  0  0  0
 14 37  1  0  0  0
 15 16  1  0  0  0
 16 17  1  0  0  0
 16 21  2  0  0  0
 17 18  2  0  0  0
 18 19  1  0  0  0
 18 38  1  0  0  0
 19 20  2  0  0  0
 19 39  1  0  0  0
 20 21  1  0  0  0
 20 40  1  0  0  0
 21 41  1  0  0  0
M  END
> <s_m_entry_id>
6965

> <s_m_entry_name>
dock_pv.395

> <s_m_Source_Path>
/home/csk/Desktop/cluster/DUD-E-result/lkha4

> <s_m_Source_File>
dock_pv.maegz

> <i_m_Source_File_Index>
395

> <chembl_id>
CHEMBL1775091

> <chembl_pref_name>
None

> <i_lp_mmshare_version>
53161

> <i_f3d_flags>
0

> <r_lp_tautomer_probability>
1

> <s_lp_Force_Field>
OPLS_2005

> <r_lp_Energy>
37.706042

> <b_lp_Chiralities_Consistent>
1

> <s_lp_Variant>
CHEMBL4618_lig381-1

> <s_i_glide_gridfile>
glide-grid_3chp

> <i_i_glide_lignum>
442

> <i_i_glide_rotatable_bonds>
6

> <r_i_docking_score>
-8.2891060813184

> <r_i_glide_ligand_efficiency>
-0.394719337205638

> <r_i_glide_ligand_efficiency_sa>
-1.0890007211966

> <r_i_glide_ligand_efficiency_ln>
-2.04946472889001

> <r_i_glide_gscore>
-8.2891060813184

> <r_i_glide_lipo>
-4.81840320044251

> <r_i_glide_hbond>
0

> <r_i_glide_metal>
0

> <r_i_glide_rewards>
-2.07865441643981

> <r_i_glide_evdw>
-44.7828636169434

> <r_i_glide_ecoul>
-1.82504844665527

> <r_i_glide_erotb>
1.12085198340937

> <r_i_glide_esite>
0

> <r_i_glide_emodel>
-68.4469741446753

> <r_i_glide_energy>
-46.6079120635986

> <r_i_glide_einternal>
3.11361122131348

> <i_i_glide_confnum>
12

> <i_i_glide_posenum>
205

> <r_i_glide_eff_state_penalty>
0

> <s_user_duplicate_titles>
CHEMBL4618_lig381

> <s_m_subgroup_title>
dock_pv

> <s_m_subgroupid>
dock_pv

> <b_m_subgroup_collapsed>
1

$$$$
CHEMBL4618_lig70
                    3D
 Schrodinger Suite 2021-1.
 47 50  0  0  1  0            999 V2000
   12.8293   43.4059   65.6565 C   0  0  1  0  0  0
   14.0931   42.8177   65.1990 N   0  0  0  0  0  0
   10.9058   42.8422   66.5377 C   0  0  2  0  0  0
   11.5267   42.8104   65.1199 C   0  0  0  0  0  0
   12.3671   42.8462   67.0009 C   0  0  0  0  0  0
    9.9577   41.7637   67.0628 C   0  0  0  0  0  0
   10.1342   40.4530   66.6370 C   0  0  0  0  0  0
    8.9247   42.0531   67.9644 C   0  0  0  0  0  0
    8.3724   39.6970   68.0734 C   0  0  0  0  0  0
    7.5604   38.5190   68.5858 C   0  0  0  0  0  0
    9.3211   39.4367   67.1035 C   0  0  0  0  0  0
    8.1379   41.0169   68.4801 C   0  0  0  0  0  0
    8.0638   37.8590   69.8732 C   0  0  0  0  0  0
   15.2881   43.5540   65.5773 C   0  0  0  0  0  0
   14.2542   42.6172   63.7671 C   0  0  0  0  0  0
    8.0745   36.4670   69.9765 C   0  0  0  0  0  0
    8.5128   38.6163   70.9561 C   0  0  0  0  0  0
   15.7273   42.2333   63.6058 C   0  0  0  0  0  0
   16.4258   42.8701   64.8128 C   0  0  0  0  0  0
    8.5210   35.8375   71.1401 C   0  0  0  0  0  0
    8.9236   37.9881   72.1279 C   0  0  0  0  0  0
    8.9329   36.6032   72.2206 C   0  0  0  0  0  0
   12.8419   44.4929   65.5848 H   0  0  0  0  0  0
   10.4754   43.8189   66.7173 H   0  0  0  0  0  0
   11.7215   41.8163   64.7409 H   0  0  0  0  0  0
   11.0205   43.3793   64.3412 H   0  0  0  0  0  0
   12.6092   43.4160   67.8907 H   0  0  0  0  0  0
   12.7303   41.8293   67.1398 H   0  0  0  0  0  0
   10.9164   40.1962   65.9403 H   0  0  0  0  0  0
    8.7488   43.0674   68.2918 H   0  0  0  0  0  0
    7.5169   37.7625   67.8002 H   0  0  0  0  0  0
    6.5347   38.8386   68.6758 H   0  0  0  0  0  0
    9.4544   38.4330   66.7344 H   0  0  0  0  0  0
    7.3596   41.2393   69.1966 H   0  0  0  0  0  0
   15.1952   44.6140   65.3360 H   0  0  0  0  0  0
   15.4087   43.5160   66.6610 H   0  0  0  0  0  0
   13.5882   41.8204   63.4368 H   0  0  0  0  0  0
   13.9555   43.4897   63.1850 H   0  0  0  0  0  0
    7.7291   35.8544   69.1562 H   0  0  0  0  0  0
    8.5199   39.6950   70.9075 H   0  0  0  0  0  0
   15.8374   41.1517   63.5835 H   0  0  0  0  0  0
   16.1212   42.6155   62.6634 H   0  0  0  0  0  0
   17.1750   43.5970   64.4957 H   0  0  0  0  0  0
   16.9360   42.1316   65.4297 H   0  0  0  0  0  0
    8.5229   34.7588   71.2058 H   0  0  0  0  0  0
    9.2433   38.5780   72.9704 H   0  0  0  0  0  0
    9.2595   36.1234   73.1314 H   0  0  0  0  0  0
  1  2  1  0  0  0
  1  4  1  0  0  0
  1  5  1  0  0  0
  1 23  1  0  0  0
  2 14  1  0  0  0
  2 15  1  0  0  0
  3  5  1  0  0  0
  3  6  1  0  0  0
  3  4  1  0  0  0
  3 24  1  0  0  0
  4 25  1  0  0  0
  4 26  1  0  0  0
  5 27  1  0  0  0
  5 28  1  0  0  0
  6  7  2  0  0  0
  6  8  1  0  0  0
  7 11  1  0  0  0
  7 29  1  0  0  0
  8 12  2  0  0  0
  8 30  1  0  0  0
  9 12  1  0  0  0
  9 10  1  0  0  0
  9 11  2  0  0  0
 10 13  1  0  0  0
 10 31  1  0  0  0
 10 32  1  0  0  0
 11 33  1  0  0  0
 12 34  1  0  0  0
 13 16  2  0  0  0
 13 17  1  0  0  0
 14 19  1  0  0  0
 14 35  1  0  0  0
 14 36  1  0  0  0
 15 18  1  0  0  0
 15 37  1  0  0  0
 15 38  1  0  0  0
 16 20  1  0  0  0
 16 39  1  0  0  0
 17 21  2  0  0  0
 17 40  1  0  0  0
 18 19  1  0  0  0
 18 41  1  0  0  0
 18 42  1  0  0  0
 19 43  1  0  0  0
 19 44  1  0  0  0
 20 22  2  0  0  0
 20 45  1  0  0  0
 21 22  1  0  0  0
 21 46  1  0  0  0
 22 47  1  0  0  0
M  END
> <s_m_entry_id>
6966

> <s_m_entry_name>
dock_pv.396

> <s_m_Source_Path>
/home/csk/Desktop/cluster/DUD-E-result/lkha4

> <s_m_Source_File>
dock_pv.maegz

> <i_m_Source_File_Index>
396

> <chembl_id>
CHEMBL3084969

> <chembl_pref_name>
None

> <i_lp_mmshare_version>
53161

> <i_f3d_flags>
0

> <r_lp_tautomer_probability>
1

> <s_lp_Force_Field>
OPLS_2005

> <r_lp_Energy>
37.373832

> <b_lp_Chiralities_Consistent>
1

> <s_lp_Variant>
CHEMBL4618_lig70-1

> <s_i_glide_gridfile>
glide-grid_3chp

> <i_i_glide_lignum>
89

> <i_i_glide_rotatable_bonds>
4

> <r_i_docking_score>
-8.2846488741171

> <r_i_glide_ligand_efficiency>
-0.376574948823505

> <r_i_glide_ligand_efficiency_sa>
-1.0551778164558

> <r_i_glide_ligand_efficiency_ln>
-2.02507037474428

> <r_i_glide_gscore>
-8.2846488741171

> <r_i_glide_lipo>
-5.0476302250047

> <r_i_glide_hbond>
0

> <r_i_glide_metal>
0

> <r_i_glide_rewards>
-2.32206886363636

> <r_i_glide_evdw>
-29.586799621582

> <r_i_glide_ecoul>
-1.96465623378754

> <r_i_glide_erotb>
0.859088630671194

> <r_i_glide_esite>
0

> <r_i_glide_emodel>
-40.5053394860035

> <r_i_glide_energy>
-31.5514558553696

> <r_i_glide_einternal>
4.50294303894043

> <i_i_glide_confnum>
5

> <i_i_glide_posenum>
274

> <r_i_glide_eff_state_penalty>
0

> <s_user_duplicate_titles>
CHEMBL4618_lig70

> <s_m_subgroup_title>
dock_pv

> <s_m_subgroupid>
dock_pv

> <b_m_subgroup_collapsed>
1

$$$$
CHEMBL4618_lig342
                    3D
 Schrodinger Suite 2021-1.
 51 53  0  0  1  0            999 V2000
    8.5210   39.8531   69.6682 C   0  0  0  0  0  0
    8.6014   38.8321   70.6094 C   0  0  0  0  0  0
    8.3852   37.5191   70.2098 C   0  0  0  0  0  0
    8.5209   36.2464   71.3684 Cl  0  0  0  0  0  0
    8.0822   37.2332   68.8792 C   0  0  0  0  0  0
    8.0078   38.2606   67.9408 C   0  0  0  0  0  0
    8.2310   39.5747   68.3426 C   0  0  0  0  0  0
    8.1210   40.6132   67.4492 O   0  0  0  0  0  0
    9.2314   41.2764   66.9980 C   0  0  0  0  0  0
    9.1079   42.6121   66.6259 C   0  0  0  0  0  0
   10.2069   43.2841   66.0992 C   0  0  0  0  0  0
   10.4389   40.6161   66.8078 C   0  0  0  0  0  0
   11.5459   41.3001   66.3363 C   0  0  0  0  0  0
   11.4460   42.6532   66.0070 C   0  0  0  0  0  0
   12.5220   43.3862   65.5588 O   0  0  0  0  0  0
   13.7891   43.1362   66.1774 C   0  0  0  0  0  0
   14.9188   43.1666   65.1384 C   0  0  2  0  0  0
   14.7059   42.2251   63.9495 C   0  0  0  0  0  0
   16.1049   42.0934   63.3487 C   0  0  0  0  0  0
   17.0204   42.7790   64.3542 C   0  0  0  0  0  0
   16.2727   42.8538   65.6032 N   0  0  1  0  0  0
   16.8052   43.8657   66.5212 C   0  0  0  0  0  0
   18.2306   43.5330   67.0047 C   0  0  0  0  0  0
   18.6336   44.3246   68.2703 C   0  0  0  0  0  0
   20.0825   44.1055   68.7210 C   0  0  0  0  0  0
   20.4649   42.8009   68.6443 O   0  0  0  0  0  0
   20.7945   45.0160   69.1399 O   0  0  0  0  0  0
    8.6475   40.8856   69.9400 H   0  0  0  0  0  0
    8.8144   39.0570   71.6428 H   0  0  0  0  0  0
    7.9109   36.2159   68.5711 H   0  0  0  0  0  0
    7.7733   38.0506   66.9087 H   0  0  0  0  0  0
    8.1586   43.1192   66.7283 H   0  0  0  0  0  0
   10.1019   44.3101   65.7982 H   0  0  0  0  0  0
   10.5024   39.5630   67.0104 H   0  0  0  0  0  0
   12.4609   40.7514   66.1788 H   0  0  0  0  0  0
   13.8469   42.2153   66.7415 H   0  0  0  0  0  0
   13.9516   43.9063   66.9234 H   0  0  0  0  0  0
   14.8462   44.1843   64.7517 H   0  0  0  0  0  0
   14.0389   42.6774   63.2129 H   0  0  0  0  0  0
   14.2678   41.2697   64.2422 H   0  0  0  0  0  0
   16.1213   42.6161   62.3912 H   0  0  0  0  0  0
   16.3789   41.0588   63.1536 H   0  0  0  0  0  0
   17.3210   43.7706   64.0089 H   0  0  0  0  0  0
   17.9524   42.2329   64.5052 H   0  0  0  0  0  0
   16.1516   43.9793   67.3864 H   0  0  0  0  0  0
   16.8097   44.8403   66.0292 H   0  0  0  0  0  0
   18.9195   43.8229   66.2083 H   0  0  0  0  0  0
   18.3587   42.4568   67.1253 H   0  0  0  0  0  0
   17.9872   44.0434   69.1022 H   0  0  0  0  0  0
   18.4861   45.3916   68.1039 H   0  0  0  0  0  0
   21.3733   42.6803   68.9261 H   0  0  0  0  0  0
  1  2  2  0  0  0
  1  7  1  0  0  0
  1 28  1  0  0  0
  2  3  1  0  0  0
  2 29  1  0  0  0
  3  4  1  0  0  0
  3  5  2  0  0  0
  5  6  1  0  0  0
  5 30  1  0  0  0
  6  7  2  0  0  0
  6 31  1  0  0  0
  7  8  1  0  0  0
  8  9  1  0  0  0
  9 10  2  0  0  0
  9 12  1  0  0  0
 10 11  1  0  0  0
 10 32  1  0  0  0
 11 14  2  0  0  0
 11 33  1  0  0  0
 12 13  2  0  0  0
 12 34  1  0  0  0
 13 14  1  0  0  0
 13 35  1  0  0  0
 14 15  1  0  0  0
 15 16  1  0  0  0
 16 17  1  0  0  0
 16 36  1  0  0  0
 16 37  1  0  0  0
 17 18  1  0  0  0
 17 21  1  0  0  0
 17 38  1  0  0  0
 18 19  1  0  0  0
 18 39  1  0  0  0
 18 40  1  0  0  0
 19 20  1  0  0  0
 19 41  1  0  0  0
 19 42  1  0  0  0
 20 21  1  0  0  0
 20 43  1  0  0  0
 20 44  1  0  0  0
 21 22  1  0  0  0
 22 23  1  0  0  0
 22 45  1  0  0  0
 22 46  1  0  0  0
 23 24  1  0  0  0
 23 47  1  0  0  0
 23 48  1  0  0  0
 24 25  1  0  0  0
 24 49  1  0  0  0
 24 50  1  0  0  0
 25 26  1  0  0  0
 25 27  2  0  0  0
 26 51  1  0  0  0
M  END
> <s_m_entry_id>
6967

> <s_m_entry_name>
dock_pv.397

> <s_m_Source_Path>
/home/csk/Desktop/cluster/DUD-E-result/lkha4

> <s_m_Source_File>
dock_pv.maegz

> <i_m_Source_File_Index>
397

> <chembl_id>
CHEMBL565789

> <chembl_pref_name>
None

> <i_lp_mmshare_version>
53161

> <i_f3d_flags>
0

> <r_lp_tautomer_probability>
1

> <s_lp_Force_Field>
OPLS_2005

> <r_lp_Energy>
42.72022

> <b_lp_Chiralities_Consistent>
1

> <s_lp_Variant>
CHEMBL4618_lig342-1

> <s_i_glide_gridfile>
glide-grid_3chp

> <i_i_glide_lignum>
386

> <i_i_glide_rotatable_bonds>
10

> <r_i_docking_score>
-8.28421080690289

> <r_i_glide_ligand_efficiency>
-0.306822622477885

> <r_i_glide_ligand_efficiency_sa>
-0.920467866422417

> <r_i_glide_ligand_efficiency_ln>
-1.92842769995786

> <r_i_glide_gscore>
-8.28421080690289

> <r_i_glide_lipo>
-4.4545165427828

> <r_i_glide_hbond>
-0.414794676528353

> <r_i_glide_metal>
0

> <r_i_glide_rewards>
-1.00242856635136

> <r_i_glide_evdw>
-45.7482299804688

> <r_i_glide_ecoul>
-8.22656154632568

> <r_i_glide_erotb>
1.1545251843141

> <r_i_glide_esite>
-0.0456004745821895

> <r_i_glide_emodel>
-74.2682507380969

> <r_i_glide_energy>
-53.9747915267944

> <r_i_glide_einternal>
17.0140762329102

> <i_i_glide_confnum>
191

> <i_i_glide_posenum>
252

> <r_i_glide_eff_state_penalty>
0

> <s_user_duplicate_titles>
CHEMBL4618_lig342,583354

> <s_m_subgroup_title>
dock_pv

> <s_m_subgroupid>
dock_pv

> <b_m_subgroup_collapsed>
1

$$$$
CHEMBL4618_lig54
                    3D
 Schrodinger Suite 2021-1.
 43 45  0  0  1  0            999 V2000
   10.2184   42.8219   65.9558 C   0  0  0  0  0  0
   17.5469   42.8574   65.9905 N   0  0  0  0  0  0
   11.6505   42.5513   65.5627 C   0  0  0  0  0  0
    9.6826   43.8458   65.5397 O   0  0  0  0  0  0
    9.4478   41.9398   66.9132 C   0  0  0  0  0  0
   12.3142   41.4188   66.0244 C   0  0  0  0  0  0
   12.3530   43.4076   64.6943 C   0  0  0  0  0  0
   14.2524   41.8862   64.6662 C   0  0  0  0  0  0
   13.6346   43.0707   64.2379 C   0  0  0  0  0  0
   13.5593   41.0815   65.5404 C   0  0  0  0  0  0
   15.5205   41.4260   64.3395 O   0  0  0  0  0  0
   16.8751   43.4199   64.8154 C   0  0  0  0  0  0
   16.4736   42.3302   63.7942 C   0  0  0  0  0  0
   18.9804   42.6907   65.7777 C   0  0  0  0  0  0
   17.5165   43.7615   67.1317 C   0  0  0  0  0  0
    9.4971   40.5357   66.8574 C   0  0  0  0  0  0
    8.5690   42.5344   67.8305 C   0  0  0  0  0  0
   18.5789   43.2243   68.0917 C   0  0  0  0  0  0
   19.5923   42.5395   67.1713 C   0  0  0  0  0  0
    8.8074   39.7566   67.7821 C   0  0  0  0  0  0
    7.8597   41.7542   68.7401 C   0  0  0  0  0  0
    8.0064   40.3721   68.7378 C   0  0  0  0  0  0
   11.9022   40.7654   66.7680 H   0  0  0  0  0  0
   11.9001   44.3196   64.3410 H   0  0  0  0  0  0
   14.1208   43.7319   63.5402 H   0  0  0  0  0  0
   14.0411   40.2161   65.9402 H   0  0  0  0  0  0
   17.4996   44.1780   64.3416 H   0  0  0  0  0  0
   15.9763   43.9439   65.1407 H   0  0  0  0  0  0
   17.3452   41.7433   63.5121 H   0  0  0  0  0  0
   16.1025   42.7561   62.8611 H   0  0  0  0  0  0
   19.1440   41.8207   65.1522 H   0  0  0  0  0  0
   19.4264   43.5200   65.2232 H   0  0  0  0  0  0
   17.6928   44.8000   66.8467 H   0  0  0  0  0  0
   16.5169   43.7457   67.5664 H   0  0  0  0  0  0
   10.0628   40.0197   66.0946 H   0  0  0  0  0  0
    8.4310   43.6066   67.8539 H   0  0  0  0  0  0
   19.0319   44.0304   68.6689 H   0  0  0  0  0  0
   18.1388   42.5252   68.8044 H   0  0  0  0  0  0
   19.7299   41.4891   67.4304 H   0  0  0  0  0  0
   20.5711   43.0172   67.2184 H   0  0  0  0  0  0
    8.8813   38.6794   67.7429 H   0  0  0  0  0  0
    7.1894   42.2168   69.4464 H   0  0  0  0  0  0
    7.4562   39.7768   69.4523 H   0  0  0  0  0  0
  1  3  1  0  0  0
  1  4  2  0  0  0
  1  5  1  0  0  0
  2 12  1  0  0  0
  2 14  1  0  0  0
  2 15  1  0  0  0
  3  6  2  0  0  0
  3  7  1  0  0  0
  5 16  1  0  0  0
  5 17  2  0  0  0
  6 10  1  0  0  0
  6 23  1  0  0  0
  7  9  2  0  0  0
  7 24  1  0  0  0
  8  9  1  0  0  0
  8 11  1  0  0  0
  8 10  2  0  0  0
  9 25  1  0  0  0
 10 26  1  0  0  0
 11 13  1  0  0  0
 12 13  1  0  0  0
 12 27  1  0  0  0
 12 28  1  0  0  0
 13 29  1  0  0  0
 13 30  1  0  0  0
 14 19  1  0  0  0
 14 31  1  0  0  0
 14 32  1  0  0  0
 15 18  1  0  0  0
 15 33  1  0  0  0
 15 34  1  0  0  0
 16 20  2  0  0  0
 16 35  1  0  0  0
 17 21  1  0  0  0
 17 36  1  0  0  0
 18 19  1  0  0  0
 18 37  1  0  0  0
 18 38  1  0  0  0
 19 39  1  0  0  0
 19 40  1  0  0  0
 20 22  1  0  0  0
 20 41  1  0  0  0
 21 22  2  0  0  0
 21 42  1  0  0  0
 22 43  1  0  0  0
M  END
> <s_m_entry_id>
6969

> <s_m_entry_name>
dock_pv.399

> <s_m_Source_Path>
/home/csk/Desktop/cluster/DUD-E-result/lkha4

> <s_m_Source_File>
dock_pv.maegz

> <i_m_Source_File_Index>
399

> <chembl_id>
CHEMBL163396

> <chembl_pref_name>
None

> <i_lp_mmshare_version>
53161

> <i_f3d_flags>
0

> <r_lp_tautomer_probability>
1

> <s_lp_Force_Field>
OPLS_2005

> <r_lp_Energy>
45.088384

> <b_lp_Chiralities_Consistent>
1

> <s_lp_Variant>
CHEMBL4618_lig54-1

> <s_i_glide_gridfile>
glide-grid_3chp

> <i_i_glide_lignum>
71

> <i_i_glide_rotatable_bonds>
6

> <r_i_docking_score>
-8.27015217093418

> <r_i_glide_ligand_efficiency>
-0.375916007769736

> <r_i_glide_ligand_efficiency_sa>
-1.05333143770846

> <r_i_glide_ligand_efficiency_ln>
-2.02152685170628

> <r_i_glide_gscore>
-8.27015217093418

> <r_i_glide_lipo>
-3.43317903007838

> <r_i_glide_hbond>
-0.149346887094822

> <r_i_glide_metal>
0

> <r_i_glide_rewards>
-2.19992839812017

> <r_i_glide_evdw>
-40.0819854736328

> <r_i_glide_ecoul>
-10.2169418334961

> <r_i_glide_erotb>
1.04894269306525

> <r_i_glide_esite>
0

> <r_i_glide_emodel>
-73.7101751648684

> <r_i_glide_energy>
-50.2989273071289

> <r_i_glide_einternal>
8.38855648040771

> <i_i_glide_confnum>
35

> <i_i_glide_posenum>
219

> <r_i_glide_eff_state_penalty>
0

> <s_user_duplicate_titles>
CHEMBL4618_lig54

> <s_m_subgroup_title>
dock_pv

> <s_m_subgroupid>
dock_pv

> <b_m_subgroup_collapsed>
1

$$$$
CHEMBL4618_lig435
                    3D
 Schrodinger Suite 2021-1.
 50 55  0  0  1  0            999 V2000
   13.4256   42.3262   64.6866 O   0  0  0  0  0  0
   16.0396   42.2157   64.3401 S   0  0  0  0  0  0
   14.6192   42.7678   65.1956 C   0  0  0  0  0  0
   14.8124   43.5648   66.2129 N   0  0  0  0  0  0
   16.1407   43.8158   66.3770 C   0  0  0  0  0  0
   17.0064   43.1618   65.4607 C   0  0  0  0  0  0
   16.7228   44.6223   67.3663 C   0  0  0  0  0  0
   18.0652   44.8018   67.4509 N   0  0  0  0  0  0
   18.8642   44.1723   66.5533 C   0  0  0  0  0  0
   18.3966   43.3337   65.5401 C   0  0  0  0  0  0
   10.1887   43.3646   66.1393 C   0  0  0  0  0  0
   11.4512   43.4229   65.5318 C   0  0  0  0  0  0
   12.2799   42.3080   65.4459 C   0  0  0  0  0  0
   11.8495   41.0848   65.9405 C   0  0  0  0  0  0
    8.6351   41.7127   67.4589 C   0  0  0  0  0  0
    9.7781   42.1654   66.7329 C   0  0  0  0  0  0
   10.6127   41.0381   66.6103 C   0  0  0  0  0  0
   10.0056   39.9389   67.1513 O   0  0  0  0  0  0
    8.8206   40.3549   67.6883 C   0  0  0  0  0  0
    7.9065   39.2886   68.2820 C   0  0  0  0  0  0
    8.5215   38.3561   69.2347 N   0  0  1  0  0  0
    9.0632   38.9821   70.4555 C   0  0  0  0  0  0
    8.3741   38.2390   71.6257 C   0  0  2  0  0  0
    8.8369   36.8377   71.5776 N   0  0  0  0  0  0
    8.2448   36.2220   70.3856 C   0  0  0  0  0  0
    7.5185   37.4259   69.7886 C   0  0  1  0  0  0
    9.5753   36.1604   72.4831 C   0  0  0  0  0  0
    9.8570   34.9701   72.3468 O   0  0  0  0  0  0
   10.1105   36.8986   73.7063 C   0  0  0  0  0  0
    6.9881   38.0860   71.0352 C   0  0  0  0  0  0
   16.1211   45.1049   68.1189 H   0  0  0  0  0  0
   19.9250   44.3474   66.6579 H   0  0  0  0  0  0
   19.0717   42.8616   64.8394 H   0  0  0  0  0  0
    9.5273   44.2158   66.1570 H   0  0  0  0  0  0
   11.7917   44.3350   65.0727 H   0  0  0  0  0  0
   12.4408   40.2161   65.7288 H   0  0  0  0  0  0
    7.7650   42.2882   67.7440 H   0  0  0  0  0  0
    7.5160   38.6730   67.4702 H   0  0  0  0  0  0
    7.0446   39.7752   68.7400 H   0  0  0  0  0  0
    8.7862   40.0368   70.4909 H   0  0  0  0  0  0
   10.1496   38.9342   70.5137 H   0  0  0  0  0  0
    8.4517   38.7175   72.6010 H   0  0  0  0  0  0
    7.5743   35.4424   70.7379 H   0  0  0  0  0  0
    8.9210   35.8160   69.6579 H   0  0  0  0  0  0
    6.7498   37.1380   69.0779 H   0  0  0  0  0  0
    9.3145   37.0159   74.4411 H   0  0  0  0  0  0
   10.9171   36.3308   74.1713 H   0  0  0  0  0  0
   10.5022   37.8791   73.4412 H   0  0  0  0  0  0
    6.3051   37.4837   71.6353 H   0  0  0  0  0  0
    6.5210   39.0160   70.7482 H   0  0  0  0  0  0
  1  3  1  0  0  0
  1 13  1  0  0  0
  2  3  1  0  0  0
  2  6  1  0  0  0
  3  4  2  0  0  0
  4  5  1  0  0  0
  5  6  1  0  0  0
  5  7  2  0  0  0
  6 10  2  0  0  0
  7  8  1  0  0  0
  7 31  1  0  0  0
  8  9  2  0  0  0
  9 10  1  0  0  0
  9 32  1  0  0  0
 10 33  1  0  0  0
 11 16  2  0  0  0
 11 12  1  0  0  0
 11 34  1  0  0  0
 12 13  2  0  0  0
 12 35  1  0  0  0
 13 14  1  0  0  0
 14 17  2  0  0  0
 14 36  1  0  0  0
 15 16  1  0  0  0
 15 19  2  0  0  0
 15 37  1  0  0  0
 16 17  1  0  0  0
 17 18  1  0  0  0
 18 19  1  0  0  0
 19 20  1  0  0  0
 20 21  1  0  0  0
 20 38  1  0  0  0
 20 39  1  0  0  0
 21 22  1  0  0  0
 21 26  1  0  0  0
 22 23  1  0  0  0
 22 40  1  0  0  0
 22 41  1  0  0  0
 23 24  1  0  0  0
 23 30  1  0  0  0
 23 42  1  0  0  0
 24 25  1  0  0  0
 24 27  1  0  0  0
 25 26  1  0  0  0
 25 43  1  0  0  0
 25 44  1  0  0  0
 26 30  1  0  0  0
 26 45  1  0  0  0
 27 28  2  0  0  0
 27 29  1  0  0  0
 29 46  1  0  0  0
 29 47  1  0  0  0
 29 48  1  0  0  0
 30 49  1  0  0  0
 30 50  1  0  0  0
M  END
> <s_m_entry_id>
6970

> <s_m_entry_name>
dock_pv.400

> <s_m_Source_Path>
/home/csk/Desktop/cluster/DUD-E-result/lkha4

> <s_m_Source_File>
dock_pv.maegz

> <i_m_Source_File_Index>
400

> <chembl_id>
CHEMBL2313270

> <chembl_pref_name>
None

> <i_lp_mmshare_version>
53161

> <i_f3d_flags>
0

> <r_lp_tautomer_probability>
1

> <s_lp_Force_Field>
OPLS_2005

> <r_lp_Energy>
80.793705

> <b_lp_Chiralities_Consistent>
1

> <s_lp_Variant>
CHEMBL4618_lig435-1

> <s_i_glide_gridfile>
glide-grid_3chp

> <i_i_glide_lignum>
506

> <i_i_glide_rotatable_bonds>
5

> <r_i_docking_score>
-8.26841850686364

> <r_i_glide_ligand_efficiency>
-0.275613950228788

> <r_i_glide_ligand_efficiency_sa>
-0.856396624274315

> <r_i_glide_ligand_efficiency_ln>
-1.87867477639483

> <r_i_glide_gscore>
-8.26841850686364

> <r_i_glide_lipo>
-4.42320051937003

> <r_i_glide_hbond>
0

> <r_i_glide_metal>
0

> <r_i_glide_rewards>
-1.44210509307394

> <r_i_glide_evdw>
-52.6126441955566

> <r_i_glide_ecoul>
-1.4684202671051

> <r_i_glide_erotb>
0.447782355423934

> <r_i_glide_esite>
0

> <r_i_glide_emodel>
-65.684165899862

> <r_i_glide_energy>
-54.0810644626617

> <r_i_glide_einternal>
2.19803428649902

> <i_i_glide_confnum>
15

> <i_i_glide_posenum>
126

> <r_i_glide_eff_state_penalty>
0

> <s_user_duplicate_titles>
CHEMBL4618_lig435

> <s_m_subgroup_title>
dock_pv

> <s_m_subgroupid>
dock_pv

> <b_m_subgroup_collapsed>
1

$$$$
CHEMBL4618_lig389
                    3D
 Schrodinger Suite 2021-1.
 42 44  0  0  1  0            999 V2000
   14.0807   42.6309   65.5398 N   0  0  0  0  0  0
   14.1646   42.5168   64.0875 C   0  0  0  0  0  0
   15.6361   42.2005   63.8119 C   0  0  0  0  0  0
   16.3825   42.8239   64.9938 C   0  0  0  0  0  0
   15.2643   43.4159   65.8572 C   0  0  0  0  0  0
   12.8330   43.2204   66.0461 C   0  0  0  0  0  0
   11.5964   42.3501   65.7329 C   0  0  0  0  0  0
   10.5467   42.6324   66.6609 O   0  0  0  0  0  0
    9.7246   41.6317   67.1529 C   0  0  0  0  0  0
    8.8089   42.0197   68.1322 C   0  0  0  0  0  0
    8.0154   41.0750   68.7776 C   0  0  0  0  0  0
    8.1354   39.7220   68.4617 C   0  0  0  0  0  0
    8.9721   39.3365   67.4206 C   0  0  0  0  0  0
    9.7618   40.2824   66.7675 C   0  0  0  0  0  0
    7.3943   38.7745   69.1284 O   0  0  0  0  0  0
    7.9891   38.0254   70.1219 C   0  0  0  0  0  0
    7.9859   36.6351   70.0106 C   0  0  0  0  0  0
    8.5210   35.8385   71.0236 C   0  0  0  0  0  0
    9.0891   36.4279   72.1394 C   0  0  0  0  0  0
    9.0982   37.8079   72.2590 C   0  0  0  0  0  0
    8.5373   38.6150   71.2635 C   0  0  0  0  0  0
    9.8106   35.4447   73.3623 Cl  0  0  0  0  0  0
   13.8156   43.4161   63.5750 H   0  0  0  0  0  0
   13.5029   41.7193   63.7490 H   0  0  0  0  0  0
   15.9595   42.6158   62.8563 H   0  0  0  0  0  0
   15.7788   41.1238   63.7407 H   0  0  0  0  0  0
   16.9719   42.0901   65.5420 H   0  0  0  0  0  0
   17.0698   43.6020   64.6575 H   0  0  0  0  0  0
   15.4685   43.3588   66.9258 H   0  0  0  0  0  0
   15.1068   44.4743   65.6596 H   0  0  0  0  0  0
   12.9149   43.3448   67.1281 H   0  0  0  0  0  0
   12.6931   44.2165   65.6253 H   0  0  0  0  0  0
   11.2295   42.6130   64.7404 H   0  0  0  0  0  0
   11.9063   41.3047   65.7161 H   0  0  0  0  0  0
    8.7322   43.0589   68.4109 H   0  0  0  0  0  0
    7.3208   41.3915   69.5402 H   0  0  0  0  0  0
    9.0359   38.2959   67.1406 H   0  0  0  0  0  0
   10.4101   39.9212   65.9852 H   0  0  0  0  0  0
    7.5750   36.1700   69.1332 H   0  0  0  0  0  0
    8.5211   34.7634   70.9390 H   0  0  0  0  0  0
    9.5510   38.2166   73.1415 H   0  0  0  0  0  0
    8.5213   39.6879   71.3764 H   0  0  0  0  0  0
  1  2  1  0  0  0
  1  5  1  0  0  0
  1  6  1  0  0  0
  2  3  1  0  0  0
  2 23  1  0  0  0
  2 24  1  0  0  0
  3  4  1  0  0  0
  3 25  1  0  0  0
  3 26  1  0  0  0
  4  5  1  0  0  0
  4 27  1  0  0  0
  4 28  1  0  0  0
  5 29  1  0  0  0
  5 30  1  0  0  0
  6  7  1  0  0  0
  6 31  1  0  0  0
  6 32  1  0  0  0
  7  8  1  0  0  0
  7 33  1  0  0  0
  7 34  1  0  0  0
  8  9  1  0  0  0
  9 10  1  0  0  0
  9 14  2  0  0  0
 10 11  2  0  0  0
 10 35  1  0  0  0
 11 12  1  0  0  0
 11 36  1  0  0  0
 12 13  2  0  0  0
 12 15  1  0  0  0
 13 14  1  0  0  0
 13 37  1  0  0  0
 14 38  1  0  0  0
 15 16  1  0  0  0
 16 17  1  0  0  0
 16 21  2  0  0  0
 17 18  2  0  0  0
 17 39  1  0  0  0
 18 19  1  0  0  0
 18 40  1  0  0  0
 19 20  2  0  0  0
 19 22  1  0  0  0
 20 21  1  0  0  0
 20 41  1  0  0  0
 21 42  1  0  0  0
M  END
> <s_m_entry_id>
6971

> <s_m_entry_name>
dock_pv.401

> <s_m_Source_Path>
/home/csk/Desktop/cluster/DUD-E-result/lkha4

> <s_m_Source_File>
dock_pv.maegz

> <i_m_Source_File_Index>
401

> <chembl_id>
CHEMBL1775103

> <chembl_pref_name>
None

> <i_lp_mmshare_version>
53161

> <i_f3d_flags>
0

> <r_lp_tautomer_probability>
1

> <s_lp_Force_Field>
OPLS_2005

> <r_lp_Energy>
39.163702

> <b_lp_Chiralities_Consistent>
1

> <s_lp_Variant>
CHEMBL4618_lig389-1

> <s_i_glide_gridfile>
glide-grid_3chp

> <i_i_glide_lignum>
450

> <i_i_glide_rotatable_bonds>
6

> <r_i_docking_score>
-8.26544918910223

> <r_i_glide_ligand_efficiency>
-0.375702235868283

> <r_i_glide_ligand_efficiency_sa>
-1.05273244043342

> <r_i_glide_ligand_efficiency_ln>
-2.02037727140112

> <r_i_glide_gscore>
-8.26544918910223

> <r_i_glide_lipo>
-4.67127498413155

> <r_i_glide_hbond>
0

> <r_i_glide_metal>
0

> <r_i_glide_rewards>
-1.8337989033924

> <r_i_glide_evdw>
-45.7040214538574

> <r_i_glide_ecoul>
-2.65150547027588

> <r_i_glide_erotb>
0.922551591655967

> <r_i_glide_esite>
0

> <r_i_glide_emodel>
-69.7692722271081

> <r_i_glide_energy>
-48.3555269241333

> <r_i_glide_einternal>
6.03915643692017

> <i_i_glide_confnum>
27

> <i_i_glide_posenum>
347

> <r_i_glide_eff_state_penalty>
0

> <s_user_duplicate_titles>
CHEMBL4618_lig389

> <s_m_subgroup_title>
dock_pv

> <s_m_subgroupid>
dock_pv

> <b_m_subgroup_collapsed>
1

$$$$
CHEMBL4618_lig387
                    3D
 Schrodinger Suite 2021-1.
 45 47  0  0  1  0            999 V2000
    8.4862   36.9015   71.0208 N   0  0  0  0  0  0
    8.4446   35.9173   72.0888 C   0  0  0  0  0  0
    9.7209   36.1753   72.8866 C   0  0  0  0  0  0
   10.0317   37.6525   72.6149 C   0  0  0  0  0  0
    8.8945   38.1173   71.7092 C   0  0  0  0  0  0
    7.2432   37.0004   70.2556 C   0  0  0  0  0  0
    7.4211   37.8160   68.9760 C   0  0  0  0  0  0
    7.4093   39.2072   69.2899 O   0  0  0  0  0  0
    8.0987   40.0975   68.5003 C   0  0  0  0  0  0
    7.9241   41.4548   68.7711 C   0  0  0  0  0  0
    8.6242   42.4215   68.0559 C   0  0  0  0  0  0
    9.5138   42.0378   67.0573 C   0  0  0  0  0  0
    9.6092   40.6809   66.7400 C   0  0  0  0  0  0
    8.9210   39.7181   67.4415 C   0  0  0  0  0  0
   10.2324   43.0162   66.3911 O   0  0  0  0  0  0
   11.5126   42.8098   65.9021 C   0  0  0  0  0  0
   12.3073   41.7233   66.2707 C   0  0  0  0  0  0
   13.5271   41.5034   65.6700 C   0  0  0  0  0  0
   14.0833   42.4590   64.8333 C   0  0  0  0  0  0
   13.3210   43.5753   64.4742 C   0  0  0  0  0  0
   12.0390   43.7377   65.0026 C   0  0  0  0  0  0
   15.5322   42.2823   64.3979 C   0  0  0  0  0  0
   15.7219   42.6160   63.1400 F   0  0  0  0  0  0
   16.3141   43.0316   65.1743 F   0  0  0  0  0  0
   15.9286   41.0163   64.5303 F   0  0  0  0  0  0
    8.4106   34.9181   71.6509 H   0  0  0  0  0  0
    7.5387   35.9981   72.6932 H   0  0  0  0  0  0
   10.5210   35.5176   72.5494 H   0  0  0  0  0  0
    9.5624   35.9818   73.9483 H   0  0  0  0  0  0
   10.0888   38.2160   73.5400 H   0  0  0  0  0  0
   10.9748   37.8160   72.0998 H   0  0  0  0  0  0
    8.0720   38.5960   72.2443 H   0  0  0  0  0  0
    9.2268   38.8528   70.9759 H   0  0  0  0  0  0
    6.9386   36.0019   69.9400 H   0  0  0  0  0  0
    6.4433   37.4160   70.8700 H   0  0  0  0  0  0
    8.3346   37.4488   68.5122 H   0  0  0  0  0  0
    6.6070   37.6219   68.2770 H   0  0  0  0  0  0
    7.2373   41.7665   69.5400 H   0  0  0  0  0  0
    8.4771   43.4645   68.2840 H   0  0  0  0  0  0
   10.2330   40.3369   65.9362 H   0  0  0  0  0  0
    9.0678   38.6982   67.1283 H   0  0  0  0  0  0
   11.9945   41.0160   67.0165 H   0  0  0  0  0  0
   14.0772   40.6160   65.9400 H   0  0  0  0  0  0
   13.7210   44.3252   63.8088 H   0  0  0  0  0  0
   11.4596   44.6065   64.7432 H   0  0  0  0  0  0
  1  5  1  0  0  0
  1  6  1  0  0  0
  1  2  1  0  0  0
  2  3  1  0  0  0
  2 26  1  0  0  0
  2 27  1  0  0  0
  3  4  1  0  0  0
  3 28  1  0  0  0
  3 29  1  0  0  0
  4  5  1  0  0  0
  4 30  1  0  0  0
  4 31  1  0  0  0
  5 32  1  0  0  0
  5 33  1  0  0  0
  6  7  1  0  0  0
  6 34  1  0  0  0
  6 35  1  0  0  0
  7  8  1  0  0  0
  7 36  1  0  0  0
  7 37  1  0  0  0
  8  9  1  0  0  0
  9 10  1  0  0  0
  9 14  2  0  0  0
 10 11  2  0  0  0
 10 38  1  0  0  0
 11 12  1  0  0  0
 11 39  1  0  0  0
 12 13  2  0  0  0
 12 15  1  0  0  0
 13 14  1  0  0  0
 13 40  1  0  0  0
 14 41  1  0  0  0
 15 16  1  0  0  0
 16 17  1  0  0  0
 16 21  2  0  0  0
 17 18  2  0  0  0
 17 42  1  0  0  0
 18 19  1  0  0  0
 18 43  1  0  0  0
 19 20  2  0  0  0
 19 22  1  0  0  0
 20 21  1  0  0  0
 20 44  1  0  0  0
 21 45  1  0  0  0
 22 23  1  0  0  0
 22 24  1  0  0  0
 22 25  1  0  0  0
M  END
> <s_m_entry_id>
6972

> <s_m_entry_name>
dock_pv.402

> <s_m_Source_Path>
/home/csk/Desktop/cluster/DUD-E-result/lkha4

> <s_m_Source_File>
dock_pv.maegz

> <i_m_Source_File_Index>
402

> <chembl_id>
CHEMBL1775101

> <chembl_pref_name>
None

> <i_lp_mmshare_version>
53161

> <i_f3d_flags>
0

> <r_lp_tautomer_probability>
1

> <s_lp_Force_Field>
OPLS_2005

> <r_lp_Energy>
40.8953

> <b_lp_Chiralities_Consistent>
1

> <s_lp_Variant>
CHEMBL4618_lig387-1

> <s_i_glide_gridfile>
glide-grid_3chp

> <i_i_glide_lignum>
448

> <i_i_glide_rotatable_bonds>
7

> <r_i_docking_score>
-8.26477167398552

> <r_i_glide_ligand_efficiency>
-0.330590866959421

> <r_i_glide_ligand_efficiency_sa>
-0.966653558043337

> <r_i_glide_ligand_efficiency_ln>
-1.95899856195547

> <r_i_glide_gscore>
-8.26477167398552

> <r_i_glide_lipo>
-5.12230844430174

> <r_i_glide_hbond>
0

> <r_i_glide_metal>
0

> <r_i_glide_rewards>
-1.3216385447733

> <r_i_glide_evdw>
-39.7140769958496

> <r_i_glide_ecoul>
-2.12957000732422

> <r_i_glide_erotb>
0.772421807668739

> <r_i_glide_esite>
-0.288107141688107

> <r_i_glide_emodel>
-62.6644602138952

> <r_i_glide_energy>
-41.8436470031738

> <r_i_glide_einternal>
3.76064729690552

> <i_i_glide_confnum>
86

> <i_i_glide_posenum>
195

> <r_i_glide_eff_state_penalty>
0

> <s_user_duplicate_titles>
CHEMBL4618_lig387

> <s_m_subgroup_title>
dock_pv

> <s_m_subgroupid>
dock_pv

> <b_m_subgroup_collapsed>
1

$$$$
CHEMBL4618_lig344
                    3D
 Schrodinger Suite 2021-1.
 37 39  0  0  1  0            999 V2000
    9.9256   43.2811   66.1439 C   0  0  0  0  0  0
   11.1870   42.7235   65.9423 C   0  0  0  0  0  0
   11.4490   41.4158   66.3399 C   0  0  0  0  0  0
   10.4198   40.6490   66.8765 C   0  0  0  0  0  0
    9.1675   41.2016   67.0892 C   0  0  0  0  0  0
    8.9206   42.5264   66.7400 C   0  0  0  0  0  0
    8.1210   40.4153   67.4859 O   0  0  0  0  0  0
    8.2348   39.4711   68.4769 C   0  0  0  0  0  0
    7.9487   38.1319   68.2348 C   0  0  0  0  0  0
    7.9799   37.2123   69.2872 C   0  0  0  0  0  0
    8.3188   37.6056   70.5954 C   0  0  0  0  0  0
    8.5793   38.9626   70.8037 C   0  0  0  0  0  0
    8.5210   39.8773   69.7626 C   0  0  0  0  0  0
    8.3416   36.6988   71.6647 N   0  0  0  0  0  0
    8.5472   35.2541   71.5400 C   0  0  0  0  0  0
    9.8607   34.7006   72.1637 C   0  0  0  0  0  0
   10.1115   35.1773   73.5197 N   0  0  0  0  0  0
    9.9095   36.6160   73.6291 C   0  0  0  0  0  0
    8.5211   37.0160   73.0856 C   0  0  0  0  0  0
   12.6772   43.8160   64.9643 I   0  0  0  0  0  0
    9.7147   44.2899   65.8310 H   0  0  0  0  0  0
   12.4174   40.9762   66.1532 H   0  0  0  0  0  0
   10.5210   39.6008   67.0818 H   0  0  0  0  0  0
    7.9351   42.9492   66.8766 H   0  0  0  0  0  0
    7.6794   37.8160   67.2383 H   0  0  0  0  0  0
    7.7210   36.1918   69.0595 H   0  0  0  0  0  0
    8.7982   39.3513   71.7797 H   0  0  0  0  0  0
    8.6683   40.9284   69.9400 H   0  0  0  0  0  0
    8.5210   35.0159   70.4870 H   0  0  0  0  0  0
    7.6895   34.7210   71.9400 H   0  0  0  0  0  0
    9.8166   33.6112   72.1806 H   0  0  0  0  0  0
   10.7069   34.9764   71.5400 H   0  0  0  0  0  0
    9.5772   34.6673   74.2098 H   0  0  0  0  0  0
    9.9840   36.9051   74.6780 H   0  0  0  0  0  0
   10.6876   37.1517   73.0856 H   0  0  0  0  0  0
    7.7296   36.5241   73.6516 H   0  0  0  0  0  0
    8.3694   38.0733   73.2649 H   0  0  0  0  0  0
  1  6  1  0  0  0
  1  2  2  0  0  0
  1 21  1  0  0  0
  2  3  1  0  0  0
  2 20  1  0  0  0
  3  4  2  0  0  0
  3 22  1  0  0  0
  4  5  1  0  0  0
  4 23  1  0  0  0
  5  6  2  0  0  0
  5  7  1  0  0  0
  6 24  1  0  0  0
  7  8  1  0  0  0
  8 13  1  0  0  0
  8  9  2  0  0  0
  9 10  1  0  0  0
  9 25  1  0  0  0
 10 11  2  0  0  0
 10 26  1  0  0  0
 11 12  1  0  0  0
 11 14  1  0  0  0
 12 13  2  0  0  0
 12 27  1  0  0  0
 13 28  1  0  0  0
 14 15  1  0  0  0
 14 19  1  0  0  0
 15 16  1  0  0  0
 15 29  1  0  0  0
 15 30  1  0  0  0
 16 17  1  0  0  0
 16 31  1  0  0  0
 16 32  1  0  0  0
 17 18  1  0  0  0
 17 33  1  0  0  0
 18 19  1  0  0  0
 18 34  1  0  0  0
 18 35  1  0  0  0
 19 36  1  0  0  0
 19 37  1  0  0  0
M  END
> <s_m_entry_id>
6973

> <s_m_entry_name>
dock_pv.403

> <s_m_Source_Path>
/home/csk/Desktop/cluster/DUD-E-result/lkha4

> <s_m_Source_File>
dock_pv.maegz

> <i_m_Source_File_Index>
403

> <chembl_id>
CHEMBL567267

> <chembl_pref_name>
None

> <i_lp_mmshare_version>
53161

> <i_f3d_flags>
0

> <r_lp_tautomer_probability>
1

> <s_lp_Force_Field>
OPLS_2005

> <r_lp_Energy>
39.091913

> <b_lp_Chiralities_Consistent>
1

> <s_lp_Variant>
CHEMBL4618_lig344-1

> <s_i_glide_gridfile>
glide-grid_3chp

> <i_i_glide_lignum>
388

> <i_i_glide_rotatable_bonds>
3

> <r_i_docking_score>
-8.23556460226747

> <r_i_glide_ligand_efficiency>
-0.411778230113373

> <r_i_glide_ligand_efficiency_sa>
-1.11773808083386

> <r_i_glide_ligand_efficiency_ln>
-2.06109019284777

> <r_i_glide_gscore>
-8.23556460226747

> <r_i_glide_lipo>
-5.06431211090872

> <r_i_glide_hbond>
0

> <r_i_glide_metal>
0

> <r_i_glide_rewards>
-1.58979061916996

> <r_i_glide_evdw>
-36.3255844116211

> <r_i_glide_ecoul>
-1.11812651157379

> <r_i_glide_erotb>
0.402536325128342

> <r_i_glide_esite>
0

> <r_i_glide_emodel>
-48.859467219102

> <r_i_glide_energy>
-37.4437109231949

> <r_i_glide_einternal>
6.94912958145142

> <i_i_glide_confnum>
64

> <i_i_glide_posenum>
378

> <r_i_glide_eff_state_penalty>
0

> <s_user_duplicate_titles>
CHEMBL4618_lig344,583381

> <s_m_subgroup_title>
dock_pv

> <s_m_subgroupid>
dock_pv

> <b_m_subgroup_collapsed>
1

$$$$
CHEMBL4618_lig148
                    3D
 Schrodinger Suite 2021-1.
 47 48  0  0  1  0            999 V2000
   15.6426   42.1077   64.7400 C   0  0  0  0  0  0
   14.2908   42.8136   64.6422 C   0  0  0  0  0  0
   16.5206   42.4090   65.5406 O   0  0  0  0  0  0
    8.1210   36.2529   71.4059 O   0  0  0  0  0  0
   13.1671   42.0939   65.4416 C   0  0  0  0  0  0
   12.1804   43.0160   66.0185 N   0  0  2  0  0  0
    8.2721   37.2829   70.5021 C   0  0  0  0  0  0
   15.7210   41.0160   63.9400 O   0  0  0  0  0  0
    8.4568   39.3321   68.5912 C   0  0  0  0  0  0
    9.1049   35.8876   72.2991 C   0  0  0  0  0  0
    8.4539   38.6029   70.9021 C   0  0  0  0  0  0
    8.1144   37.0117   69.1407 C   0  0  0  0  0  0
    8.5210   39.6060   69.9451 C   0  0  0  0  0  0
    8.2197   38.0224   68.1825 C   0  0  0  0  0  0
   10.0126   41.6629   66.2000 C   0  0  0  0  0  0
    8.5888   40.3852   67.7157 O   0  0  0  0  0  0
   11.1995   42.3630   66.9022 C   0  0  0  0  0  0
    9.6387   40.2728   66.7595 C   0  0  0  0  0  0
   11.5639   43.8991   65.0336 C   0  0  0  0  0  0
    9.6244   34.5991   72.1954 C   0  0  0  0  0  0
    9.4840   36.6886   73.3801 C   0  0  0  0  0  0
   10.3937   36.2159   74.3251 C   0  0  0  0  0  0
   10.5224   34.1148   73.1401 C   0  0  0  0  0  0
   10.9166   34.9307   74.1978 C   0  0  0  0  0  0
   14.5006   43.7568   65.1506 H   0  0  0  0  0  0
   14.0019   43.0965   63.6293 H   0  0  0  0  0  0
   12.6785   41.3539   64.8073 H   0  0  0  0  0  0
   13.6060   41.5203   66.2604 H   0  0  0  0  0  0
   15.1787   41.0857   63.1273 H   0  0  0  0  0  0
    8.4867   38.8794   71.9415 H   0  0  0  0  0  0
    7.9039   36.0011   68.8320 H   0  0  0  0  0  0
    8.6114   40.6160   70.2656 H   0  0  0  0  0  0
    8.1172   37.7987   67.1330 H   0  0  0  0  0  0
    9.1381   42.3131   66.2557 H   0  0  0  0  0  0
   10.2078   41.6020   65.1400 H   0  0  0  0  0  0
   11.7209   41.6576   67.5400 H   0  0  0  0  0  0
   10.8120   43.1295   67.5752 H   0  0  0  0  0  0
    9.3210   39.6064   65.9563 H   0  0  0  0  0  0
   10.5210   39.8160   67.2030 H   0  0  0  0  0  0
   10.7495   44.4660   65.4822 H   0  0  0  0  0  0
   12.2921   44.6160   64.6549 H   0  0  0  0  0  0
   11.1606   43.3516   64.1825 H   0  0  0  0  0  0
    9.2739   33.9448   71.4129 H   0  0  0  0  0  0
    9.0460   37.6605   73.5290 H   0  0  0  0  0  0
   10.6697   36.8360   75.1658 H   0  0  0  0  0  0
   10.9015   33.1051   73.0650 H   0  0  0  0  0  0
   11.6051   34.5522   74.9402 H   0  0  0  0  0  0
  1  2  1  0  0  0
  1  3  2  0  0  0
  1  8  1  0  0  0
  2  5  1  0  0  0
  2 25  1  0  0  0
  2 26  1  0  0  0
  4  7  1  0  0  0
  4 10  1  0  0  0
  5  6  1  0  0  0
  5 27  1  0  0  0
  5 28  1  0  0  0
  6 17  1  0  0  0
  6 19  1  0  0  0
  7 12  1  0  0  0
  7 11  2  0  0  0
  8 29  1  0  0  0
  9 16  1  0  0  0
  9 13  2  0  0  0
  9 14  1  0  0  0
 10 20  2  0  0  0
 10 21  1  0  0  0
 11 13  1  0  0  0
 11 30  1  0  0  0
 12 14  2  0  0  0
 12 31  1  0  0  0
 13 32  1  0  0  0
 14 33  1  0  0  0
 15 17  1  0  0  0
 15 18  1  0  0  0
 15 34  1  0  0  0
 15 35  1  0  0  0
 16 18  1  0  0  0
 17 36  1  0  0  0
 17 37  1  0  0  0
 18 38  1  0  0  0
 18 39  1  0  0  0
 19 40  1  0  0  0
 19 41  1  0  0  0
 19 42  1  0  0  0
 20 23  1  0  0  0
 20 43  1  0  0  0
 21 22  2  0  0  0
 21 44  1  0  0  0
 22 24  1  0  0  0
 22 45  1  0  0  0
 23 24  2  0  0  0
 23 46  1  0  0  0
 24 47  1  0  0  0
M  END
> <s_m_entry_id>
6974

> <s_m_entry_name>
dock_pv.404

> <s_m_Source_Path>
/home/csk/Desktop/cluster/DUD-E-result/lkha4

> <s_m_Source_File>
dock_pv.maegz

> <i_m_Source_File_Index>
404

> <chembl_id>
CHEMBL117148

> <chembl_pref_name>
None

> <i_lp_mmshare_version>
53161

> <i_f3d_flags>
0

> <r_lp_tautomer_probability>
1

> <s_lp_Force_Field>
OPLS_2005

> <r_lp_Energy>
24.263776

> <b_lp_Chiralities_Consistent>
1

> <s_lp_Variant>
CHEMBL4618_lig148-1

> <s_i_glide_gridfile>
glide-grid_3chp

> <i_i_glide_lignum>
174

> <i_i_glide_rotatable_bonds>
11

> <r_i_docking_score>
-8.23472308925705

> <r_i_glide_ligand_efficiency>
-0.343113462052377

> <r_i_glide_ligand_efficiency_sa>
-0.989710485375005

> <r_i_glide_ligand_efficiency_ln>
-1.97094710207965

> <r_i_glide_gscore>
-8.23472308925705

> <r_i_glide_lipo>
-5.17260541345096

> <r_i_glide_hbond>
-0.304

> <r_i_glide_metal>
0

> <r_i_glide_rewards>
-0.469470930745231

> <r_i_glide_evdw>
-44.9356994628906

> <r_i_glide_ecoul>
-11.1605501174927

> <r_i_glide_erotb>
1.73222074570758

> <r_i_glide_esite>
-0.1

> <r_i_glide_emodel>
-75.3036847902779

> <r_i_glide_energy>
-56.0962495803833

> <r_i_glide_einternal>
17.3426952362061

> <i_i_glide_confnum>
15

> <i_i_glide_posenum>
62

> <r_i_glide_eff_state_penalty>
0

> <s_user_duplicate_titles>
CHEMBL4618_lig148,192661

> <s_m_subgroup_title>
dock_pv

> <s_m_subgroupid>
dock_pv

> <b_m_subgroup_collapsed>
1

$$$$
CHEMBL4618_lig390
                    3D
 Schrodinger Suite 2021-1.
 42 44  0  0  1  0            999 V2000
   14.0583   42.6290   65.5400 N   0  0  0  0  0  0
   15.2392   43.4175   65.8609 C   0  0  0  0  0  0
   16.3600   42.8438   64.9900 C   0  0  0  0  0  0
   15.6137   42.2105   63.8132 C   0  0  0  0  0  0
   14.1412   42.5184   64.0879 C   0  0  0  0  0  0
   12.8110   43.2126   66.0525 C   0  0  0  0  0  0
   11.5779   42.3394   65.7354 C   0  0  0  0  0  0
   10.5170   42.6217   66.6518 O   0  0  0  0  0  0
    9.6967   41.6186   67.1422 C   0  0  0  0  0  0
    8.7783   42.0036   68.1189 C   0  0  0  0  0  0
    7.9948   41.0546   68.7719 C   0  0  0  0  0  0
    8.1302   39.7008   68.4661 C   0  0  0  0  0  0
    8.9641   39.3182   67.4204 C   0  0  0  0  0  0
    9.7428   40.2679   66.7603 C   0  0  0  0  0  0
    7.4416   38.7422   69.1733 O   0  0  0  0  0  0
    8.0978   38.0060   70.1412 C   0  0  0  0  0  0
    8.8758   38.6040   71.1384 C   0  0  0  0  0  0
    9.4690   37.8142   72.1281 C   0  0  0  0  0  0
    9.2913   36.4380   72.1255 C   0  0  0  0  0  0
    8.5210   35.8379   71.1400 C   0  0  0  0  0  0
    7.9252   36.6222   70.1542 C   0  0  0  0  0  0
   10.1208   35.3777   73.4730 Br  0  0  0  0  0  0
   15.4489   43.3510   66.9284 H   0  0  0  0  0  0
   15.0748   44.4773   65.6767 H   0  0  0  0  0  0
   16.9634   42.1189   65.5350 H   0  0  0  0  0  0
   17.0314   43.6335   64.6494 H   0  0  0  0  0  0
   15.9342   42.6161   62.8525 H   0  0  0  0  0  0
   15.7613   41.1344   63.7535 H   0  0  0  0  0  0
   13.7893   43.4171   63.5767 H   0  0  0  0  0  0
   13.4832   41.7190   63.7456 H   0  0  0  0  0  0
   12.8956   43.3274   67.1342 H   0  0  0  0  0  0
   12.6661   44.2135   65.6431 H   0  0  0  0  0  0
   11.2184   42.5974   64.7398 H   0  0  0  0  0  0
   11.8895   41.2959   65.7289 H   0  0  0  0  0  0
    8.6949   43.0447   68.3956 H   0  0  0  0  0  0
    7.3089   41.3719   69.5396 H   0  0  0  0  0  0
    9.0433   38.2751   67.1499 H   0  0  0  0  0  0
   10.3942   39.9116   65.9781 H   0  0  0  0  0  0
    8.9915   39.6765   71.1408 H   0  0  0  0  0  0
   10.0735   38.2160   72.9224 H   0  0  0  0  0  0
    8.3909   34.7668   71.1411 H   0  0  0  0  0  0
    7.3221   36.1531   69.3982 H   0  0  0  0  0  0
  1  2  1  0  0  0
  1  5  1  0  0  0
  1  6  1  0  0  0
  2  3  1  0  0  0
  2 23  1  0  0  0
  2 24  1  0  0  0
  3  4  1  0  0  0
  3 25  1  0  0  0
  3 26  1  0  0  0
  4  5  1  0  0  0
  4 27  1  0  0  0
  4 28  1  0  0  0
  5 29  1  0  0  0
  5 30  1  0  0  0
  6  7  1  0  0  0
  6 31  1  0  0  0
  6 32  1  0  0  0
  7  8  1  0  0  0
  7 33  1  0  0  0
  7 34  1  0  0  0
  8  9  1  0  0  0
  9 10  1  0  0  0
  9 14  2  0  0  0
 10 11  2  0  0  0
 10 35  1  0  0  0
 11 12  1  0  0  0
 11 36  1  0  0  0
 12 13  2  0  0  0
 12 15  1  0  0  0
 13 14  1  0  0  0
 13 37  1  0  0  0
 14 38  1  0  0  0
 15 16  1  0  0  0
 16 17  1  0  0  0
 16 21  2  0  0  0
 17 18  2  0  0  0
 17 39  1  0  0  0
 18 19  1  0  0  0
 18 40  1  0  0  0
 19 20  2  0  0  0
 19 22  1  0  0  0
 20 21  1  0  0  0
 20 41  1  0  0  0
 21 42  1  0  0  0
M  END
> <s_m_entry_id>
6975

> <s_m_entry_name>
dock_pv.405

> <s_m_Source_Path>
/home/csk/Desktop/cluster/DUD-E-result/lkha4

> <s_m_Source_File>
dock_pv.maegz

> <i_m_Source_File_Index>
405

> <chembl_id>
CHEMBL1775104

> <chembl_pref_name>
None

> <i_lp_mmshare_version>
53161

> <i_f3d_flags>
0

> <r_lp_tautomer_probability>
1

> <s_lp_Force_Field>
OPLS_2005

> <r_lp_Energy>
39.034431

> <b_lp_Chiralities_Consistent>
1

> <s_lp_Variant>
CHEMBL4618_lig390-1

> <s_i_glide_gridfile>
glide-grid_3chp

> <i_i_glide_lignum>
451

> <i_i_glide_rotatable_bonds>
6

> <r_i_docking_score>
-8.21748207220974

> <r_i_glide_ligand_efficiency>
-0.37352191237317

> <r_i_glide_ligand_efficiency_sa>
-1.04662308825285

> <r_i_glide_ligand_efficiency_ln>
-2.0086523583895

> <r_i_glide_gscore>
-8.21748207220974

> <r_i_glide_lipo>
-4.74665135952022

> <r_i_glide_hbond>
0

> <r_i_glide_metal>
0

> <r_i_glide_rewards>
-1.49734707353917

> <r_i_glide_evdw>
-47.8239707946777

> <r_i_glide_ecoul>
-2.09204816818237

> <r_i_glide_erotb>
0.731522125810894

> <r_i_glide_esite>
0

> <r_i_glide_emodel>
-72.300934095151

> <r_i_glide_energy>
-49.9160189628601

> <r_i_glide_einternal>
5.68757247924805

> <i_i_glide_confnum>
64

> <i_i_glide_posenum>
25

> <r_i_glide_eff_state_penalty>
0

> <s_user_duplicate_titles>
CHEMBL4618_lig390

> <s_m_subgroup_title>
dock_pv

> <s_m_subgroupid>
dock_pv

> <b_m_subgroup_collapsed>
1

$$$$
CHEMBL4618_lig392
                    3D
 Schrodinger Suite 2021-1.
 44 46  0  0  1  0            999 V2000
   14.8456   42.6255   65.3570 N   0  0  0  0  0  0
   16.0453   43.4156   65.5780 C   0  0  0  0  0  0
   17.1142   42.6469   64.8134 C   0  0  0  0  0  0
   16.3718   42.1950   63.5531 C   0  0  0  0  0  0
   14.8958   42.2557   63.9416 C   0  0  0  0  0  0
   13.6151   43.3400   65.7259 C   0  0  0  0  0  0
   12.4021   42.4178   65.5373 C   0  0  0  0  0  0
   11.1810   43.0088   65.9902 O   0  0  0  0  0  0
   10.2331   42.2164   66.6144 C   0  0  0  0  0  0
    9.1342   42.8656   67.1748 C   0  0  0  0  0  0
    8.2423   42.1783   67.9927 C   0  0  0  0  0  0
    8.4235   40.8188   68.2314 C   0  0  0  0  0  0
    9.4251   40.1332   67.5400 C   0  0  0  0  0  0
   10.3204   40.8236   66.7399 C   0  0  0  0  0  0
    7.5841   40.2150   69.1396 O   0  0  0  0  0  0
    7.9135   38.9989   69.6856 C   0  0  0  0  0  0
    8.5211   38.9092   70.9431 C   0  0  0  0  0  0
    8.8245   37.6615   71.4943 C   0  0  0  0  0  0
    8.5210   36.5076   70.7876 C   0  0  0  0  0  0
    7.9254   36.6100   69.5373 C   0  0  0  0  0  0
    7.6129   37.8386   68.9827 C   0  0  0  0  0  0
    9.4291   37.5340   72.7397 N   0  0  0  0  0  0
   16.2424   43.4800   66.6491 H   0  0  0  0  0  0
   15.9277   44.4423   65.2275 H   0  0  0  0  0  0
   17.4937   41.8163   65.4073 H   0  0  0  0  0  0
   17.9679   43.2864   64.5943 H   0  0  0  0  0  0
   16.5210   42.9033   62.7400 H   0  0  0  0  0  0
   16.6887   41.2159   63.1974 H   0  0  0  0  0  0
   14.3794   42.9921   63.3177 H   0  0  0  0  0  0
   14.3923   41.3031   63.7692 H   0  0  0  0  0  0
   13.6689   43.6481   66.7714 H   0  0  0  0  0  0
   13.5004   44.2461   65.1288 H   0  0  0  0  0  0
   12.2796   42.2162   64.4770 H   0  0  0  0  0  0
   12.6590   41.4863   66.0380 H   0  0  0  0  0  0
    8.9989   43.9227   67.0215 H   0  0  0  0  0  0
    7.4281   42.7028   68.4706 H   0  0  0  0  0  0
    9.5569   39.0680   67.6508 H   0  0  0  0  0  0
   11.0777   40.2382   66.2447 H   0  0  0  0  0  0
    8.7212   39.8160   71.4878 H   0  0  0  0  0  0
    8.7476   35.5307   71.1881 H   0  0  0  0  0  0
    7.7210   35.7179   68.9757 H   0  0  0  0  0  0
    7.1464   37.8950   68.0088 H   0  0  0  0  0  0
    9.4869   36.6047   73.1282 H   0  0  0  0  0  0
    9.3477   38.3119   73.3823 H   0  0  0  0  0  0
  1  2  1  0  0  0
  1  5  1  0  0  0
  1  6  1  0  0  0
  2  3  1  0  0  0
  2 23  1  0  0  0
  2 24  1  0  0  0
  3  4  1  0  0  0
  3 25  1  0  0  0
  3 26  1  0  0  0
  4  5  1  0  0  0
  4 27  1  0  0  0
  4 28  1  0  0  0
  5 29  1  0  0  0
  5 30  1  0  0  0
  6  7  1  0  0  0
  6 31  1  0  0  0
  6 32  1  0  0  0
  7  8  1  0  0  0
  7 33  1  0  0  0
  7 34  1  0  0  0
  8  9  1  0  0  0
  9 10  1  0  0  0
  9 14  2  0  0  0
 10 11  2  0  0  0
 10 35  1  0  0  0
 11 12  1  0  0  0
 11 36  1  0  0  0
 12 13  2  0  0  0
 12 15  1  0  0  0
 13 14  1  0  0  0
 13 37  1  0  0  0
 14 38  1  0  0  0
 15 16  1  0  0  0
 16 17  1  0  0  0
 16 21  2  0  0  0
 17 18  2  0  0  0
 17 39  1  0  0  0
 18 19  1  0  0  0
 18 22  1  0  0  0
 19 20  2  0  0  0
 19 40  1  0  0  0
 20 21  1  0  0  0
 20 41  1  0  0  0
 21 42  1  0  0  0
 22 43  1  0  0  0
 22 44  1  0  0  0
M  END
> <s_m_entry_id>
6976

> <s_m_entry_name>
dock_pv.406

> <s_m_Source_Path>
/home/csk/Desktop/cluster/DUD-E-result/lkha4

> <s_m_Source_File>
dock_pv.maegz

> <i_m_Source_File_Index>
406

> <chembl_id>
CHEMBL1775106

> <chembl_pref_name>
None

> <i_lp_mmshare_version>
53161

> <i_f3d_flags>
0

> <r_lp_tautomer_probability>
1

> <s_lp_Force_Field>
OPLS_2005

> <r_lp_Energy>
41.134205

> <b_lp_Chiralities_Consistent>
1

> <s_lp_Variant>
CHEMBL4618_lig392-1

> <s_i_glide_gridfile>
glide-grid_3chp

> <i_i_glide_lignum>
453

> <i_i_glide_rotatable_bonds>
6

> <r_i_docking_score>
-8.20805907604344

> <r_i_glide_ligand_efficiency>
-0.373093594365611

> <r_i_glide_ligand_efficiency_sa>
-1.04542292435088

> <r_i_glide_ligand_efficiency_ln>
-2.00634903441432

> <r_i_glide_gscore>
-8.20805907604344

> <r_i_glide_lipo>
-4.26520205025291

> <r_i_glide_hbond>
-0.343454696069443

> <r_i_glide_metal>
0

> <r_i_glide_rewards>
-1.67428491194478

> <r_i_glide_evdw>
-41.7956390380859

> <r_i_glide_ecoul>
-5.77258729934692

> <r_i_glide_erotb>
1.03055262903003

> <r_i_glide_esite>
0

> <r_i_glide_emodel>
-64.0546819598565

> <r_i_glide_energy>
-47.5682263374329

> <r_i_glide_einternal>
6.88485670089722

> <i_i_glide_confnum>
18

> <i_i_glide_posenum>
159

> <r_i_glide_eff_state_penalty>
0

> <s_user_duplicate_titles>
CHEMBL4618_lig392

> <s_m_subgroup_title>
dock_pv

> <s_m_subgroupid>
dock_pv

> <b_m_subgroup_collapsed>
1

$$$$
CHEMBL4618_lig247
                    3D
 Schrodinger Suite 2021-1.
 65 67  0  0  1  0            999 V2000
    8.8118   40.7621   67.6896 C   0  0  0  0  0  0
    8.9431   42.1469   67.7249 C   0  0  0  0  0  0
   10.0346   42.7498   67.1022 C   0  0  0  0  0  0
   11.0103   41.9973   66.4476 C   0  0  0  0  0  0
   10.8123   40.6163   66.3401 C   0  0  0  0  0  0
    9.7208   40.0076   66.9517 C   0  0  0  0  0  0
   12.1568   42.6897   65.9819 N   0  0  0  0  0  0
   13.2982   42.1997   65.4412 C   0  0  0  0  0  0
   14.4448   43.2208   65.2318 C   0  0  0  0  0  0
   13.4618   41.0169   65.1450 O   0  0  0  0  0  0
   15.7791   42.5915   65.1197 N   0  0  1  0  0  0
    7.7645   40.1708   68.3544 O   0  0  0  0  0  0
    8.0115   39.0685   69.1397 C   0  0  0  0  0  0
    7.7189   37.7912   68.6751 C   0  0  0  0  0  0
    7.9269   36.6935   69.5074 C   0  0  0  0  0  0
    8.4091   36.8661   70.8000 C   0  0  0  0  0  0
    8.7150   38.1393   71.2657 C   0  0  0  0  0  0
    8.5223   39.2291   70.4235 C   0  0  0  0  0  0
   16.0057   42.0663   63.7673 C   0  0  0  0  0  0
   16.9087   43.4815   65.4243 C   0  0  0  0  0  0
   16.8821   44.0346   66.8573 C   0  0  0  0  0  0
   18.2632   44.5085   67.3726 C   0  0  0  0  0  0
   18.3175   44.8361   68.8020 N   0  0  2  0  0  0
   17.9800   43.6665   69.6324 C   0  0  0  0  0  0
   17.4727   45.9904   69.1085 C   0  0  0  0  0  0
   18.3149   43.8261   71.1074 C   0  0  0  0  0  0
   17.4181   44.4602   71.9696 C   0  0  0  0  0  0
   17.7268   44.5970   73.3176 C   0  0  0  0  0  0
   18.9174   44.0588   73.8211 C   0  0  0  0  0  0
   19.8045   43.4064   72.9536 C   0  0  0  0  0  0
   19.5056   43.2958   71.6023 C   0  0  0  0  0  0
   19.2586   44.2157   75.2791 C   0  0  0  0  0  0
   20.1207   43.2769   75.7520 O   0  0  0  0  0  0
   18.8041   45.1188   75.9769 O   0  0  0  0  0  0
    8.2119   42.7458   68.2457 H   0  0  0  0  0  0
   10.1278   43.8159   67.1415 H   0  0  0  0  0  0
   11.4900   39.9779   65.7999 H   0  0  0  0  0  0
    9.5995   38.9382   66.8703 H   0  0  0  0  0  0
   12.1418   43.6825   66.1559 H   0  0  0  0  0  0
   14.1980   43.8196   64.3537 H   0  0  0  0  0  0
   14.4055   43.9115   66.0740 H   0  0  0  0  0  0
    7.3284   37.6565   67.6770 H   0  0  0  0  0  0
    7.7204   35.7043   69.1410 H   0  0  0  0  0  0
    8.5559   36.0072   71.4376 H   0  0  0  0  0  0
    9.0905   38.2751   72.2692 H   0  0  0  0  0  0
    8.7336   40.2157   70.7736 H   0  0  0  0  0  0
   17.0129   41.6643   63.6491 H   0  0  0  0  0  0
   15.3091   41.2621   63.5403 H   0  0  0  0  0  0
   15.8809   42.8343   63.0018 H   0  0  0  0  0  0
   17.8557   42.9649   65.2608 H   0  0  0  0  0  0
   16.9226   44.3259   64.7399 H   0  0  0  0  0  0
   16.2877   44.9447   66.7869 H   0  0  0  0  0  0
   16.3117   43.4124   67.5386 H   0  0  0  0  0  0
   19.0292   43.7711   67.1301 H   0  0  0  0  0  0
   18.5683   45.3916   66.8090 H   0  0  0  0  0  0
   16.9225   43.4203   69.5531 H   0  0  0  0  0  0
   18.5145   42.7907   69.2574 H   0  0  0  0  0  0
   17.6659   46.3457   70.1187 H   0  0  0  0  0  0
   17.6805   46.8222   68.4368 H   0  0  0  0  0  0
   16.4096   45.7474   69.0335 H   0  0  0  0  0  0
   16.4861   44.8555   71.5929 H   0  0  0  0  0  0
   17.0280   45.1035   73.9691 H   0  0  0  0  0  0
   20.7304   42.9827   73.3176 H   0  0  0  0  0  0
   20.1967   42.7926   70.9420 H   0  0  0  0  0  0
   20.4689   43.5394   76.6087 H   0  0  0  0  0  0
  1 12  1  0  0  0
  1  6  1  0  0  0
  1  2  2  0  0  0
  2  3  1  0  0  0
  2 35  1  0  0  0
  3  4  2  0  0  0
  3 36  1  0  0  0
  4  5  1  0  0  0
  4  7  1  0  0  0
  5  6  2  0  0  0
  5 37  1  0  0  0
  6 38  1  0  0  0
  7  8  1  0  0  0
  7 39  1  0  0  0
  8  9  1  0  0  0
  8 10  2  0  0  0
  9 11  1  0  0  0
  9 40  1  0  0  0
  9 41  1  0  0  0
 11 19  1  0  0  0
 11 20  1  0  0  0
 12 13  1  0  0  0
 13 18  1  0  0  0
 13 14  2  0  0  0
 14 15  1  0  0  0
 14 42  1  0  0  0
 15 16  2  0  0  0
 15 43  1  0  0  0
 16 17  1  0  0  0
 16 44  1  0  0  0
 17 18  2  0  0  0
 17 45  1  0  0  0
 18 46  1  0  0  0
 19 47  1  0  0  0
 19 48  1  0  0  0
 19 49  1  0  0  0
 20 21  1  0  0  0
 20 50  1  0  0  0
 20 51  1  0  0  0
 21 22  1  0  0  0
 21 52  1  0  0  0
 21 53  1  0  0  0
 22 23  1  0  0  0
 22 54  1  0  0  0
 22 55  1  0  0  0
 23 24  1  0  0  0
 23 25  1  0  0  0
 24 26  1  0  0  0
 24 56  1  0  0  0
 24 57  1  0  0  0
 25 58  1  0  0  0
 25 59  1  0  0  0
 25 60  1  0  0  0
 26 27  2  0  0  0
 26 31  1  0  0  0
 27 28  1  0  0  0
 27 61  1  0  0  0
 28 29  2  0  0  0
 28 62  1  0  0  0
 29 30  1  0  0  0
 29 32  1  0  0  0
 30 31  2  0  0  0
 30 63  1  0  0  0
 31 64  1  0  0  0
 32 33  1  0  0  0
 32 34  2  0  0  0
 33 65  1  0  0  0
M  END
> <s_m_entry_id>
6977

> <s_m_entry_name>
dock_pv.407

> <s_m_Source_Path>
/home/csk/Desktop/cluster/DUD-E-result/lkha4

> <s_m_Source_File>
dock_pv.maegz

> <i_m_Source_File_Index>
407

> <chembl_id>
CHEMBL481674

> <chembl_pref_name>
None

> <i_lp_mmshare_version>
53161

> <i_f3d_flags>
0

> <r_lp_tautomer_probability>
1

> <s_lp_Force_Field>
OPLS_2005

> <r_lp_Energy>
41.643322

> <b_lp_Chiralities_Consistent>
1

> <s_lp_Variant>
CHEMBL4618_lig247-1

> <s_i_glide_gridfile>
glide-grid_3chp

> <i_i_glide_lignum>
283

> <i_i_glide_rotatable_bonds>
14

> <r_i_docking_score>
-8.19137803124794

> <r_i_glide_ligand_efficiency>
-0.240922883271998

> <r_i_glide_ligand_efficiency_sa>
-0.780496614928326

> <r_i_glide_ligand_efficiency_ln>
-1.80970516747394

> <r_i_glide_gscore>
-8.19137803124794

> <r_i_glide_lipo>
-4.48402910368436

> <r_i_glide_hbond>
-0.14228993503857

> <r_i_glide_metal>
0

> <r_i_glide_rewards>
-0.760730619927341

> <r_i_glide_evdw>
-56.2379188537598

> <r_i_glide_ecoul>
-8.03622913360596

> <r_i_glide_erotb>
1.22884626137826

> <r_i_glide_esite>
-0.0158443212470549

> <r_i_glide_emodel>
-90.0106653852848

> <r_i_glide_energy>
-64.2741479873657

> <r_i_glide_einternal>
12.2450580596924

> <i_i_glide_confnum>
25

> <i_i_glide_posenum>
125

> <r_i_glide_eff_state_penalty>
0

> <s_user_duplicate_titles>
CHEMBL4618_lig247,466861

> <s_m_subgroup_title>
dock_pv

> <s_m_subgroupid>
dock_pv

> <b_m_subgroup_collapsed>
1

$$$$
CHEMBL4618_lig379
                    3D
 Schrodinger Suite 2021-1.
 44 46  0  0  1  0            999 V2000
   11.0735   42.9176   66.1351 N   0  0  0  0  0  0
   11.6566   41.5846   66.1862 C   0  0  0  0  0  0
   13.1284   41.7907   65.8341 C   0  0  0  0  0  0
   13.1383   43.0234   64.9268 C   0  0  0  0  0  0
   11.6966   43.5353   64.9748 C   0  0  0  0  0  0
    9.6069   42.9859   66.0967 C   0  0  0  0  0  0
    8.9156   42.2039   67.2299 C   0  0  0  0  0  0
    8.8273   40.8215   66.8663 O   0  0  0  0  0  0
    8.5372   39.8727   67.8265 C   0  0  0  0  0  0
    8.3454   40.1700   69.1736 C   0  0  0  0  0  0
    8.1250   39.1491   70.0877 C   0  0  0  0  0  0
    8.0442   37.8202   69.6998 C   0  0  0  0  0  0
    8.1496   37.5307   68.3401 C   0  0  0  0  0  0
    8.4291   38.5439   67.4171 C   0  0  0  0  0  0
    7.7775   36.8216   70.6198 O   0  0  0  0  0  0
    8.6714   36.5079   71.6330 C   0  0  0  0  0  0
    9.0456   35.1736   71.7932 C   0  0  0  0  0  0
   10.0113   34.7902   72.7384 C   0  0  0  0  0  0
   10.5202   35.7462   73.6215 C   0  0  0  0  0  0
   10.1209   37.0643   73.5090 C   0  0  0  0  0  0
    9.2026   37.4406   72.5323 C   0  0  0  0  0  0
   10.5213   33.4110   72.7960 N   0  3  0  0  0  0
   10.1752   32.6128   71.9295 O   0  5  0  0  0  0
   11.3145   33.1517   73.6936 O   0  0  0  0  0  0
   11.1505   40.8707   65.5398 H   0  0  0  0  0  0
   11.5237   41.1844   67.1891 H   0  0  0  0  0  0
   13.5442   40.9088   65.3451 H   0  0  0  0  0  0
   13.7105   41.9641   66.7388 H   0  0  0  0  0  0
   13.8397   43.7753   65.2903 H   0  0  0  0  0  0
   13.4257   42.7626   63.9066 H   0  0  0  0  0  0
   11.6583   44.6157   65.0966 H   0  0  0  0  0  0
   11.1622   43.3258   64.0478 H   0  0  0  0  0  0
    9.3046   44.0313   66.1593 H   0  0  0  0  0  0
    9.2403   42.6172   65.1411 H   0  0  0  0  0  0
    9.4803   42.3602   68.1503 H   0  0  0  0  0  0
    7.9078   42.5918   67.3923 H   0  0  0  0  0  0
    8.3577   41.1820   69.5395 H   0  0  0  0  0  0
    7.9682   39.4159   71.1111 H   0  0  0  0  0  0
    8.0627   36.5181   67.9839 H   0  0  0  0  0  0
    8.5549   38.3009   66.3715 H   0  0  0  0  0  0
    8.6100   34.4356   71.1401 H   0  0  0  0  0  0
   11.2451   35.4825   74.3796 H   0  0  0  0  0  0
   10.5257   37.8143   74.1718 H   0  0  0  0  0  0
    8.9210   38.4750   72.5288 H   0  0  0  0  0  0
  1  5  1  0  0  0
  1  6  1  0  0  0
  1  2  1  0  0  0
  2  3  1  0  0  0
  2 25  1  0  0  0
  2 26  1  0  0  0
  3  4  1  0  0  0
  3 27  1  0  0  0
  3 28  1  0  0  0
  4  5  1  0  0  0
  4 29  1  0  0  0
  4 30  1  0  0  0
  5 31  1  0  0  0
  5 32  1  0  0  0
  6  7  1  0  0  0
  6 33  1  0  0  0
  6 34  1  0  0  0
  7  8  1  0  0  0
  7 35  1  0  0  0
  7 36  1  0  0  0
  8  9  1  0  0  0
  9 10  1  0  0  0
  9 14  2  0  0  0
 10 11  2  0  0  0
 10 37  1  0  0  0
 11 12  1  0  0  0
 11 38  1  0  0  0
 12 13  2  0  0  0
 12 15  1  0  0  0
 13 14  1  0  0  0
 13 39  1  0  0  0
 14 40  1  0  0  0
 15 16  1  0  0  0
 16 17  1  0  0  0
 16 21  2  0  0  0
 17 18  2  0  0  0
 17 41  1  0  0  0
 18 19  1  0  0  0
 18 22  1  0  0  0
 19 20  2  0  0  0
 19 42  1  0  0  0
 20 21  1  0  0  0
 20 43  1  0  0  0
 21 44  1  0  0  0
 22 23  1  0  0  0
 22 24  2  0  0  0
M  CHG  2  22   1  23  -1
M  END
> <s_m_entry_id>
6978

> <s_m_entry_name>
dock_pv.408

> <s_m_Source_Path>
/home/csk/Desktop/cluster/DUD-E-result/lkha4

> <s_m_Source_File>
dock_pv.maegz

> <i_m_Source_File_Index>
408

> <chembl_id>
CHEMBL1775088

> <chembl_pref_name>
None

> <i_lp_mmshare_version>
53161

> <i_f3d_flags>
0

> <r_lp_tautomer_probability>
1

> <s_lp_Force_Field>
OPLS_2005

> <r_lp_Energy>
41.859249

> <b_lp_Chiralities_Consistent>
1

> <s_lp_Variant>
CHEMBL4618_lig379-1

> <s_i_glide_gridfile>
glide-grid_3chp

> <i_i_glide_lignum>
440

> <i_i_glide_rotatable_bonds>
7

> <r_i_docking_score>
-8.1863733719156

> <r_i_glide_ligand_efficiency>
-0.341098890496483

> <r_i_glide_ligand_efficiency_sa>
-0.983899455459479

> <r_i_glide_ligand_efficiency_ln>
-1.95937479609588

> <r_i_glide_gscore>
-8.1863733719156

> <r_i_glide_lipo>
-5.36713104028962

> <r_i_glide_hbond>
0

> <r_i_glide_metal>
0

> <r_i_glide_rewards>
-1.44525534611943

> <r_i_glide_evdw>
-43.3025093078613

> <r_i_glide_ecoul>
-0.237816870212555

> <r_i_glide_erotb>
0.870906083662678

> <r_i_glide_esite>
-0.0440950732442795

> <r_i_glide_emodel>
-60.15226254809

> <r_i_glide_energy>
-43.5403261780739

> <r_i_glide_einternal>
8.10779476165771

> <i_i_glide_confnum>
102

> <i_i_glide_posenum>
301

> <r_i_glide_eff_state_penalty>
0

> <s_user_duplicate_titles>
CHEMBL4618_lig379

> <s_m_subgroup_title>
dock_pv

> <s_m_subgroupid>
dock_pv

> <b_m_subgroup_collapsed>
1

$$$$
CHEMBL4618_lig410
                    3D
 Schrodinger Suite 2021-1.
 46 49  0  0  1  0            999 V2000
    9.7277   35.0380   73.0800 C   0  0  0  0  0  0
    8.9259   35.0371   71.9398 C   0  0  0  0  0  0
   10.0162   37.4502   72.9621 N   0  0  0  0  0  0
   10.2224   36.2479   73.5601 C   0  0  0  0  0  0
    9.2367   37.4656   71.8762 C   0  0  0  0  0  0
    8.6694   36.2785   71.3407 C   0  0  0  0  0  0
    7.7210   36.6899   69.9324 S   0  0  0  0  0  0
    8.1461   38.3494   70.1907 C   0  0  0  0  0  0
    8.9268   38.6139   71.2014 N   0  0  0  0  0  0
    7.5279   39.2495   69.3638 O   0  0  0  0  0  0
    8.2861   40.1034   68.6100 C   0  0  0  0  0  0
    8.0894   41.4740   68.7401 C   0  0  0  0  0  0
    8.8420   42.3570   67.9736 C   0  0  0  0  0  0
    9.7931   41.8893   67.0670 C   0  0  0  0  0  0
    9.9295   40.5036   66.8906 C   0  0  0  0  0  0
    9.1834   39.6184   67.6607 C   0  0  0  0  0  0
   10.5421   42.8544   66.4180 O   0  0  0  0  0  0
   11.6153   42.4936   65.5440 C   0  0  0  0  0  0
   12.8052   43.4460   65.7621 C   0  0  0  0  0  0
   14.1259   42.8195   65.6063 N   0  0  0  0  0  0
   14.3307   42.1442   64.3158 C   0  0  0  0  0  0
   15.6704   41.3895   64.3404 C   0  0  0  0  0  0
   16.8443   42.3444   64.5883 C   0  0  0  0  0  0
   16.5969   43.1833   65.8494 C   0  0  0  0  0  0
   15.1840   43.8062   65.8675 C   0  0  0  0  0  0
    9.9480   34.1137   73.5910 H   0  0  0  0  0  0
    8.5183   34.1202   71.5403 H   0  0  0  0  0  0
   10.8339   36.2683   74.4503 H   0  0  0  0  0  0
    7.3597   41.8507   69.4435 H   0  0  0  0  0  0
    8.6938   43.4162   68.0952 H   0  0  0  0  0  0
   10.6017   40.0678   66.1703 H   0  0  0  0  0  0
    9.3073   38.5526   67.5235 H   0  0  0  0  0  0
   11.2530   42.6175   64.5277 H   0  0  0  0  0  0
   11.9639   41.4718   65.6658 H   0  0  0  0  0  0
   12.7377   43.8163   66.7820 H   0  0  0  0  0  0
   12.7132   44.3068   65.0965 H   0  0  0  0  0  0
   14.2838   42.8719   63.5025 H   0  0  0  0  0  0
   13.5414   41.4184   64.1232 H   0  0  0  0  0  0
   15.8095   40.8840   63.3870 H   0  0  0  0  0  0
   15.6109   40.6198   65.1080 H   0  0  0  0  0  0
   17.7950   41.8167   64.6516 H   0  0  0  0  0  0
   16.9206   43.0161   63.7325 H   0  0  0  0  0  0
   16.7798   42.6166   66.7626 H   0  0  0  0  0  0
   17.3321   43.9879   65.8817 H   0  0  0  0  0  0
   15.1075   44.6159   65.1405 H   0  0  0  0  0  0
   15.0130   44.2363   66.8554 H   0  0  0  0  0  0
  1  2  2  0  0  0
  1  4  1  0  0  0
  1 26  1  0  0  0
  2  6  1  0  0  0
  2 27  1  0  0  0
  3  5  1  0  0  0
  3  4  2  0  0  0
  4 28  1  0  0  0
  5  6  2  0  0  0
  5  9  1  0  0  0
  6  7  1  0  0  0
  7  8  1  0  0  0
  8  9  2  0  0  0
  8 10  1  0  0  0
 10 11  1  0  0  0
 11 12  2  0  0  0
 11 16  1  0  0  0
 12 13  1  0  0  0
 12 29  1  0  0  0
 13 14  2  0  0  0
 13 30  1  0  0  0
 14 15  1  0  0  0
 14 17  1  0  0  0
 15 16  2  0  0  0
 15 31  1  0  0  0
 16 32  1  0  0  0
 17 18  1  0  0  0
 18 19  1  0  0  0
 18 33  1  0  0  0
 18 34  1  0  0  0
 19 20  1  0  0  0
 19 35  1  0  0  0
 19 36  1  0  0  0
 20 21  1  0  0  0
 20 25  1  0  0  0
 21 22  1  0  0  0
 21 37  1  0  0  0
 21 38  1  0  0  0
 22 23  1  0  0  0
 22 39  1  0  0  0
 22 40  1  0  0  0
 23 24  1  0  0  0
 23 41  1  0  0  0
 23 42  1  0  0  0
 24 25  1  0  0  0
 24 43  1  0  0  0
 24 44  1  0  0  0
 25 45  1  0  0  0
 25 46  1  0  0  0
M  END
> <s_m_entry_id>
6979

> <s_m_entry_name>
dock_pv.409

> <s_m_Source_Path>
/home/csk/Desktop/cluster/DUD-E-result/lkha4

> <s_m_Source_File>
dock_pv.maegz

> <i_m_Source_File_Index>
409

> <chembl_id>
CHEMBL2207736

> <chembl_pref_name>
None

> <i_lp_mmshare_version>
53161

> <i_f3d_flags>
0

> <r_lp_tautomer_probability>
1

> <s_lp_Force_Field>
OPLS_2005

> <r_lp_Energy>
30.426213

> <b_lp_Chiralities_Consistent>
1

> <s_lp_Variant>
CHEMBL4618_lig410-1

> <s_i_glide_gridfile>
glide-grid_3chp

> <i_i_glide_lignum>
477

> <i_i_glide_rotatable_bonds>
6

> <r_i_docking_score>
-8.16966556901657

> <r_i_glide_ligand_efficiency>
-0.326786622760663

> <r_i_glide_ligand_efficiency_sa>
-0.95552988053761

> <r_i_glide_ligand_efficiency_ln>
-1.93645556497785

> <r_i_glide_gscore>
-8.16966556901657

> <r_i_glide_lipo>
-4.48803756044856

> <r_i_glide_hbond>
0

> <r_i_glide_metal>
0

> <r_i_glide_rewards>
-1.51878532904616

> <r_i_glide_evdw>
-50.0948638916016

> <r_i_glide_ecoul>
-2.7651252746582

> <r_i_glide_erotb>
0.75666930625696

> <r_i_glide_esite>
0

> <r_i_glide_emodel>
-71.3230324073842

> <r_i_glide_energy>
-52.8599891662598

> <r_i_glide_einternal>
12.0968170166016

> <i_i_glide_confnum>
39

> <i_i_glide_posenum>
330

> <r_i_glide_eff_state_penalty>
0

> <s_user_duplicate_titles>
CHEMBL4618_lig410

> <s_m_subgroup_title>
dock_pv

> <s_m_subgroupid>
dock_pv

> <b_m_subgroup_collapsed>
1

$$$$
CHEMBL4618_lig77
                    3D
 Schrodinger Suite 2021-1.
 43 45  0  0  1  0            999 V2000
   11.2479   41.2901   66.7399 N   0  0  0  0  0  0
   16.9208   42.3585   65.3693 N   0  0  0  0  0  0
   10.2944   42.2437   66.5957 C   0  0  0  0  0  0
   12.4131   41.4235   66.0670 C   0  0  0  0  0  0
    8.9853   42.0518   67.3689 C   0  0  0  0  0  0
   12.7095   42.5255   65.2558 C   0  0  0  0  0  0
   10.4973   43.3685   65.7929 C   0  0  0  0  0  0
   11.7265   43.5093   65.1396 C   0  0  0  0  0  0
    8.6377   40.6379   67.8545 C   0  0  0  0  0  0
   13.8900   42.7060   64.5670 O   0  0  0  0  0  0
   16.1996   42.1188   64.1080 C   0  0  0  0  0  0
   14.7722   41.5992   64.3678 C   0  0  0  0  0  0
   18.2320   42.9563   65.1407 C   0  0  0  0  0  0
   16.3048   43.3934   66.2023 C   0  0  0  0  0  0
    8.1209   40.4468   69.1392 C   0  0  0  0  0  0
    8.8388   39.5276   67.0290 C   0  0  0  0  0  0
   17.3717   43.7756   67.2277 C   0  0  0  0  0  0
   18.6844   43.4744   66.5053 C   0  0  0  0  0  0
    7.8162   39.1617   69.5862 C   0  0  0  0  0  0
    8.5210   38.2541   67.4783 C   0  0  0  0  0  0
    8.0129   38.0673   68.7553 C   0  0  0  0  0  0
   13.1044   40.6166   66.2334 H   0  0  0  0  0  0
    9.0138   42.7339   68.2204 H   0  0  0  0  0  0
    8.1574   42.3914   66.7440 H   0  0  0  0  0  0
    9.7324   44.1262   65.7058 H   0  0  0  0  0  0
   11.9263   44.3815   64.5376 H   0  0  0  0  0  0
   16.1517   43.0160   63.4986 H   0  0  0  0  0  0
   16.7527   41.4130   63.4899 H   0  0  0  0  0  0
   14.4011   41.0021   63.5400 H   0  0  0  0  0  0
   14.8268   40.9266   65.2171 H   0  0  0  0  0  0
   18.1868   43.7535   64.3947 H   0  0  0  0  0  0
   18.9194   42.2162   64.7382 H   0  0  0  0  0  0
   15.3993   43.0163   66.6769 H   0  0  0  0  0  0
   15.9664   44.2441   65.6067 H   0  0  0  0  0  0
    7.9465   41.2914   69.7892 H   0  0  0  0  0  0
    9.2605   39.6358   66.0410 H   0  0  0  0  0  0
   17.2691   43.1875   68.1410 H   0  0  0  0  0  0
   17.2858   44.8262   67.5051 H   0  0  0  0  0  0
   19.3077   44.3619   66.3955 H   0  0  0  0  0  0
   19.2750   42.7224   67.0299 H   0  0  0  0  0  0
    7.4200   39.0161   70.5803 H   0  0  0  0  0  0
    8.7107   37.4160   66.8325 H   0  0  0  0  0  0
    7.7810   37.0714   69.1042 H   0  0  0  0  0  0
  1  3  1  0  0  0
  1  4  2  0  0  0
  2 11  1  0  0  0
  2 13  1  0  0  0
  2 14  1  0  0  0
  3  5  1  0  0  0
  3  7  2  0  0  0
  4  6  1  0  0  0
  4 22  1  0  0  0
  5  9  1  0  0  0
  5 23  1  0  0  0
  5 24  1  0  0  0
  6  8  2  0  0  0
  6 10  1  0  0  0
  7  8  1  0  0  0
  7 25  1  0  0  0
  8 26  1  0  0  0
  9 15  2  0  0  0
  9 16  1  0  0  0
 10 12  1  0  0  0
 11 12  1  0  0  0
 11 27  1  0  0  0
 11 28  1  0  0  0
 12 29  1  0  0  0
 12 30  1  0  0  0
 13 18  1  0  0  0
 13 31  1  0  0  0
 13 32  1  0  0  0
 14 17  1  0  0  0
 14 33  1  0  0  0
 14 34  1  0  0  0
 15 19  1  0  0  0
 15 35  1  0  0  0
 16 20  2  0  0  0
 16 36  1  0  0  0
 17 18  1  0  0  0
 17 37  1  0  0  0
 17 38  1  0  0  0
 18 39  1  0  0  0
 18 40  1  0  0  0
 19 21  2  0  0  0
 19 41  1  0  0  0
 20 21  1  0  0  0
 20 42  1  0  0  0
 21 43  1  0  0  0
M  END
> <s_m_entry_id>
6980

> <s_m_entry_name>
dock_pv.410

> <s_m_Source_Path>
/home/csk/Desktop/cluster/DUD-E-result/lkha4

> <s_m_Source_File>
dock_pv.maegz

> <i_m_Source_File_Index>
410

> <chembl_id>
CHEMBL163872

> <chembl_pref_name>
None

> <i_lp_mmshare_version>
53161

> <i_f3d_flags>
0

> <r_lp_tautomer_probability>
1

> <s_lp_Force_Field>
OPLS_2005

> <r_lp_Energy>
36.194955

> <b_lp_Chiralities_Consistent>
1

> <s_lp_Variant>
CHEMBL4618_lig77-1

> <s_i_glide_gridfile>
glide-grid_3chp

> <i_i_glide_lignum>
98

> <i_i_glide_rotatable_bonds>
6

> <r_i_docking_score>
-8.16865528503122

> <r_i_glide_ligand_efficiency>
-0.388983585001487

> <r_i_glide_ligand_efficiency_sa>
-1.0731762157869

> <r_i_glide_ligand_efficiency_ln>
-2.01968351290176

> <r_i_glide_gscore>
-8.16865528503122

> <r_i_glide_lipo>
-3.81609193643261

> <r_i_glide_hbond>
-0.255089893739457

> <r_i_glide_metal>
0

> <r_i_glide_rewards>
-2.3185567096241

> <r_i_glide_evdw>
-40.2412109375

> <r_i_glide_ecoul>
-6.00908088684082

> <r_i_glide_erotb>
1.13450593466607

> <r_i_glide_esite>
0

> <r_i_glide_emodel>
-68.0066256542997

> <r_i_glide_energy>
-46.2502918243408

> <r_i_glide_einternal>
4.32241153717041

> <i_i_glide_confnum>
11

> <i_i_glide_posenum>
103

> <r_i_glide_eff_state_penalty>
0

> <s_user_duplicate_titles>
CHEMBL4618_lig77

> <s_m_subgroup_title>
dock_pv

> <s_m_subgroupid>
dock_pv

> <b_m_subgroup_collapsed>
1

$$$$
CHEMBL4618_lig17
                    3D
 Schrodinger Suite 2021-1.
 57 60  0  0  1  0            999 V2000
   17.1123   42.3486   65.5210 N   0  0  1  0  0  0
   18.5168   42.7194   65.2360 C   0  0  1  0  0  0
   17.8754   44.3836   66.5037 C   0  0  2  0  0  0
   18.9107   43.6890   67.4265 C   0  0  2  0  0  0
   16.6183   43.5183   66.2756 C   0  0  0  0  0  0
   18.5068   44.2377   65.1392 C   0  0  0  0  0  0
   19.3873   42.5421   66.5030 C   0  0  0  0  0  0
   17.9705   44.3950   69.7309 C   0  0  0  0  0  0
   18.4059   43.2400   68.8245 C   0  0  0  0  0  0
   18.5366   44.6117   70.8032 O   0  0  0  0  0  0
   10.2162   42.1700   66.3708 C   0  0  0  0  0  0
   16.3723   42.1705   64.2542 C   0  0  0  0  0  0
    8.7982   41.9477   66.9186 C   0  0  0  0  0  0
   12.8108   42.5835   65.3506 C   0  0  0  0  0  0
   16.9606   45.1151   69.2126 O   0  0  0  0  0  0
   10.5338   43.3567   65.7063 C   0  0  0  0  0  0
   11.2053   41.2012   66.5223 C   0  0  0  0  0  0
   12.4818   41.3999   66.0146 C   0  0  0  0  0  0
   11.8249   43.5610   65.2103 C   0  0  0  0  0  0
    8.5322   40.6351   67.6709 C   0  0  0  0  0  0
   14.0667   42.8476   64.8384 O   0  0  0  0  0  0
   14.9034   41.7467   64.4605 C   0  0  0  0  0  0
   16.4943   46.2844   69.8543 C   0  0  0  0  0  0
    8.3166   40.6384   69.0501 C   0  0  0  0  0  0
    8.5761   39.4146   66.9942 C   0  0  0  0  0  0
    8.2149   39.4321   69.7448 C   0  0  0  0  0  0
    8.4423   38.2167   67.6828 C   0  0  0  0  0  0
    8.2642   38.2246   69.0598 C   0  0  0  0  0  0
   18.9272   42.2160   64.3610 H   0  0  0  0  0  0
   17.6534   45.4141   66.7771 H   0  0  0  0  0  0
   19.7499   44.3720   67.5802 H   0  0  0  0  0  0
   16.1838   43.2340   67.2302 H   0  0  0  0  0  0
   15.8957   44.1163   65.7198 H   0  0  0  0  0  0
   17.8880   44.6143   64.3315 H   0  0  0  0  0  0
   19.4984   44.6852   65.0472 H   0  0  0  0  0  0
   20.4400   42.6796   66.2461 H   0  0  0  0  0  0
   19.3233   41.5539   66.9399 H   0  0  0  0  0  0
   19.1894   42.6797   69.3344 H   0  0  0  0  0  0
   17.5687   42.5500   68.7329 H   0  0  0  0  0  0
   16.4125   43.0547   63.6309 H   0  0  0  0  0  0
   16.8712   41.4161   63.6478 H   0  0  0  0  0  0
    8.5398   42.7947   67.5575 H   0  0  0  0  0  0
    8.1207   42.0063   66.0716 H   0  0  0  0  0  0
    9.7850   44.1274   65.5912 H   0  0  0  0  0  0
   10.9971   40.2763   67.0349 H   0  0  0  0  0  0
   13.1975   40.6164   66.1820 H   0  0  0  0  0  0
   12.0745   44.4926   64.7235 H   0  0  0  0  0  0
   14.4982   41.3298   63.5402 H   0  0  0  0  0  0
   14.9155   40.9385   65.1847 H   0  0  0  0  0  0
   15.7149   46.7448   69.2540 H   0  0  0  0  0  0
   17.3035   47.0106   69.9392 H   0  0  0  0  0  0
   16.0954   46.0672   70.8463 H   0  0  0  0  0  0
    8.2647   41.5784   69.5727 H   0  0  0  0  0  0
    8.7728   39.3847   65.9394 H   0  0  0  0  0  0
    8.1111   39.4255   70.8201 H   0  0  0  0  0  0
    8.5214   37.2899   67.1457 H   0  0  0  0  0  0
    8.1858   37.2903   69.5997 H   0  0  0  0  0  0
  1  2  1  0  0  0
  1  5  1  0  0  0
  1 12  1  0  0  0
  2  6  1  0  0  0
  2  7  1  0  0  0
  2 29  1  0  0  0
  3  5  1  0  0  0
  3  4  1  0  0  0
  3  6  1  0  0  0
  3 30  1  0  0  0
  4  9  1  0  0  0
  4  7  1  0  0  0
  4 31  1  0  0  0
  5 32  1  0  0  0
  5 33  1  0  0  0
  6 34  1  0  0  0
  6 35  1  0  0  0
  7 36  1  0  0  0
  7 37  1  0  0  0
  8  9  1  0  0  0
  8 10  2  0  0  0
  8 15  1  0  0  0
  9 38  1  0  0  0
  9 39  1  0  0  0
 11 16  2  0  0  0
 11 13  1  0  0  0
 11 17  1  0  0  0
 12 22  1  0  0  0
 12 40  1  0  0  0
 12 41  1  0  0  0
 13 20  1  0  0  0
 13 42  1  0  0  0
 13 43  1  0  0  0
 14 21  1  0  0  0
 14 18  1  0  0  0
 14 19  2  0  0  0
 15 23  1  0  0  0
 16 19  1  0  0  0
 16 44  1  0  0  0
 17 18  2  0  0  0
 17 45  1  0  0  0
 18 46  1  0  0  0
 19 47  1  0  0  0
 20 24  1  0  0  0
 20 25  2  0  0  0
 21 22  1  0  0  0
 22 48  1  0  0  0
 22 49  1  0  0  0
 23 50  1  0  0  0
 23 51  1  0  0  0
 23 52  1  0  0  0
 24 26  2  0  0  0
 24 53  1  0  0  0
 25 27  1  0  0  0
 25 54  1  0  0  0
 26 28  1  0  0  0
 26 55  1  0  0  0
 27 28  2  0  0  0
 27 56  1  0  0  0
 28 57  1  0  0  0
M  END
> <s_m_entry_id>
6981

> <s_m_entry_name>
dock_pv.411

> <s_m_Source_Path>
/home/csk/Desktop/cluster/DUD-E-result/lkha4

> <s_m_Source_File>
dock_pv.maegz

> <i_m_Source_File_Index>
411

> <chembl_id>
CHEMBL116174

> <chembl_pref_name>
None

> <i_lp_mmshare_version>
53161

> <i_f3d_flags>
0

> <r_lp_tautomer_probability>
1

> <s_lp_Force_Field>
OPLS_2005

> <r_lp_Energy>
67.31309

> <b_lp_Chiralities_Consistent>
1

> <s_lp_Variant>
CHEMBL4618_lig17-4

> <s_i_glide_gridfile>
glide-grid_3chp

> <i_i_glide_lignum>
21

> <i_i_glide_rotatable_bonds>
9

> <r_i_docking_score>
-8.1584250330454

> <r_i_glide_ligand_efficiency>
-0.291372322608764

> <r_i_glide_ligand_efficiency_sa>
-0.884777980560818

> <r_i_glide_ligand_efficiency_ln>
-1.88320403939459

> <r_i_glide_gscore>
-8.1584250330454

> <r_i_glide_lipo>
-4.1998706565624

> <r_i_glide_hbond>
-0.268077039325393

> <r_i_glide_metal>
0

> <r_i_glide_rewards>
-1.64334612527773

> <r_i_glide_evdw>
-46.5656929016113

> <r_i_glide_ecoul>
-5.06128787994385

> <r_i_glide_erotb>
1.07714002177352

> <r_i_glide_esite>
-0.0367934065812592

> <r_i_glide_emodel>
-74.5744469452355

> <r_i_glide_energy>
-51.6269807815552

> <r_i_glide_einternal>
10.1966285705566

> <i_i_glide_confnum>
104

> <i_i_glide_posenum>
374

> <r_i_glide_eff_state_penalty>
0

> <s_user_duplicate_titles>
CHEMBL4618_lig17

> <s_m_subgroup_title>
dock_pv

> <s_m_subgroupid>
dock_pv

> <b_m_subgroup_collapsed>
1

$$$$
CHEMBL4618_lig40
                    3D
 Schrodinger Suite 2021-1.
 46 48  0  0  1  0            999 V2000
   13.4806   42.8210   65.0899 N   0  0  1  0  0  0
   14.1208   42.8478   63.7790 C   0  0  0  0  0  0
   15.8602   43.0392   65.3966 C   0  0  0  0  0  0
   14.4808   43.4033   65.9744 C   0  0  0  0  0  0
   15.5945   42.4608   64.0039 C   0  0  1  0  0  0
    8.2532   39.7261   68.5242 C   0  0  0  0  0  0
    7.4044   38.8305   69.3875 C   0  0  0  0  0  0
    9.9494   41.2453   66.9360 C   0  0  0  0  0  0
   15.7210   41.0160   63.9400 N   0  0  0  0  0  0
    8.3505   41.1088   68.7400 C   0  0  0  0  0  0
    8.9210   39.1254   67.4757 C   0  0  0  0  0  0
    9.7654   39.8922   66.7082 C   0  0  0  0  0  0
    9.2040   41.8759   67.9400 C   0  0  0  0  0  0
    8.1654   37.9691   70.3824 C   0  0  0  0  0  0
   12.1956   43.5376   65.1031 C   0  0  0  0  0  0
   10.8927   41.8278   66.1207 O   0  0  0  0  0  0
   11.2930   43.1739   66.3021 C   0  0  0  0  0  0
    7.9024   36.6068   70.4790 C   0  0  0  0  0  0
    9.1008   38.5447   71.2325 C   0  0  0  0  0  0
    8.5210   35.8308   71.4587 C   0  0  0  0  0  0
    9.7215   37.7746   72.2173 C   0  0  0  0  0  0
    9.4173   36.4232   72.3399 C   0  0  0  0  0  0
   14.0059   43.8160   63.2997 H   0  0  0  0  0  0
   13.5842   42.1470   63.1400 H   0  0  0  0  0  0
   16.4312   42.3577   66.0217 H   0  0  0  0  0  0
   16.4537   43.9478   65.2887 H   0  0  0  0  0  0
   14.3394   43.0216   66.9845 H   0  0  0  0  0  0
   14.3757   44.4853   66.0439 H   0  0  0  0  0  0
   16.2070   42.9485   63.2433 H   0  0  0  0  0  0
    6.7419   39.4720   69.9400 H   0  0  0  0  0  0
    6.8014   38.1984   68.7340 H   0  0  0  0  0  0
   14.9210   40.7065   64.4914 H   0  0  0  0  0  0
   15.4131   40.8424   62.9680 H   0  0  0  0  0  0
    7.7922   41.5803   69.5368 H   0  0  0  0  0  0
    8.8392   38.0637   67.2895 H   0  0  0  0  0  0
   10.3471   39.4160   65.9400 H   0  0  0  0  0  0
    9.3002   42.9345   68.1279 H   0  0  0  0  0  0
   12.3567   44.6155   65.0605 H   0  0  0  0  0  0
   11.6472   43.2868   64.1941 H   0  0  0  0  0  0
   11.8119   43.3042   67.2525 H   0  0  0  0  0  0
   10.4131   43.8160   66.3014 H   0  0  0  0  0  0
    7.1923   36.1399   69.8196 H   0  0  0  0  0  0
    9.3209   39.5967   71.1400 H   0  0  0  0  0  0
    8.2905   34.7781   71.5400 H   0  0  0  0  0  0
   10.4306   38.2160   72.9003 H   0  0  0  0  0  0
    9.8903   35.8299   73.1087 H   0  0  0  0  0  0
  1  2  1  0  0  0
  1  4  1  0  0  0
  1 15  1  0  0  0
  2  5  1  0  0  0
  2 23  1  0  0  0
  2 24  1  0  0  0
  3  4  1  0  0  0
  3  5  1  0  0  0
  3 25  1  0  0  0
  3 26  1  0  0  0
  4 27  1  0  0  0
  4 28  1  0  0  0
  5  9  1  0  0  0
  5 29  1  0  0  0
  6 10  2  0  0  0
  6  7  1  0  0  0
  6 11  1  0  0  0
  7 14  1  0  0  0
  7 30  1  0  0  0
  7 31  1  0  0  0
  8 16  1  0  0  0
  8 12  1  0  0  0
  8 13  2  0  0  0
  9 32  1  0  0  0
  9 33  1  0  0  0
 10 13  1  0  0  0
 10 34  1  0  0  0
 11 12  2  0  0  0
 11 35  1  0  0  0
 12 36  1  0  0  0
 13 37  1  0  0  0
 14 18  2  0  0  0
 14 19  1  0  0  0
 15 17  1  0  0  0
 15 38  1  0  0  0
 15 39  1  0  0  0
 16 17  1  0  0  0
 17 40  1  0  0  0
 17 41  1  0  0  0
 18 20  1  0  0  0
 18 42  1  0  0  0
 19 21  2  0  0  0
 19 43  1  0  0  0
 20 22  2  0  0  0
 20 44  1  0  0  0
 21 22  1  0  0  0
 21 45  1  0  0  0
 22 46  1  0  0  0
M  END
> <s_m_entry_id>
6982

> <s_m_entry_name>
dock_pv.412

> <s_m_Source_Path>
/home/csk/Desktop/cluster/DUD-E-result/lkha4

> <s_m_Source_File>
dock_pv.maegz

> <i_m_Source_File_Index>
412

> <chembl_id>
CHEMBL325273

> <chembl_pref_name>
None

> <i_lp_mmshare_version>
53161

> <i_f3d_flags>
0

> <r_lp_tautomer_probability>
1

> <s_lp_Force_Field>
OPLS_2005

> <r_lp_Energy>
49.25556

> <b_lp_Chiralities_Consistent>
1

> <s_lp_Variant>
CHEMBL4618_lig40-1

> <s_i_glide_gridfile>
glide-grid_3chp

> <i_i_glide_lignum>
55

> <i_i_glide_rotatable_bonds>
6

> <r_i_docking_score>
-8.15010834286112

> <r_i_glide_ligand_efficiency>
-0.370459470130051

> <r_i_glide_ligand_efficiency_sa>
-1.03804200464861

> <r_i_glide_ligand_efficiency_ln>
-1.99218376142021

> <r_i_glide_gscore>
-8.15010834286112

> <r_i_glide_lipo>
-4.85358478646985

> <r_i_glide_hbond>
-0.166908793067218

> <r_i_glide_metal>
0

> <r_i_glide_rewards>
-2.28794890625229

> <r_i_glide_evdw>
-33.3507385253906

> <r_i_glide_ecoul>
-11.1753883361816

> <r_i_glide_erotb>
2.50217931962501

> <r_i_glide_esite>
0

> <r_i_glide_emodel>
-62.5735143409568

> <r_i_glide_energy>
-44.5261268615723

> <r_i_glide_einternal>
3.59378838539124

> <i_i_glide_confnum>
32

> <i_i_glide_posenum>
43

> <r_i_glide_eff_state_penalty>
0

> <s_user_duplicate_titles>
CHEMBL4618_lig40

> <s_m_subgroup_title>
dock_pv

> <s_m_subgroupid>
dock_pv

> <b_m_subgroup_collapsed>
1

$$$$
CHEMBL4618_lig404
                    3D
 Schrodinger Suite 2021-1.
 45 48  0  0  1  0            999 V2000
   17.5703   42.8779   65.1509 C   0  0  0  0  0  0
   16.5468   42.3868   64.3407 C   0  0  0  0  0  0
   15.9799   43.8159   66.7398 N   0  0  0  0  0  0
   17.2510   43.5801   66.3146 C   0  0  0  0  0  0
   14.9924   43.3145   65.9880 C   0  0  0  0  0  0
   15.2409   42.6113   64.7822 C   0  0  0  0  0  0
   13.7210   42.2159   64.0400 S   0  0  0  0  0  0
   12.9022   42.9170   65.4200 C   0  0  0  0  0  0
   13.6773   43.4160   66.3400 N   0  0  0  0  0  0
   11.5278   43.0452   65.3608 O   0  0  0  0  0  0
   10.6916   42.3673   66.2346 C   0  0  0  0  0  0
    9.5638   43.0132   66.7506 C   0  0  0  0  0  0
    8.6841   42.3464   67.6137 C   0  0  0  0  0  0
    8.8844   40.9987   67.9389 C   0  0  0  0  0  0
    9.9640   40.3406   67.3484 C   0  0  0  0  0  0
   10.8707   41.0160   66.5274 C   0  0  0  0  0  0
    7.9444   40.3040   68.9540 C   0  0  0  0  0  0
    7.9379   38.7343   69.0393 C   0  0  0  0  0  0
    8.0984   38.1428   70.3863 N   0  0  0  0  0  0
    9.3752   38.4954   71.0235 C   0  0  0  0  0  0
    9.6000   37.8160   72.4006 C   0  0  0  0  0  0
    9.4366   36.2987   72.3874 C   0  0  0  0  0  0
    8.1247   35.9631   71.6807 C   0  0  0  0  0  0
    7.9220   36.6795   70.3203 C   0  0  0  0  0  0
   18.6007   42.7602   64.8440 H   0  0  0  0  0  0
   16.7524   41.9177   63.3867 H   0  0  0  0  0  0
   18.0374   43.9856   66.9335 H   0  0  0  0  0  0
    9.3759   44.0464   66.4993 H   0  0  0  0  0  0
    7.8442   42.8870   68.0298 H   0  0  0  0  0  0
   10.1210   39.2962   67.5315 H   0  0  0  0  0  0
   11.6934   40.4794   66.0796 H   0  0  0  0  0  0
    6.9236   40.6240   68.7401 H   0  0  0  0  0  0
    8.1431   40.7424   69.9299 H   0  0  0  0  0  0
    8.6564   38.2694   68.3700 H   0  0  0  0  0  0
    6.9713   38.4052   68.6530 H   0  0  0  0  0  0
    9.4336   39.5740   71.1395 H   0  0  0  0  0  0
   10.1708   38.2196   70.3401 H   0  0  0  0  0  0
    8.8996   38.2276   73.1243 H   0  0  0  0  0  0
   10.5915   38.0662   72.7792 H   0  0  0  0  0  0
   10.2906   35.8007   71.9400 H   0  0  0  0  0  0
    9.4045   35.9258   73.4126 H   0  0  0  0  0  0
    8.0538   34.8844   71.5402 H   0  0  0  0  0  0
    7.3210   36.2311   72.3571 H   0  0  0  0  0  0
    6.9228   36.4645   69.9400 H   0  0  0  0  0  0
    8.6148   36.2665   69.5866 H   0  0  0  0  0  0
  1  2  2  0  0  0
  1  4  1  0  0  0
  1 25  1  0  0  0
  2  6  1  0  0  0
  2 26  1  0  0  0
  3  5  1  0  0  0
  3  4  2  0  0  0
  4 27  1  0  0  0
  5  6  2  0  0  0
  5  9  1  0  0  0
  6  7  1  0  0  0
  7  8  1  0  0  0
  8  9  2  0  0  0
  8 10  1  0  0  0
 10 11  1  0  0  0
 11 12  2  0  0  0
 11 16  1  0  0  0
 12 13  1  0  0  0
 12 28  1  0  0  0
 13 14  2  0  0  0
 13 29  1  0  0  0
 14 15  1  0  0  0
 14 17  1  0  0  0
 15 16  2  0  0  0
 15 30  1  0  0  0
 16 31  1  0  0  0
 17 18  1  0  0  0
 17 32  1  0  0  0
 17 33  1  0  0  0
 18 19  1  0  0  0
 18 34  1  0  0  0
 18 35  1  0  0  0
 19 20  1  0  0  0
 19 24  1  0  0  0
 20 21  1  0  0  0
 20 36  1  0  0  0
 20 37  1  0  0  0
 21 22  1  0  0  0
 21 38  1  0  0  0
 21 39  1  0  0  0
 22 23  1  0  0  0
 22 40  1  0  0  0
 22 41  1  0  0  0
 23 24  1  0  0  0
 23 42  1  0  0  0
 23 43  1  0  0  0
 24 44  1  0  0  0
 24 45  1  0  0  0
M  END
> <s_m_entry_id>
6983

> <s_m_entry_name>
dock_pv.413

> <s_m_Source_Path>
/home/csk/Desktop/cluster/DUD-E-result/lkha4

> <s_m_Source_File>
dock_pv.maegz

> <i_m_Source_File_Index>
413

> <chembl_id>
CHEMBL2207742

> <chembl_pref_name>
None

> <i_lp_mmshare_version>
53161

> <i_f3d_flags>
0

> <r_lp_tautomer_probability>
1

> <s_lp_Force_Field>
OPLS_2005

> <r_lp_Energy>
25.942198

> <b_lp_Chiralities_Consistent>
1

> <s_lp_Variant>
CHEMBL4618_lig404-1

> <s_i_glide_gridfile>
glide-grid_3chp

> <i_i_glide_lignum>
469

> <i_i_glide_rotatable_bonds>
5

> <r_i_docking_score>
-8.14909226319021

> <r_i_glide_ligand_efficiency>
-0.339545510966259

> <r_i_glide_ligand_efficiency_sa>
-0.979418733544244

> <r_i_glide_ligand_efficiency_ln>
-1.95045171605928

> <r_i_glide_gscore>
-8.14909226319021

> <r_i_glide_lipo>
-4.23799923140474

> <r_i_glide_hbond>
0

> <r_i_glide_metal>
0

> <r_i_glide_rewards>
-1.99462131818182

> <r_i_glide_evdw>
-45.4425277709961

> <r_i_glide_ecoul>
-2.93944454193115

> <r_i_glide_erotb>
0.82117977415278

> <r_i_glide_esite>
-0.024608417916957

> <r_i_glide_emodel>
-55.6173446968155

> <r_i_glide_energy>
-48.3819723129272

> <r_i_glide_einternal>
16.2226982116699

> <i_i_glide_confnum>
119

> <i_i_glide_posenum>
315

> <r_i_glide_eff_state_penalty>
0

> <s_user_duplicate_titles>
CHEMBL4618_lig404

> <s_m_subgroup_title>
dock_pv

> <s_m_subgroupid>
dock_pv

> <b_m_subgroup_collapsed>
1

$$$$
CHEMBL4618_lig87
                    3D
 Schrodinger Suite 2021-1.
 49 52  0  0  1  0            999 V2000
   17.0722   43.1312   66.4445 N   0  0  1  0  0  0
   18.9342   44.7032   65.9401 C   0  0  0  0  0  0
   18.2825   43.3627   65.6080 C   0  0  1  0  0  0
   19.2062   44.9108   67.2445 C   0  0  0  0  0  0
   17.3208   43.4484   67.8843 C   0  0  0  0  0  0
   19.3286   42.3216   66.1068 C   0  0  0  0  0  0
   18.8354   43.7394   68.1574 C   0  0  1  0  0  0
   10.4754   42.1022   66.3627 C   0  0  0  0  0  0
    9.0201   42.0148   66.8598 C   0  0  0  0  0  0
   15.8830   43.8421   65.9497 C   0  0  0  0  0  0
   13.1628   42.1949   65.5291 C   0  0  0  0  0  0
   19.6806   42.5460   67.6213 C   0  0  0  0  0  0
   11.0367   43.3115   65.9397 C   0  0  0  0  0  0
   11.2812   40.9707   66.3409 C   0  0  0  0  0  0
   12.5978   41.0161   65.9400 C   0  0  0  0  0  0
   12.3776   43.3655   65.5328 C   0  0  0  0  0  0
    8.6009   40.7025   67.5548 C   0  0  0  0  0  0
   14.4777   42.0394   65.1402 O   0  0  0  0  0  0
   15.2123   43.1647   64.7399 C   0  0  0  0  0  0
    8.2366   40.6877   68.9045 C   0  0  0  0  0  0
    8.6220   39.4870   66.8596 C   0  0  0  0  0  0
    7.9819   39.4693   69.5413 C   0  0  0  0  0  0
    8.3950   38.2913   67.5109 C   0  0  0  0  0  0
    8.0689   38.2729   68.8516 C   0  0  0  0  0  0
   19.1976   45.4159   65.1731 H   0  0  0  0  0  0
   18.0845   43.2492   64.5421 H   0  0  0  0  0  0
   19.6839   45.8118   67.5930 H   0  0  0  0  0  0
   16.9222   42.6531   68.5161 H   0  0  0  0  0  0
   16.8006   44.3663   68.1694 H   0  0  0  0  0  0
   20.2343   42.3746   65.5000 H   0  0  0  0  0  0
   18.9210   41.3404   65.9400 H   0  0  0  0  0  0
   19.0307   43.9546   69.2085 H   0  0  0  0  0  0
    8.3604   42.1932   66.0116 H   0  0  0  0  0  0
    8.8459   42.8509   67.5393 H   0  0  0  0  0  0
   16.1667   44.8587   65.6878 H   0  0  0  0  0  0
   15.1350   43.9214   66.7414 H   0  0  0  0  0  0
   19.4891   41.6509   68.2118 H   0  0  0  0  0  0
   20.7475   42.7497   67.7314 H   0  0  0  0  0  0
   10.4407   44.2132   65.9387 H   0  0  0  0  0  0
   10.9211   40.0131   66.6585 H   0  0  0  0  0  0
   13.2066   40.1267   65.9388 H   0  0  0  0  0  0
   12.7759   44.3201   65.2304 H   0  0  0  0  0  0
   14.5211   43.8160   64.2159 H   0  0  0  0  0  0
   15.9480   42.8515   63.9993 H   0  0  0  0  0  0
    8.1817   41.6058   69.4707 H   0  0  0  0  0  0
    8.9228   39.4160   65.8313 H   0  0  0  0  0  0
    7.7223   39.4169   70.5869 H   0  0  0  0  0  0
    8.5206   37.3902   66.9572 H   0  0  0  0  0  0
    7.8944   37.3347   69.3575 H   0  0  0  0  0  0
  1  3  1  0  0  0
  1  5  1  0  0  0
  1 10  1  0  0  0
  2  3  1  0  0  0
  2  4  2  0  0  0
  2 25  1  0  0  0
  3  6  1  0  0  0
  3 26  1  0  0  0
  4  7  1  0  0  0
  4 27  1  0  0  0
  5  7  1  0  0  0
  5 28  1  0  0  0
  5 29  1  0  0  0
  6 12  1  0  0  0
  6 30  1  0  0  0
  6 31  1  0  0  0
  7 12  1  0  0  0
  7 32  1  0  0  0
  8 13  1  0  0  0
  8  9  1  0  0  0
  8 14  2  0  0  0
  9 17  1  0  0  0
  9 33  1  0  0  0
  9 34  1  0  0  0
 10 19  1  0  0  0
 10 35  1  0  0  0
 10 36  1  0  0  0
 11 18  1  0  0  0
 11 15  2  0  0  0
 11 16  1  0  0  0
 12 37  1  0  0  0
 12 38  1  0  0  0
 13 16  2  0  0  0
 13 39  1  0  0  0
 14 15  1  0  0  0
 14 40  1  0  0  0
 15 41  1  0  0  0
 16 42  1  0  0  0
 17 20  1  0  0  0
 17 21  2  0  0  0
 18 19  1  0  0  0
 19 43  1  0  0  0
 19 44  1  0  0  0
 20 22  2  0  0  0
 20 45  1  0  0  0
 21 23  1  0  0  0
 21 46  1  0  0  0
 22 24  1  0  0  0
 22 47  1  0  0  0
 23 24  2  0  0  0
 23 48  1  0  0  0
 24 49  1  0  0  0
M  END
> <s_m_entry_id>
6984

> <s_m_entry_name>
dock_pv.414

> <s_m_Source_Path>
/home/csk/Desktop/cluster/DUD-E-result/lkha4

> <s_m_Source_File>
dock_pv.maegz

> <i_m_Source_File_Index>
414

> <chembl_id>
CHEMBL350586

> <chembl_pref_name>
None

> <i_lp_mmshare_version>
53161

> <i_f3d_flags>
0

> <r_lp_tautomer_probability>
1

> <s_lp_Force_Field>
OPLS_2005

> <r_lp_Energy>
58.508749

> <b_lp_Chiralities_Consistent>
1

> <s_lp_Variant>
CHEMBL4618_lig87-2

> <s_i_glide_gridfile>
glide-grid_3chp

> <i_i_glide_lignum>
110

> <i_i_glide_rotatable_bonds>
6

> <r_i_docking_score>
-8.14279917193429

> <r_i_glide_ligand_efficiency>
-0.339283298830596

> <r_i_glide_ligand_efficiency_sa>
-0.978662382865066

> <r_i_glide_ligand_efficiency_ln>
-1.9489454905506

> <r_i_glide_gscore>
-8.14279917193429

> <r_i_glide_lipo>
-4.09768006775253

> <r_i_glide_hbond>
-0.143731183272256

> <r_i_glide_metal>
0

> <r_i_glide_rewards>
-2.13107713573859

> <r_i_glide_evdw>
-32.5145111083984

> <r_i_glide_ecoul>
-7.05906963348389

> <r_i_glide_erotb>
0.914275215271584

> <r_i_glide_esite>
0

> <r_i_glide_emodel>
-58.002529903655

> <r_i_glide_energy>
-39.5735807418823

> <r_i_glide_einternal>
4.95664358139038

> <i_i_glide_confnum>
2

> <i_i_glide_posenum>
256

> <r_i_glide_eff_state_penalty>
0

> <s_user_duplicate_titles>
CHEMBL4618_lig87,270949

> <s_m_subgroup_title>
dock_pv

> <s_m_subgroupid>
dock_pv

> <b_m_subgroup_collapsed>
1

$$$$
CHEMBL4618_lig176
                    3D
 Schrodinger Suite 2021-1.
 38 39  0  0  1  0            999 V2000
    8.9975   37.8160   72.3398 C   0  0  0  0  0  0
    9.0060   36.4363   72.4926 C   0  0  0  0  0  0
    8.5611   35.6295   71.4569 C   0  0  0  0  0  0
    8.1206   36.2172   70.2747 C   0  0  0  0  0  0
    8.0765   37.5997   70.1282 C   0  0  0  0  0  0
    8.5359   38.4077   71.1672 C   0  0  0  0  0  0
    7.4761   38.1641   68.8458 C   0  0  0  0  0  0
    7.3880   39.5967   68.8561 O   0  0  0  0  0  0
    8.3020   40.3568   68.1564 C   0  0  0  0  0  0
    8.1529   41.7456   68.1850 C   0  0  0  0  0  0
    9.0643   42.5679   67.5186 C   0  0  0  0  0  0
   10.1522   42.0055   66.8443 C   0  0  0  0  0  0
   10.2369   40.6164   66.7408 C   0  0  0  0  0  0
    9.3334   39.8056   67.3963 C   0  0  0  0  0  0
   11.1226   42.8611   66.2866 N   0  0  0  0  0  0
   12.3964   42.5430   65.9392 C   0  0  0  0  0  0
   13.1894   43.6607   65.2222 C   0  0  1  0  0  0
   12.9232   41.4416   66.1042 O   0  0  0  0  0  0
   14.6302   43.5693   65.5402 N   0  0  0  0  0  0
   12.9214   43.5880   63.7206 C   0  0  0  0  0  0
    9.3296   38.4424   73.1400 H   0  0  0  0  0  0
    9.3533   35.9952   73.4168 H   0  0  0  0  0  0
    8.5554   34.5549   71.5620 H   0  0  0  0  0  0
    7.7712   35.6076   69.4608 H   0  0  0  0  0  0
    8.5205   39.4850   71.0838 H   0  0  0  0  0  0
    6.4665   37.7878   68.7769 H   0  0  0  0  0  0
    7.9375   37.7163   67.9707 H   0  0  0  0  0  0
    7.3293   42.1883   68.7301 H   0  0  0  0  0  0
    8.9216   43.6374   67.5408 H   0  0  0  0  0  0
   11.0021   40.1265   66.1603 H   0  0  0  0  0  0
    9.5012   38.7483   67.3015 H   0  0  0  0  0  0
   10.8388   43.8225   66.1756 H   0  0  0  0  0  0
   12.7915   44.6159   65.5428 H   0  0  0  0  0  0
   15.1782   44.0190   64.8135 H   0  0  0  0  0  0
   14.8414   44.0200   66.4184 H   0  0  0  0  0  0
   11.8475   43.5700   63.5402 H   0  0  0  0  0  0
   13.3589   42.6945   63.2686 H   0  0  0  0  0  0
   13.3210   44.4569   63.1984 H   0  0  0  0  0  0
  1  6  1  0  0  0
  1  2  2  0  0  0
  1 21  1  0  0  0
  2  3  1  0  0  0
  2 22  1  0  0  0
  3  4  2  0  0  0
  3 23  1  0  0  0
  4  5  1  0  0  0
  4 24  1  0  0  0
  5  6  2  0  0  0
  5  7  1  0  0  0
  6 25  1  0  0  0
  7  8  1  0  0  0
  7 26  1  0  0  0
  7 27  1  0  0  0
  8  9  1  0  0  0
  9 10  2  0  0  0
  9 14  1  0  0  0
 10 11  1  0  0  0
 10 28  1  0  0  0
 11 12  2  0  0  0
 11 29  1  0  0  0
 12 13  1  0  0  0
 12 15  1  0  0  0
 13 14  2  0  0  0
 13 30  1  0  0  0
 14 31  1  0  0  0
 15 16  1  0  0  0
 15 32  1  0  0  0
 16 17  1  0  0  0
 16 18  2  0  0  0
 17 19  1  0  0  0
 17 20  1  0  0  0
 17 33  1  0  0  0
 19 34  1  0  0  0
 19 35  1  0  0  0
 20 36  1  0  0  0
 20 37  1  0  0  0
 20 38  1  0  0  0
M  END
> <s_m_entry_id>
6985

> <s_m_entry_name>
dock_pv.415

> <s_m_Source_Path>
/home/csk/Desktop/cluster/DUD-E-result/lkha4

> <s_m_Source_File>
dock_pv.maegz

> <i_m_Source_File_Index>
415

> <chembl_id>
CHEMBL508881

> <chembl_pref_name>
None

> <i_lp_mmshare_version>
53161

> <i_f3d_flags>
0

> <r_lp_tautomer_probability>
1

> <s_lp_Force_Field>
OPLS_2005

> <r_lp_Energy>
23.446192

> <b_lp_Chiralities_Consistent>
1

> <s_lp_Variant>
CHEMBL4618_lig176-1

> <s_i_glide_gridfile>
glide-grid_3chp

> <i_i_glide_lignum>
203

> <i_i_glide_rotatable_bonds>
6

> <r_i_docking_score>
-8.14227352659937

> <r_i_glide_ligand_efficiency>
-0.407113676329968

> <r_i_glide_ligand_efficiency_sa>
-1.10507653388328

> <r_i_glide_ligand_efficiency_ln>
-2.03774251355365

> <r_i_glide_gscore>
-8.14227352659937

> <r_i_glide_lipo>
-4.2340212086803

> <r_i_glide_hbond>
-0.285016877441499

> <r_i_glide_metal>
0

> <r_i_glide_rewards>
-2.13746236608339

> <r_i_glide_evdw>
-38.7946472167969

> <r_i_glide_ecoul>
-5.13138341903687

> <r_i_glide_erotb>
1.22366679930119

> <r_i_glide_esite>
0

> <r_i_glide_emodel>
-60.9596942807557

> <r_i_glide_energy>
-43.9260306358337

> <r_i_glide_einternal>
4.42776107788086

> <i_i_glide_confnum>
25

> <i_i_glide_posenum>
359

> <r_i_glide_eff_state_penalty>
0

> <s_user_duplicate_titles>
CHEMBL4618_lig176,506984

> <s_m_subgroup_title>
dock_pv

> <s_m_subgroupid>
dock_pv

> <b_m_subgroup_collapsed>
1

$$$$
CHEMBL4618_lig225
                    3D
 Schrodinger Suite 2021-1.
 66 69  0  0  1  0            999 V2000
   13.3410   42.3774   64.7407 N   0  0  1  0  0  0
   14.6996   41.8278   64.8317 C   0  0  0  0  0  0
   15.8217   42.7252   65.3896 C   0  0  0  0  0  0
   17.1327   42.4987   64.9691 C   0  0  0  0  0  0
   18.1985   43.1908   65.5399 C   0  0  0  0  0  0
   17.9739   44.1399   66.5470 C   0  0  0  0  0  0
   16.6548   44.3981   66.9360 C   0  0  0  0  0  0
   15.5942   43.7100   66.3531 C   0  0  0  0  0  0
   19.1082   44.8990   67.1963 C   0  0  0  0  0  0
   20.3587   44.5281   66.8017 O   0  0  0  0  0  0
   18.9166   45.8061   68.0093 O   0  0  0  0  0  0
    8.4982   36.8858   71.9336 C   0  0  0  0  0  0
    8.1210   36.2788   70.7437 C   0  0  0  0  0  0
    8.1210   36.9890   69.5469 C   0  0  0  0  0  0
    8.5562   38.3098   69.5440 C   0  0  0  0  0  0
    8.9211   38.9209   70.7497 C   0  0  0  0  0  0
    8.8856   38.2054   71.9366 C   0  0  0  0  0  0
    8.8097   38.9156   68.3068 N   0  0  0  0  0  0
    8.9210   40.2375   68.0892 C   0  0  0  0  0  0
    9.8731   40.6217   66.9340 C   0  0  0  0  0  0
    8.3800   41.0820   68.8079 O   0  0  0  0  0  0
    8.4877   36.2188   73.1266 O   0  0  0  0  0  0
    9.5946   35.4850   73.4643 C   0  0  0  0  0  0
    9.9326   34.3542   72.7212 C   0  0  0  0  0  0
   10.9210   33.5025   73.1783 C   0  0  0  0  0  0
   11.6245   33.8161   74.3400 C   0  0  0  0  0  0
   11.3195   34.9672   75.0652 C   0  0  0  0  0  0
   10.2980   35.8079   74.6258 C   0  0  0  0  0  0
   10.0155   42.0778   66.7614 N   0  0  2  0  0  0
    8.7695   42.7085   66.3184 C   0  0  0  0  0  0
    9.1957   44.0622   65.8393 C   0  0  0  0  0  0
   10.5690   43.8399   65.2550 C   0  0  0  0  0  0
   10.9734   42.4499   65.7169 C   0  0  1  0  0  0
   12.5026   42.2755   65.9588 C   0  0  0  0  0  0
   13.3342   43.6214   63.9727 C   0  0  0  0  0  0
   14.6676   40.8916   65.3879 H   0  0  0  0  0  0
   14.9822   41.5509   63.8140 H   0  0  0  0  0  0
   17.3429   41.8161   64.1608 H   0  0  0  0  0  0
   19.1845   42.9796   65.1509 H   0  0  0  0  0  0
   16.4331   45.1235   67.7066 H   0  0  0  0  0  0
   14.6007   43.9338   66.6998 H   0  0  0  0  0  0
   20.3304   43.8169   66.1611 H   0  0  0  0  0  0
    7.8117   35.2575   70.7717 H   0  0  0  0  0  0
    7.8526   36.4910   68.6271 H   0  0  0  0  0  0
    9.2951   39.9261   70.7720 H   0  0  0  0  0  0
    9.1909   38.6160   72.8793 H   0  0  0  0  0  0
    9.0911   38.2900   67.5664 H   0  0  0  0  0  0
   10.8492   40.2232   67.2070 H   0  0  0  0  0  0
    9.5764   40.1193   66.0136 H   0  0  0  0  0  0
    9.3767   34.0860   71.8370 H   0  0  0  0  0  0
   11.1647   32.6157   72.6186 H   0  0  0  0  0  0
   12.3987   33.1489   74.6909 H   0  0  0  0  0  0
   11.8591   35.1955   75.9699 H   0  0  0  0  0  0
   10.0220   36.6788   75.2030 H   0  0  0  0  0  0
    8.2596   42.1627   65.5401 H   0  0  0  0  0  0
    8.0522   42.7841   67.1360 H   0  0  0  0  0  0
    8.5211   44.6083   65.1864 H   0  0  0  0  0  0
    9.2072   44.6160   66.7400 H   0  0  0  0  0  0
   10.4305   43.8160   64.1793 H   0  0  0  0  0  0
   11.2802   44.6153   65.5342 H   0  0  0  0  0  0
   10.7433   41.8160   64.8851 H   0  0  0  0  0  0
   12.8139   42.9781   66.7276 H   0  0  0  0  0  0
   12.6624   41.2823   66.3781 H   0  0  0  0  0  0
   14.0321   43.5441   63.1399 H   0  0  0  0  0  0
   12.3725   43.8172   63.5196 H   0  0  0  0  0  0
   13.6197   44.4820   64.5782 H   0  0  0  0  0  0
  1  2  1  0  0  0
  1 34  1  0  0  0
  1 35  1  0  0  0
  2  3  1  0  0  0
  2 36  1  0  0  0
  2 37  1  0  0  0
  3  8  1  0  0  0
  3  4  2  0  0  0
  4  5  1  0  0  0
  4 38  1  0  0  0
  5  6  2  0  0  0
  5 39  1  0  0  0
  6  7  1  0  0  0
  6  9  1  0  0  0
  7  8  2  0  0  0
  7 40  1  0  0  0
  8 41  1  0  0  0
  9 10  1  0  0  0
  9 11  2  0  0  0
 10 42  1  0  0  0
 12 22  1  0  0  0
 12 17  1  0  0  0
 12 13  2  0  0  0
 13 14  1  0  0  0
 13 43  1  0  0  0
 14 15  2  0  0  0
 14 44  1  0  0  0
 15 16  1  0  0  0
 15 18  1  0  0  0
 16 17  2  0  0  0
 16 45  1  0  0  0
 17 46  1  0  0  0
 18 19  1  0  0  0
 18 47  1  0  0  0
 19 20  1  0  0  0
 19 21  2  0  0  0
 20 29  1  0  0  0
 20 48  1  0  0  0
 20 49  1  0  0  0
 22 23  1  0  0  0
 23 28  1  0  0  0
 23 24  2  0  0  0
 24 25  1  0  0  0
 24 50  1  0  0  0
 25 26  2  0  0  0
 25 51  1  0  0  0
 26 27  1  0  0  0
 26 52  1  0  0  0
 27 28  2  0  0  0
 27 53  1  0  0  0
 28 54  1  0  0  0
 29 30  1  0  0  0
 29 33  1  0  0  0
 30 31  1  0  0  0
 30 55  1  0  0  0
 30 56  1  0  0  0
 31 32  1  0  0  0
 31 57  1  0  0  0
 31 58  1  0  0  0
 32 33  1  0  0  0
 32 59  1  0  0  0
 32 60  1  0  0  0
 33 34  1  0  0  0
 33 61  1  0  0  0
 34 62  1  0  0  0
 34 63  1  0  0  0
 35 64  1  0  0  0
 35 65  1  0  0  0
 35 66  1  0  0  0
M  END
> <s_m_entry_id>
6986

> <s_m_entry_name>
dock_pv.416

> <s_m_Source_Path>
/home/csk/Desktop/cluster/DUD-E-result/lkha4

> <s_m_Source_File>
dock_pv.maegz

> <i_m_Source_File_Index>
416

> <chembl_id>
CHEMBL480909

> <chembl_pref_name>
None

> <i_lp_mmshare_version>
53161

> <i_f3d_flags>
0

> <r_lp_tautomer_probability>
1

> <s_lp_Force_Field>
OPLS_2005

> <r_lp_Energy>
68.615085

> <b_lp_Chiralities_Consistent>
1

> <s_lp_Variant>
CHEMBL4618_lig225-1

> <s_i_glide_gridfile>
glide-grid_3chp

> <i_i_glide_lignum>
255

> <i_i_glide_rotatable_bonds>
12

> <r_i_docking_score>
-8.12012037809532

> <r_i_glide_ligand_efficiency>
-0.232003439374152

> <r_i_glide_ligand_efficiency_sa>
-0.758898633485287

> <r_i_glide_ligand_efficiency_ln>
-1.78254663935391

> <r_i_glide_gscore>
-8.12012037809532

> <r_i_glide_lipo>
-4.65991489563062

> <r_i_glide_hbond>
-0.16

> <r_i_glide_metal>
0

> <r_i_glide_rewards>
-0.491518803505547

> <r_i_glide_evdw>
-52.4724960327148

> <r_i_glide_ecoul>
-7.50372982025146

> <r_i_glide_erotb>
0.992199815792719

> <r_i_glide_esite>
-0.0517022200784066

> <r_i_glide_emodel>
-60.2921200494518

> <r_i_glide_energy>
-59.9762258529663

> <r_i_glide_einternal>
14.0618600845337

> <i_i_glide_confnum>
184

> <i_i_glide_posenum>
357

> <r_i_glide_eff_state_penalty>
0

> <s_user_duplicate_titles>
CHEMBL4618_lig225,467183

> <s_m_subgroup_title>
dock_pv

> <s_m_subgroupid>
dock_pv

> <b_m_subgroup_collapsed>
1

$$$$
CHEMBL4618_lig291
                    3D
 Schrodinger Suite 2021-1.
 51 54  0  0  1  0            999 V2000
    9.7344   34.9602   73.0730 C   0  0  0  0  0  0
   10.2842   36.1027   73.6420 C   0  0  0  0  0  0
   10.0825   37.3554   73.0683 C   0  0  0  0  0  0
    8.9211   35.0156   71.9400 C   0  0  0  0  0  0
    8.6903   36.2759   71.3896 C   0  0  0  0  0  0
    9.2725   37.4526   71.9248 C   0  0  0  0  0  0
    8.9202   38.5548   71.1857 N   0  0  0  0  0  0
    8.1171   38.0786   70.2637 C   0  0  0  0  0  0
    7.9472   36.7201   70.3220 N   0  0  0  0  0  0
    7.4277   38.8557   69.3693 O   0  0  0  0  0  0
    8.1178   39.7748   68.6195 C   0  0  0  0  0  0
    7.9029   41.1384   68.8117 C   0  0  0  0  0  0
    8.6435   42.0723   68.0947 C   0  0  0  0  0  0
    9.5956   41.6517   67.1679 C   0  0  0  0  0  0
    9.7232   40.2773   66.9003 C   0  0  0  0  0  0
    8.9880   39.3466   67.6252 C   0  0  0  0  0  0
   10.3725   42.6414   66.5948 O   0  0  0  0  0  0
   11.4888   42.2711   65.7926 C   0  0  0  0  0  0
   12.6112   43.3129   65.8734 C   0  0  0  0  0  0
   13.9482   42.7866   65.5487 N   0  0  0  0  0  0
   14.9748   43.8161   65.6783 C   0  0  0  0  0  0
   16.4130   43.3659   65.9977 C   0  0  0  0  0  0
   14.0578   41.8821   64.3979 C   0  0  0  0  0  0
   17.2551   42.8070   64.8384 C   0  0  0  0  0  0
   15.3672   41.0957   64.2622 C   0  0  0  0  0  0
   16.5395   41.9566   63.7717 C   0  0  0  0  0  0
    9.9253   34.0044   73.5404 H   0  0  0  0  0  0
   10.8902   36.0127   74.5330 H   0  0  0  0  0  0
   10.5278   38.2183   73.5250 H   0  0  0  0  0  0
    8.4727   34.1192   71.5398 H   0  0  0  0  0  0
    7.3573   36.1978   69.6916 H   0  0  0  0  0  0
    7.1830   41.4764   69.5388 H   0  0  0  0  0  0
    8.4988   43.1268   68.2824 H   0  0  0  0  0  0
   10.3989   39.8976   66.1512 H   0  0  0  0  0  0
    9.1219   38.2913   67.4367 H   0  0  0  0  0  0
   11.1519   42.2165   64.7589 H   0  0  0  0  0  0
   11.9113   41.3129   66.0970 H   0  0  0  0  0  0
   12.6306   43.7178   66.8854 H   0  0  0  0  0  0
   12.3772   44.1444   65.2065 H   0  0  0  0  0  0
   14.9215   44.3952   64.7599 H   0  0  0  0  0  0
   14.7060   44.4875   66.4938 H   0  0  0  0  0  0
   16.3907   42.6196   66.7832 H   0  0  0  0  0  0
   16.9541   44.2126   66.4234 H   0  0  0  0  0  0
   13.8768   42.4693   63.4948 H   0  0  0  0  0  0
   13.2716   41.1315   64.4176 H   0  0  0  0  0  0
   18.0860   42.2354   65.2543 H   0  0  0  0  0  0
   17.7227   43.6556   64.3405 H   0  0  0  0  0  0
   15.1885   40.2969   63.5402 H   0  0  0  0  0  0
   15.6003   40.6262   65.2142 H   0  0  0  0  0  0
   16.1729   42.6161   62.9815 H   0  0  0  0  0  0
   17.2792   41.3387   63.2606 H   0  0  0  0  0  0
  1  2  2  0  0  0
  1  4  1  0  0  0
  1 27  1  0  0  0
  2  3  1  0  0  0
  2 28  1  0  0  0
  3  6  2  0  0  0
  3 29  1  0  0  0
  4  5  2  0  0  0
  4 30  1  0  0  0
  5  9  1  0  0  0
  5  6  1  0  0  0
  6  7  1  0  0  0
  7  8  2  0  0  0
  8  9  1  0  0  0
  8 10  1  0  0  0
  9 31  1  0  0  0
 10 11  1  0  0  0
 11 16  1  0  0  0
 11 12  2  0  0  0
 12 13  1  0  0  0
 12 32  1  0  0  0
 13 14  2  0  0  0
 13 33  1  0  0  0
 14 15  1  0  0  0
 14 17  1  0  0  0
 15 16  2  0  0  0
 15 34  1  0  0  0
 16 35  1  0  0  0
 17 18  1  0  0  0
 18 19  1  0  0  0
 18 36  1  0  0  0
 18 37  1  0  0  0
 19 20  1  0  0  0
 19 38  1  0  0  0
 19 39  1  0  0  0
 20 21  1  0  0  0
 20 23  1  0  0  0
 21 22  1  0  0  0
 21 40  1  0  0  0
 21 41  1  0  0  0
 22 24  1  0  0  0
 22 42  1  0  0  0
 22 43  1  0  0  0
 23 25  1  0  0  0
 23 44  1  0  0  0
 23 45  1  0  0  0
 24 26  1  0  0  0
 24 46  1  0  0  0
 24 47  1  0  0  0
 25 26  1  0  0  0
 25 48  1  0  0  0
 25 49  1  0  0  0
 26 50  1  0  0  0
 26 51  1  0  0  0
M  END
> <s_m_entry_id>
6987

> <s_m_entry_name>
dock_pv.417

> <s_m_Source_Path>
/home/csk/Desktop/cluster/DUD-E-result/lkha4

> <s_m_Source_File>
dock_pv.maegz

> <i_m_Source_File_Index>
417

> <chembl_id>
CHEMBL482255

> <chembl_pref_name>
None

> <i_lp_mmshare_version>
53161

> <i_f3d_flags>
0

> <r_lp_tautomer_probability>
1

> <s_lp_Force_Field>
OPLS_2005

> <r_lp_Energy>
34.798048

> <b_lp_Chiralities_Consistent>
1

> <s_lp_Variant>
CHEMBL4618_lig291-1

> <s_i_glide_gridfile>
glide-grid_3chp

> <i_i_glide_lignum>
329

> <i_i_glide_rotatable_bonds>
6

> <r_i_docking_score>
-8.10557677973262

> <r_i_glide_ligand_efficiency>
-0.311752953066639

> <r_i_glide_ligand_efficiency_sa>
-0.923566896771283

> <r_i_glide_ligand_efficiency_ln>
-1.90356811015348

> <r_i_glide_gscore>
-8.10557677973262

> <r_i_glide_lipo>
-4.46238509969398

> <r_i_glide_hbond>
0

> <r_i_glide_metal>
0

> <r_i_glide_rewards>
-1.4452257910124

> <r_i_glide_evdw>
-51.0942573547363

> <r_i_glide_ecoul>
-2.76909947395325

> <r_i_glide_erotb>
0.772111899803564

> <r_i_glide_esite>
0

> <r_i_glide_emodel>
-72.9854877313242

> <r_i_glide_energy>
-53.8633568286896

> <r_i_glide_einternal>
5.70192193984985

> <i_i_glide_confnum>
18

> <i_i_glide_posenum>
329

> <r_i_glide_eff_state_penalty>
0

> <s_user_duplicate_titles>
CHEMBL4618_lig291,467579

> <s_m_subgroup_title>
dock_pv

> <s_m_subgroupid>
dock_pv

> <b_m_subgroup_collapsed>
1

$$$$
CHEMBL4618_lig297
                    3D
 Schrodinger Suite 2021-1.
 45 48  0  0  1  0            999 V2000
    9.7225   35.0137   73.0790 C   0  0  0  0  0  0
   10.2922   36.1499   73.6374 C   0  0  0  0  0  0
   10.1208   37.3999   73.0473 C   0  0  0  0  0  0
    8.9204   35.0741   71.9401 C   0  0  0  0  0  0
    8.7181   36.3354   71.3713 C   0  0  0  0  0  0
    9.3196   37.5089   71.8962 C   0  0  0  0  0  0
    8.9919   38.6124   71.1402 N   0  0  0  0  0  0
    8.2024   38.1407   70.2041 C   0  0  0  0  0  0
    7.9967   36.7874   70.2883 N   0  0  0  0  0  0
    7.5596   38.9145   69.2691 O   0  0  0  0  0  0
    8.2785   39.8362   68.5446 C   0  0  0  0  0  0
    8.1234   41.2005   68.7913 C   0  0  0  0  0  0
    8.9077   42.1278   68.1063 C   0  0  0  0  0  0
    9.8422   41.7093   67.1579 C   0  0  0  0  0  0
    9.9046   40.3450   66.8350 C   0  0  0  0  0  0
    9.1345   39.4160   67.5315 C   0  0  0  0  0  0
   10.6663   42.6936   66.6351 O   0  0  0  0  0  0
   11.7415   42.3713   65.7462 C   0  0  0  0  0  0
   12.9870   43.2259   66.0561 C   0  0  0  0  0  0
   14.2267   42.6248   65.5392 N   0  0  0  0  0  0
   15.4155   43.4163   65.8215 C   0  0  0  0  0  0
   16.5177   42.8042   64.9511 C   0  0  0  0  0  0
   15.7536   42.1863   63.7774 C   0  0  0  0  0  0
   14.2864   42.4893   64.0872 C   0  0  0  0  0  0
    9.8871   34.0589   73.5582 H   0  0  0  0  0  0
   10.8915   36.0591   74.5318 H   0  0  0  0  0  0
   10.5884   38.2469   73.5064 H   0  0  0  0  0  0
    8.4613   34.1824   71.5400 H   0  0  0  0  0  0
    7.4087   36.2721   69.6516 H   0  0  0  0  0  0
    7.4196   41.5344   69.5379 H   0  0  0  0  0  0
    8.8114   43.1779   68.3366 H   0  0  0  0  0  0
   10.5566   39.9591   66.0705 H   0  0  0  0  0  0
    9.2284   38.3648   67.3020 H   0  0  0  0  0  0
   11.4034   42.6150   64.7394 H   0  0  0  0  0  0
   12.0392   41.3255   65.7660 H   0  0  0  0  0  0
   13.0762   43.3542   67.1358 H   0  0  0  0  0  0
   12.8505   44.2200   65.6315 H   0  0  0  0  0  0
   15.6339   43.3800   66.8882 H   0  0  0  0  0  0
   15.2532   44.4712   65.6053 H   0  0  0  0  0  0
   17.1002   42.0668   65.5014 H   0  0  0  0  0  0
   17.2132   43.5708   64.6053 H   0  0  0  0  0  0
   16.0525   42.6155   62.8188 H   0  0  0  0  0  0
   15.9081   41.1125   63.6944 H   0  0  0  0  0  0
   13.9204   43.3784   63.5681 H   0  0  0  0  0  0
   13.6283   41.6799   63.7716 H   0  0  0  0  0  0
  1  2  2  0  0  0
  1  4  1  0  0  0
  1 25  1  0  0  0
  2  3  1  0  0  0
  2 26  1  0  0  0
  3  6  2  0  0  0
  3 27  1  0  0  0
  4  5  2  0  0  0
  4 28  1  0  0  0
  5  9  1  0  0  0
  5  6  1  0  0  0
  6  7  1  0  0  0
  7  8  2  0  0  0
  8  9  1  0  0  0
  8 10  1  0  0  0
  9 29  1  0  0  0
 10 11  1  0  0  0
 11 12  2  0  0  0
 11 16  1  0  0  0
 12 13  1  0  0  0
 12 30  1  0  0  0
 13 14  2  0  0  0
 13 31  1  0  0  0
 14 15  1  0  0  0
 14 17  1  0  0  0
 15 16  2  0  0  0
 15 32  1  0  0  0
 16 33  1  0  0  0
 17 18  1  0  0  0
 18 19  1  0  0  0
 18 34  1  0  0  0
 18 35  1  0  0  0
 19 20  1  0  0  0
 19 36  1  0  0  0
 19 37  1  0  0  0
 20 21  1  0  0  0
 20 24  1  0  0  0
 21 22  1  0  0  0
 21 38  1  0  0  0
 21 39  1  0  0  0
 22 23  1  0  0  0
 22 40  1  0  0  0
 22 41  1  0  0  0
 23 24  1  0  0  0
 23 42  1  0  0  0
 23 43  1  0  0  0
 24 44  1  0  0  0
 24 45  1  0  0  0
M  END
> <s_m_entry_id>
6988

> <s_m_entry_name>
dock_pv.418

> <s_m_Source_Path>
/home/csk/Desktop/cluster/DUD-E-result/lkha4

> <s_m_Source_File>
dock_pv.maegz

> <i_m_Source_File_Index>
418

> <chembl_id>
CHEMBL481862

> <chembl_pref_name>
None

> <i_lp_mmshare_version>
53161

> <i_f3d_flags>
0

> <r_lp_tautomer_probability>
1

> <s_lp_Force_Field>
OPLS_2005

> <r_lp_Energy>
39.166163

> <b_lp_Chiralities_Consistent>
1

> <s_lp_Variant>
CHEMBL4618_lig297-1

> <s_i_glide_gridfile>
glide-grid_3chp

> <i_i_glide_lignum>
335

> <i_i_glide_rotatable_bonds>
6

> <r_i_docking_score>
-8.10075958498461

> <r_i_glide_ligand_efficiency>
-0.337531649374359

> <r_i_glide_ligand_efficiency_sa>
-0.973609751519245

> <r_i_glide_ligand_efficiency_ln>
-1.9388834883226

> <r_i_glide_gscore>
-8.10075958498461

> <r_i_glide_lipo>
-4.36161612253958

> <r_i_glide_hbond>
0

> <r_i_glide_metal>
0

> <r_i_glide_rewards>
-1.64571263770518

> <r_i_glide_evdw>
-49.8644371032715

> <r_i_glide_ecoul>
-3.29931044578552

> <r_i_glide_erotb>
0.89468759729155

> <r_i_glide_esite>
0

> <r_i_glide_emodel>
-75.7642689676726

> <r_i_glide_energy>
-53.163747549057

> <r_i_glide_einternal>
4.99248361587524

> <i_i_glide_confnum>
2

> <i_i_glide_posenum>
160

> <r_i_glide_eff_state_penalty>
0

> <s_user_duplicate_titles>
CHEMBL4618_lig297,467516

> <s_m_subgroup_title>
dock_pv

> <s_m_subgroupid>
dock_pv

> <b_m_subgroup_collapsed>
1

$$$$
CHEMBL4618_lig376
                    3D
 Schrodinger Suite 2021-1.
 50 52  0  0  1  0            999 V2000
   11.2032   33.9962   73.9494 C   0  0  0  0  0  0
   11.3204   34.7660   75.1020 C   0  0  0  0  0  0
   10.5283   35.8908   75.2988 C   0  0  0  0  0  0
    9.5485   36.2026   74.3683 C   0  0  0  0  0  0
    9.3922   35.4158   73.2269 C   0  0  0  0  0  0
   10.2383   34.3272   73.0022 C   0  0  0  0  0  0
    8.1773   35.6302   72.3415 C   0  0  0  0  0  0
    8.2956   36.7217   71.3131 C   0  0  0  0  0  0
    8.5760   38.0286   71.6966 C   0  0  0  0  0  0
    8.7000   38.9986   70.7176 C   0  0  0  0  0  0
    8.5214   38.6676   69.3823 C   0  0  0  0  0  0
    8.1210   37.3920   69.0097 C   0  0  0  0  0  0
    8.0637   36.4175   69.9789 C   0  0  0  0  0  0
    8.8086   39.6390   68.4814 O   0  0  0  0  0  0
    9.2178   39.2731   67.1716 C   0  0  0  0  0  0
   10.2560   40.3163   66.7468 C   0  0  0  0  0  0
    9.7955   41.7069   66.8031 N   0  0  1  0  0  0
   10.2028   42.5527   65.6807 C   0  0  1  0  0  0
    9.3212   43.7942   65.8211 C   0  0  0  0  0  0
    8.2750   43.4633   66.8980 C   0  0  0  0  0  0
    8.3737   41.9806   67.0137 C   0  0  0  0  0  0
   11.7207   42.8902   65.6152 C   0  0  0  0  0  0
   12.5696   42.3694   66.3425 O   0  0  0  0  0  0
   11.9894   43.7705   64.6245 O   0  0  0  0  0  0
   13.3213   44.1646   64.3406 C   0  0  0  0  0  0
   11.8283   33.1250   73.8070 H   0  0  0  0  0  0
   12.0521   34.4938   75.8503 H   0  0  0  0  0  0
   10.6319   36.4866   76.1931 H   0  0  0  0  0  0
    8.8757   37.0171   74.5712 H   0  0  0  0  0  0
   10.1053   33.6977   72.1341 H   0  0  0  0  0  0
    7.3235   35.8880   72.9644 H   0  0  0  0  0  0
    7.9145   34.6826   71.8675 H   0  0  0  0  0  0
    8.7258   38.2896   72.7315 H   0  0  0  0  0  0
    8.9637   40.0034   70.9845 H   0  0  0  0  0  0
    7.9479   37.1255   67.9784 H   0  0  0  0  0  0
    7.8567   35.4173   69.6667 H   0  0  0  0  0  0
    8.3687   39.2395   66.4883 H   0  0  0  0  0  0
    9.6810   38.2928   67.1449 H   0  0  0  0  0  0
   10.6697   40.0591   65.7754 H   0  0  0  0  0  0
   11.0861   40.2621   67.4467 H   0  0  0  0  0  0
    9.9490   42.0651   64.7512 H   0  0  0  0  0  0
    9.8933   44.6161   66.1684 H   0  0  0  0  0  0
    8.9223   44.0804   64.8547 H   0  0  0  0  0  0
    8.5224   43.8159   67.8911 H   0  0  0  0  0  0
    7.2596   43.8206   66.7401 H   0  0  0  0  0  0
    8.0386   41.6978   68.0089 H   0  0  0  0  0  0
    7.7335   41.4273   66.3340 H   0  0  0  0  0  0
   13.3202   44.9083   63.5440 H   0  0  0  0  0  0
   13.9220   43.3141   64.0093 H   0  0  0  0  0  0
   13.7997   44.6137   65.2119 H   0  0  0  0  0  0
  1  6  1  0  0  0
  1  2  2  0  0  0
  1 26  1  0  0  0
  2  3  1  0  0  0
  2 27  1  0  0  0
  3  4  2  0  0  0
  3 28  1  0  0  0
  4  5  1  0  0  0
  4 29  1  0  0  0
  5  7  1  0  0  0
  5  6  2  0  0  0
  6 30  1  0  0  0
  7  8  1  0  0  0
  7 31  1  0  0  0
  7 32  1  0  0  0
  8 13  1  0  0  0
  8  9  2  0  0  0
  9 10  1  0  0  0
  9 33  1  0  0  0
 10 11  2  0  0  0
 10 34  1  0  0  0
 11 14  1  0  0  0
 11 12  1  0  0  0
 12 13  2  0  0  0
 12 35  1  0  0  0
 13 36  1  0  0  0
 14 15  1  0  0  0
 15 16  1  0  0  0
 15 37  1  0  0  0
 15 38  1  0  0  0
 16 17  1  0  0  0
 16 39  1  0  0  0
 16 40  1  0  0  0
 17 18  1  0  0  0
 17 21  1  0  0  0
 18 19  1  0  0  0
 18 22  1  0  0  0
 18 41  1  0  0  0
 19 20  1  0  0  0
 19 42  1  0  0  0
 19 43  1  0  0  0
 20 21  1  0  0  0
 20 44  1  0  0  0
 20 45  1  0  0  0
 21 46  1  0  0  0
 21 47  1  0  0  0
 22 23  2  0  0  0
 22 24  1  0  0  0
 24 25  1  0  0  0
 25 48  1  0  0  0
 25 49  1  0  0  0
 25 50  1  0  0  0
M  END
> <s_m_entry_id>
6989

> <s_m_entry_name>
dock_pv.419

> <s_m_Source_Path>
/home/csk/Desktop/cluster/DUD-E-result/lkha4

> <s_m_Source_File>
dock_pv.maegz

> <i_m_Source_File_Index>
419

> <chembl_id>
CHEMBL1770405

> <chembl_pref_name>
None

> <i_lp_mmshare_version>
53161

> <i_f3d_flags>
0

> <r_lp_tautomer_probability>
1

> <s_lp_Force_Field>
OPLS_2005

> <r_lp_Energy>
38.560314

> <b_lp_Chiralities_Consistent>
1

> <s_lp_Variant>
CHEMBL4618_lig376-2

> <s_i_glide_gridfile>
glide-grid_3chp

> <i_i_glide_lignum>
434

> <i_i_glide_rotatable_bonds>
8

> <r_i_docking_score>
-8.09705629919593

> <r_i_glide_ligand_efficiency>
-0.323882251967837

> <r_i_glide_ligand_efficiency_sa>
-0.947037448830152

> <r_i_glide_ligand_efficiency_ln>
-1.91924499210613

> <r_i_glide_gscore>
-8.09705629919593

> <r_i_glide_lipo>
-4.46137261012198

> <r_i_glide_hbond>
-0.00869330567183775

> <r_i_glide_metal>
0

> <r_i_glide_rewards>
-2.36701533319964

> <r_i_glide_evdw>
-37.3427963256836

> <r_i_glide_ecoul>
-3.61767768859863

> <r_i_glide_erotb>
1.14981641937151

> <r_i_glide_esite>
0

> <r_i_glide_emodel>
-42.7019119382098

> <r_i_glide_energy>
-40.9604740142822

> <r_i_glide_einternal>
8.23137664794922

> <i_i_glide_confnum>
2

> <i_i_glide_posenum>
99

> <r_i_glide_eff_state_penalty>
0

> <s_user_duplicate_titles>
CHEMBL4618_lig376,CHEMBL4618_lig34,187817

> <s_m_subgroup_title>
dock_pv

> <s_m_subgroupid>
dock_pv

> <b_m_subgroup_collapsed>
1

$$$$
CHEMBL4618_lig61
                    3D
 Schrodinger Suite 2021-1.
 47 49  0  0  1  0            999 V2000
   11.8082   42.3392   65.5490 N   0  0  0  0  0  0
    8.1867   37.7122   71.0435 C   0  0  0  0  0  0
    8.1230   37.2065   72.4853 C   0  0  0  0  0  0
    8.3834   38.6014   68.3839 C   0  0  0  0  0  0
    7.7683   36.8992   69.9987 C   0  0  0  0  0  0
    8.5885   39.0162   70.7514 C   0  0  0  0  0  0
    9.1286   36.1289   72.9058 C   0  0  0  0  0  0
    8.6477   39.4731   69.4367 C   0  0  0  0  0  0
    7.9076   37.3274   68.6905 C   0  0  0  0  0  0
   10.6360   42.1147   66.4007 C   0  0  0  0  0  0
   11.9020   43.6836   65.0099 C   0  0  0  0  0  0
   13.1059   42.1361   66.1723 C   0  0  0  0  0  0
    9.0049   40.3588   66.7529 O   0  0  0  0  0  0
    8.6234   38.9916   66.9221 C   0  0  0  0  0  0
   10.4081   40.6165   66.7153 C   0  0  0  0  0  0
    9.4071   35.0215   72.0947 C   0  0  0  0  0  0
    9.7427   36.2165   74.1608 C   0  0  0  0  0  0
   13.3020   43.7647   64.3963 C   0  0  0  0  0  0
   14.1099   42.7227   65.1770 C   0  0  0  0  0  0
   10.3038   34.0444   72.5140 C   0  0  0  0  0  0
   10.6467   35.2474   74.5806 C   0  0  0  0  0  0
   10.9213   34.1628   73.7556 C   0  0  0  0  0  0
    8.2386   38.0677   73.1404 H   0  0  0  0  0  0
    7.1189   36.8313   72.6780 H   0  0  0  0  0  0
    7.3721   35.9135   70.1844 H   0  0  0  0  0  0
    8.8314   39.7032   71.5400 H   0  0  0  0  0  0
    8.9216   40.4970   69.2383 H   0  0  0  0  0  0
    7.6608   36.6154   67.9397 H   0  0  0  0  0  0
   10.7240   42.6920   67.3234 H   0  0  0  0  0  0
    9.7553   42.5005   65.8822 H   0  0  0  0  0  0
   11.7229   44.4386   65.7735 H   0  0  0  0  0  0
   11.1066   43.8154   64.2739 H   0  0  0  0  0  0
   13.2595   41.0711   66.3479 H   0  0  0  0  0  0
   13.1630   42.6142   67.1493 H   0  0  0  0  0  0
    7.7091   38.8418   66.3639 H   0  0  0  0  0  0
    9.3215   38.2986   66.4627 H   0  0  0  0  0  0
   10.8657   39.9935   65.9428 H   0  0  0  0  0  0
   10.8709   40.3565   67.6686 H   0  0  0  0  0  0
    8.9256   34.8866   71.1434 H   0  0  0  0  0  0
    9.5048   37.0161   74.8375 H   0  0  0  0  0  0
   13.7207   44.7654   64.5025 H   0  0  0  0  0  0
   13.2870   43.5352   63.3291 H   0  0  0  0  0  0
   14.5005   41.9483   64.5131 H   0  0  0  0  0  0
   14.9567   43.1750   65.6927 H   0  0  0  0  0  0
   10.5062   33.1889   71.8856 H   0  0  0  0  0  0
   11.1086   35.3224   75.5551 H   0  0  0  0  0  0
   11.6060   33.3948   74.0868 H   0  0  0  0  0  0
  1 10  1  0  0  0
  1 11  1  0  0  0
  1 12  1  0  0  0
  2  5  2  0  0  0
  2  3  1  0  0  0
  2  6  1  0  0  0
  3  7  1  0  0  0
  3 23  1  0  0  0
  3 24  1  0  0  0
  4 14  1  0  0  0
  4  8  1  0  0  0
  4  9  2  0  0  0
  5  9  1  0  0  0
  5 25  1  0  0  0
  6  8  2  0  0  0
  6 26  1  0  0  0
  7 16  1  0  0  0
  7 17  2  0  0  0
  8 27  1  0  0  0
  9 28  1  0  0  0
 10 15  1  0  0  0
 10 29  1  0  0  0
 10 30  1  0  0  0
 11 18  1  0  0  0
 11 31  1  0  0  0
 11 32  1  0  0  0
 12 19  1  0  0  0
 12 33  1  0  0  0
 12 34  1  0  0  0
 13 15  1  0  0  0
 13 14  1  0  0  0
 14 35  1  0  0  0
 14 36  1  0  0  0
 15 37  1  0  0  0
 15 38  1  0  0  0
 16 20  2  0  0  0
 16 39  1  0  0  0
 17 21  1  0  0  0
 17 40  1  0  0  0
 18 19  1  0  0  0
 18 41  1  0  0  0
 18 42  1  0  0  0
 19 43  1  0  0  0
 19 44  1  0  0  0
 20 22  1  0  0  0
 20 45  1  0  0  0
 21 22  2  0  0  0
 21 46  1  0  0  0
 22 47  1  0  0  0
M  END
> <s_m_entry_id>
6990

> <s_m_entry_name>
dock_pv.420

> <s_m_Source_Path>
/home/csk/Desktop/cluster/DUD-E-result/lkha4

> <s_m_Source_File>
dock_pv.maegz

> <i_m_Source_File_Index>
420

> <chembl_id>
CHEMBL159827

> <chembl_pref_name>
None

> <i_lp_mmshare_version>
53161

> <i_f3d_flags>
0

> <r_lp_tautomer_probability>
1

> <s_lp_Force_Field>
OPLS_2005

> <r_lp_Energy>
46.644558

> <b_lp_Chiralities_Consistent>
1

> <s_lp_Variant>
CHEMBL4618_lig61-1

> <s_i_glide_gridfile>
glide-grid_3chp

> <i_i_glide_lignum>
79

> <i_i_glide_rotatable_bonds>
7

> <r_i_docking_score>
-8.09398357671448

> <r_i_glide_ligand_efficiency>
-0.367908344396113

> <r_i_glide_ligand_efficiency_sa>
-1.03089365001204

> <r_i_glide_ligand_efficiency_ln>
-1.97846482137338

> <r_i_glide_gscore>
-8.09398357671448

> <r_i_glide_lipo>
-5.87213239175462

> <r_i_glide_hbond>
0

> <r_i_glide_metal>
0

> <r_i_glide_rewards>
-2.29487318181818

> <r_i_glide_evdw>
-44.5968933105469

> <r_i_glide_ecoul>
-1.42636501789093

> <r_i_glide_erotb>
2.51682141506931

> <r_i_glide_esite>
0

> <r_i_glide_emodel>
-63.7930154554051

> <r_i_glide_energy>
-46.0232583284378

> <r_i_glide_einternal>
6.41202402114868

> <i_i_glide_confnum>
51

> <i_i_glide_posenum>
267

> <r_i_glide_eff_state_penalty>
0

> <s_user_duplicate_titles>
CHEMBL4618_lig61

> <s_m_subgroup_title>
dock_pv

> <s_m_subgroupid>
dock_pv

> <b_m_subgroup_collapsed>
1

$$$$
CHEMBL4618_lig233
                    3D
 Schrodinger Suite 2021-1.
 61 65  0  0  1  0            999 V2000
   14.3542   43.0183   64.5560 N   0  0  2  0  0  0
   15.4614   42.1642   64.9538 C   0  0  0  0  0  0
   16.6352   42.8815   65.6315 C   0  0  0  0  0  0
   16.4613   43.6457   66.7838 C   0  0  0  0  0  0
   17.5443   44.2040   67.4462 C   0  0  0  0  0  0
   18.8428   44.0106   66.9659 C   0  0  0  0  0  0
   19.0243   43.2688   65.7885 C   0  0  0  0  0  0
   17.9267   42.7045   65.1413 C   0  0  0  0  0  0
   19.9987   44.6138   67.7218 C   0  0  0  0  0  0
   21.2344   44.2031   67.3216 O   0  0  0  0  0  0
   19.8270   45.4159   68.6422 O   0  0  0  0  0  0
   11.6293   42.4249   65.5835 N   0  0  2  0  0  0
    8.0625   37.8161   69.8265 C   0  0  0  0  0  0
    8.2350   39.1356   70.2162 C   0  0  0  0  0  0
    8.5209   40.1318   69.2910 C   0  0  0  0  0  0
    8.7769   39.8088   67.9571 C   0  0  0  0  0  0
    8.5209   38.4977   67.5404 C   0  0  0  0  0  0
    8.1259   37.5191   68.4650 C   0  0  0  0  0  0
    9.3031   40.7259   67.0112 N   0  0  0  0  0  0
    9.7330   42.0044   67.1864 C   0  0  0  0  0  0
   10.2370   42.7680   65.9478 C   0  0  0  0  0  0
    9.7206   42.6142   68.2541 O   0  0  0  0  0  0
    7.7511   36.8332   70.7470 O   0  0  0  0  0  0
    8.6569   36.4331   71.7185 C   0  0  0  0  0  0
    9.2282   37.3019   72.6583 C   0  0  0  0  0  0
   10.1212   36.8244   73.6165 C   0  0  0  0  0  0
   10.4468   35.4749   73.6576 C   0  0  0  0  0  0
    9.8782   34.5999   72.7441 C   0  0  0  0  0  0
    8.9654   35.0754   71.8080 C   0  0  0  0  0  0
   12.6869   42.9622   66.4545 C   0  0  0  0  0  0
   12.0159   43.0160   64.2854 C   0  0  1  0  0  0
   13.5685   43.8194   65.5050 C   0  0  2  0  0  0
   12.5254   44.3949   64.5797 C   0  0  0  0  0  0
   13.3210   42.3262   63.8001 C   0  0  0  0  0  0
   15.8337   41.7222   64.0283 H   0  0  0  0  0  0
   15.0856   41.3308   65.5400 H   0  0  0  0  0  0
   15.4888   43.7816   67.2175 H   0  0  0  0  0  0
   17.3583   44.7622   68.3541 H   0  0  0  0  0  0
   19.9977   43.1120   65.3453 H   0  0  0  0  0  0
   18.0915   42.1338   64.2425 H   0  0  0  0  0  0
   21.1799   43.5146   66.6573 H   0  0  0  0  0  0
    8.1185   39.4163   71.2453 H   0  0  0  0  0  0
    8.5989   41.1405   69.6507 H   0  0  0  0  0  0
    8.6600   38.2196   66.5058 H   0  0  0  0  0  0
    7.9505   36.5070   68.1415 H   0  0  0  0  0  0
    9.4365   40.3441   66.0875 H   0  0  0  0  0  0
   10.1105   43.8376   66.1140 H   0  0  0  0  0  0
    9.5583   42.5125   65.1400 H   0  0  0  0  0  0
    8.9740   38.3442   72.6979 H   0  0  0  0  0  0
   10.5499   37.4971   74.3429 H   0  0  0  0  0  0
   11.1332   35.1041   74.4055 H   0  0  0  0  0  0
   10.1209   33.5473   72.7824 H   0  0  0  0  0  0
    8.5213   34.3652   71.1399 H   0  0  0  0  0  0
   13.2664   42.2018   66.9738 H   0  0  0  0  0  0
   12.2604   43.5898   67.2346 H   0  0  0  0  0  0
   11.2221   43.0192   63.5436 H   0  0  0  0  0  0
   14.1261   44.6159   65.9827 H   0  0  0  0  0  0
   12.9340   44.9263   63.7163 H   0  0  0  0  0  0
   11.7779   45.0159   65.0553 H   0  0  0  0  0  0
   13.4942   42.5082   62.7412 H   0  0  0  0  0  0
   13.3102   41.2401   63.9084 H   0  0  0  0  0  0
  1  2  1  0  0  0
  1 34  1  0  0  0
  1 32  1  0  0  0
  2  3  1  0  0  0
  2 35  1  0  0  0
  2 36  1  0  0  0
  3  8  1  0  0  0
  3  4  2  0  0  0
  4  5  1  0  0  0
  4 37  1  0  0  0
  5  6  2  0  0  0
  5 38  1  0  0  0
  6  7  1  0  0  0
  6  9  1  0  0  0
  7  8  2  0  0  0
  7 39  1  0  0  0
  8 40  1  0  0  0
  9 10  1  0  0  0
  9 11  2  0  0  0
 10 41  1  0  0  0
 12 21  1  0  0  0
 12 30  1  0  0  0
 12 31  1  0  0  0
 13 23  1  0  0  0
 13 18  1  0  0  0
 13 14  2  0  0  0
 14 15  1  0  0  0
 14 42  1  0  0  0
 15 16  2  0  0  0
 15 43  1  0  0  0
 16 17  1  0  0  0
 16 19  1  0  0  0
 17 18  2  0  0  0
 17 44  1  0  0  0
 18 45  1  0  0  0
 19 20  1  0  0  0
 19 46  1  0  0  0
 20 21  1  0  0  0
 20 22  2  0  0  0
 21 47  1  0  0  0
 21 48  1  0  0  0
 23 24  1  0  0  0
 24 29  1  0  0  0
 24 25  2  0  0  0
 25 26  1  0  0  0
 25 49  1  0  0  0
 26 27  2  0  0  0
 26 50  1  0  0  0
 27 28  1  0  0  0
 27 51  1  0  0  0
 28 29  2  0  0  0
 28 52  1  0  0  0
 29 53  1  0  0  0
 30 32  1  0  0  0
 30 54  1  0  0  0
 30 55  1  0  0  0
 31 33  1  0  0  0
 31 34  1  0  0  0
 31 56  1  0  0  0
 32 33  1  0  0  0
 32 57  1  0  0  0
 33 58  1  0  0  0
 33 59  1  0  0  0
 34 60  1  0  0  0
 34 61  1  0  0  0
M  END
> <s_m_entry_id>
6991

> <s_m_entry_name>
dock_pv.421

> <s_m_Source_Path>
/home/csk/Desktop/cluster/DUD-E-result/lkha4

> <s_m_Source_File>
dock_pv.maegz

> <i_m_Source_File_Index>
421

> <chembl_id>
CHEMBL520254

> <chembl_pref_name>
None

> <i_lp_mmshare_version>
53161

> <i_f3d_flags>
0

> <r_lp_tautomer_probability>
1

> <s_lp_Force_Field>
OPLS_2005

> <r_lp_Energy>
109.777799

> <b_lp_Chiralities_Consistent>
1

> <s_lp_Variant>
CHEMBL4618_lig233-1

> <s_i_glide_gridfile>
glide-grid_3chp

> <i_i_glide_lignum>
267

> <i_i_glide_rotatable_bonds>
10

> <r_i_docking_score>
-8.09355236001332

> <r_i_glide_ligand_efficiency>
-0.238045657647451

> <r_i_glide_ligand_efficiency_sa>
-0.771175520851059

> <r_i_glide_ligand_efficiency_ln>
-1.78809273278108

> <r_i_glide_gscore>
-8.09355236001332

> <r_i_glide_lipo>
-5.12890827963916

> <r_i_glide_hbond>
-0.16

> <r_i_glide_metal>
0

> <r_i_glide_rewards>
-0.772961200489804

> <r_i_glide_evdw>
-52.4214973449707

> <r_i_glide_ecoul>
-1.42948019504547

> <r_i_glide_erotb>
0.864443006454524

> <r_i_glide_esite>
-0.0606289898335236

> <r_i_glide_emodel>
-65.6474417078558

> <r_i_glide_energy>
-53.8509775400162

> <r_i_glide_einternal>
13.3920564651489

> <i_i_glide_confnum>
1

> <i_i_glide_posenum>
41

> <r_i_glide_eff_state_penalty>
0

> <s_user_duplicate_titles>
CHEMBL4618_lig233

> <s_m_subgroup_title>
dock_pv

> <s_m_subgroupid>
dock_pv

> <b_m_subgroup_collapsed>
1

$$$$
CHEMBL4618_lig399
                    3D
 Schrodinger Suite 2021-1.
 56 60  0  0  1  0            999 V2000
    9.2115   38.5621   69.5159 C   0  0  1  0  0  0
    9.1393   37.4942   71.8534 C   0  0  1  0  0  0
    7.7170   38.0518   71.8895 C   0  0  0  0  0  0
    7.1941   38.4836   70.5056 C   0  0  1  0  0  0
    8.1210   39.4556   69.9000 N   0  0  2  0  0  0
    9.9683   38.2954   70.8361 C   0  0  0  0  0  0
    7.1120   37.3446   69.4891 C   0  0  0  0  0  0
    8.5006   37.3411   68.8810 C   0  0  0  0  0  0
   18.1566   43.6947   66.1249 C   0  0  0  0  0  0
   16.8811   44.0804   66.5295 C   0  0  0  0  0  0
   17.2554   41.9015   64.7341 N   0  0  0  0  0  0
   18.2939   42.6161   65.2520 C   0  0  0  0  0  0
   16.0326   42.2815   65.0949 C   0  0  0  0  0  0
   15.8117   43.3426   66.0067 C   0  0  0  0  0  0
   14.1090   43.4160   66.3400 S   0  0  0  0  0  0
   13.8515   42.1172   65.2580 C   0  0  0  0  0  0
   14.9085   41.6515   64.6513 N   0  0  0  0  0  0
   12.5981   41.5896   65.1400 O   0  0  0  0  0  0
   11.5207   41.7864   65.9808 C   0  0  0  0  0  0
   10.9210   40.6048   66.3400 C   0  0  0  0  0  0
    9.7321   40.5422   67.0121 C   0  0  0  0  0  0
    9.1855   41.6995   67.5222 C   0  0  0  0  0  0
    9.7324   42.9245   67.1299 C   0  0  0  0  0  0
   10.8927   42.9837   66.3400 C   0  0  0  0  0  0
    7.9902   41.6299   68.4585 C   0  0  0  0  0  0
    7.4524   40.2197   68.8257 C   0  0  0  0  0  0
    9.7339   37.3237   73.1708 N   0  0  0  0  0  0
   10.1210   36.1608   73.7214 C   0  0  0  0  0  0
   10.6097   36.2270   75.1629 C   0  0  0  0  0  0
   10.1088   35.0826   73.1302 O   0  0  0  0  0  0
    9.9480   39.0160   68.8687 H   0  0  0  0  0  0
    9.0285   36.5023   71.4084 H   0  0  0  0  0  0
    7.0283   37.3372   72.3401 H   0  0  0  0  0  0
    7.7213   38.9633   72.4816 H   0  0  0  0  0  0
    6.2214   38.8876   70.7400 H   0  0  0  0  0  0
   10.2471   39.2934   71.1400 H   0  0  0  0  0  0
   10.9203   37.8160   70.7422 H   0  0  0  0  0  0
    6.8681   36.3851   69.9400 H   0  0  0  0  0  0
    6.3802   37.5372   68.7073 H   0  0  0  0  0  0
    8.9210   36.3828   69.1400 H   0  0  0  0  0  0
    8.4625   37.4161   67.7936 H   0  0  0  0  0  0
   19.0304   44.2162   66.4856 H   0  0  0  0  0  0
   16.7248   44.8853   67.2323 H   0  0  0  0  0  0
   19.2786   42.3204   64.9203 H   0  0  0  0  0  0
   11.3218   39.6927   65.9400 H   0  0  0  0  0  0
    9.2649   39.5786   67.1055 H   0  0  0  0  0  0
    9.2160   43.8160   67.4234 H   0  0  0  0  0  0
   11.2816   43.9347   66.0100 H   0  0  0  0  0  0
    7.1889   42.1693   67.9499 H   0  0  0  0  0  0
    8.1946   42.1939   69.3692 H   0  0  0  0  0  0
    7.3210   39.5926   67.9469 H   0  0  0  0  0  0
    6.4551   40.4366   69.1626 H   0  0  0  0  0  0
    9.7214   38.1377   73.7738 H   0  0  0  0  0  0
   11.0953   37.1795   75.3735 H   0  0  0  0  0  0
   11.3219   35.4263   75.3644 H   0  0  0  0  0  0
    9.7700   36.1129   75.8482 H   0  0  0  0  0  0
  1  5  1  0  0  0
  1  6  1  0  0  0
  1  8  1  0  0  0
  1 31  1  0  0  0
  2  3  1  0  0  0
  2  6  1  0  0  0
  2 27  1  0  0  0
  2 32  1  0  0  0
  3  4  1  0  0  0
  3 33  1  0  0  0
  3 34  1  0  0  0
  4  5  1  0  0  0
  4  7  1  0  0  0
  4 35  1  0  0  0
  5 26  1  0  0  0
  6 36  1  0  0  0
  6 37  1  0  0  0
  7  8  1  0  0  0
  7 38  1  0  0  0
  7 39  1  0  0  0
  8 40  1  0  0  0
  8 41  1  0  0  0
  9 10  2  0  0  0
  9 12  1  0  0  0
  9 42  1  0  0  0
 10 14  1  0  0  0
 10 43  1  0  0  0
 11 13  1  0  0  0
 11 12  2  0  0  0
 12 44  1  0  0  0
 13 14  2  0  0  0
 13 17  1  0  0  0
 14 15  1  0  0  0
 15 16  1  0  0  0
 16 17  2  0  0  0
 16 18  1  0  0  0
 18 19  1  0  0  0
 19 20  2  0  0  0
 19 24  1  0  0  0
 20 21  1  0  0  0
 20 45  1  0  0  0
 21 22  2  0  0  0
 21 46  1  0  0  0
 22 23  1  0  0  0
 22 25  1  0  0  0
 23 24  2  0  0  0
 23 47  1  0  0  0
 24 48  1  0  0  0
 25 26  1  0  0  0
 25 49  1  0  0  0
 25 50  1  0  0  0
 26 51  1  0  0  0
 26 52  1  0  0  0
 27 28  1  0  0  0
 27 53  1  0  0  0
 28 29  1  0  0  0
 28 30  2  0  0  0
 29 54  1  0  0  0
 29 55  1  0  0  0
 29 56  1  0  0  0
M  END
> <s_m_entry_id>
6992

> <s_m_entry_name>
dock_pv.422

> <s_m_Source_Path>
/home/csk/Desktop/cluster/DUD-E-result/lkha4

> <s_m_Source_File>
dock_pv.maegz

> <i_m_Source_File_Index>
422

> <chembl_id>
CHEMBL2207747

> <chembl_pref_name>
None

> <i_lp_mmshare_version>
53161

> <i_f3d_flags>
0

> <r_lp_tautomer_probability>
1

> <s_lp_Force_Field>
OPLS_2005

> <r_lp_Energy>
49.636079

> <b_lp_Chiralities_Consistent>
1

> <s_lp_Variant>
CHEMBL4618_lig399-2

> <s_i_glide_gridfile>
glide-grid_3chp

> <i_i_glide_lignum>
463

> <i_i_glide_rotatable_bonds>
7

> <r_i_docking_score>
-8.09214624300897

> <r_i_glide_ligand_efficiency>
-0.269738208100299

> <r_i_glide_ligand_efficiency_sa>
-0.83813932735677

> <r_i_glide_ligand_efficiency_ln>
-1.8386237974069

> <r_i_glide_gscore>
-8.09214624300897

> <r_i_glide_lipo>
-4.44288892333059

> <r_i_glide_hbond>
-0.32

> <r_i_glide_metal>
0

> <r_i_glide_rewards>
-1.88385329654378

> <r_i_glide_evdw>
-26.5232391357422

> <r_i_glide_ecoul>
-4.56672716140747

> <r_i_glide_erotb>
0.66576700786364

> <r_i_glide_esite>
-0.1

> <r_i_glide_emodel>
-44.2022332881327

> <r_i_glide_energy>
-31.0899662971497

> <r_i_glide_einternal>
10.8216218948364

> <i_i_glide_confnum>
84

> <i_i_glide_posenum>
40

> <r_i_glide_eff_state_penalty>
0

> <s_user_duplicate_titles>
CHEMBL4618_lig399

> <s_m_subgroup_title>
dock_pv

> <s_m_subgroupid>
dock_pv

> <b_m_subgroup_collapsed>
1

$$$$
CHEMBL4618_lig87
                    3D
 Schrodinger Suite 2021-1.
 49 52  0  0  1  0            999 V2000
   17.5158   42.9574   66.1331 N   0  0  1  0  0  0
   19.7931   42.2160   66.7022 C   0  0  0  0  0  0
   18.9404   42.9974   65.6948 C   0  0  2  0  0  0
   19.6862   42.6164   67.9841 C   0  0  0  0  0  0
   17.3646   43.4284   67.5439 C   0  0  0  0  0  0
   19.4663   44.4691   65.8430 C   0  0  0  0  0  0
   18.7425   43.8019   68.1918 C   0  0  2  0  0  0
   10.3974   42.0250   66.3531 C   0  0  0  0  0  0
    8.9429   41.8674   66.8205 C   0  0  0  0  0  0
   16.6093   43.5693   65.1407 C   0  0  0  0  0  0
   13.1038   42.3222   65.6303 C   0  0  0  0  0  0
   19.3488   44.9493   67.3316 C   0  0  0  0  0  0
   10.8805   43.2671   65.9401 C   0  0  0  0  0  0
   11.2696   40.9407   66.3399 C   0  0  0  0  0  0
   12.5930   41.0745   65.9399 C   0  0  0  0  0  0
   12.2257   43.4165   65.5938 C   0  0  0  0  0  0
    8.6275   40.6087   67.6401 C   0  0  0  0  0  0
   14.4678   42.3714   65.4103 O   0  0  0  0  0  0
   15.1011   43.6388   65.4780 C   0  0  0  0  0  0
    8.5212   39.3663   67.0067 C   0  0  0  0  0  0
    8.4581   40.6828   69.0256 C   0  0  0  0  0  0
    8.3028   38.2161   67.7520 C   0  0  0  0  0  0
    8.2382   39.5199   69.7655 C   0  0  0  0  0  0
    8.1570   38.2902   69.1283 C   0  0  0  0  0  0
   20.4534   41.4159   66.4045 H   0  0  0  0  0  0
   19.0734   42.6147   64.6826 H   0  0  0  0  0  0
   20.2473   42.1515   68.7824 H   0  0  0  0  0  0
   16.9149   42.6343   68.1389 H   0  0  0  0  0  0
   16.7325   44.3149   67.6045 H   0  0  0  0  0  0
   18.9604   45.1442   65.1592 H   0  0  0  0  0  0
   20.5134   44.4957   65.5421 H   0  0  0  0  0  0
   18.6427   44.0673   69.2443 H   0  0  0  0  0  0
    8.2991   41.8867   65.9416 H   0  0  0  0  0  0
    8.6671   42.7491   67.4024 H   0  0  0  0  0  0
   16.7205   43.0297   64.1987 H   0  0  0  0  0  0
   16.9247   44.5912   64.9428 H   0  0  0  0  0  0
   20.3260   45.2470   67.7162 H   0  0  0  0  0  0
   18.7009   45.8213   67.3929 H   0  0  0  0  0  0
   10.2237   44.1261   65.9332 H   0  0  0  0  0  0
   10.9211   39.9585   66.6089 H   0  0  0  0  0  0
   13.2505   40.2177   65.9391 H   0  0  0  0  0  0
   12.5698   44.4004   65.3241 H   0  0  0  0  0  0
   14.9216   44.0994   66.4501 H   0  0  0  0  0  0
   14.6256   44.2805   64.7402 H   0  0  0  0  0  0
    8.6585   39.2753   65.9403 H   0  0  0  0  0  0
    8.5160   41.6311   69.5397 H   0  0  0  0  0  0
    8.2822   37.2620   67.2651 H   0  0  0  0  0  0
    8.1216   39.5681   70.8368 H   0  0  0  0  0  0
    7.9916   37.3910   69.7060 H   0  0  0  0  0  0
  1  3  1  0  0  0
  1  5  1  0  0  0
  1 10  1  0  0  0
  2  3  1  0  0  0
  2  4  2  0  0  0
  2 25  1  0  0  0
  3  6  1  0  0  0
  3 26  1  0  0  0
  4  7  1  0  0  0
  4 27  1  0  0  0
  5  7  1  0  0  0
  5 28  1  0  0  0
  5 29  1  0  0  0
  6 12  1  0  0  0
  6 30  1  0  0  0
  6 31  1  0  0  0
  7 12  1  0  0  0
  7 32  1  0  0  0
  8 13  1  0  0  0
  8  9  1  0  0  0
  8 14  2  0  0  0
  9 17  1  0  0  0
  9 33  1  0  0  0
  9 34  1  0  0  0
 10 19  1  0  0  0
 10 35  1  0  0  0
 10 36  1  0  0  0
 11 18  1  0  0  0
 11 15  2  0  0  0
 11 16  1  0  0  0
 12 37  1  0  0  0
 12 38  1  0  0  0
 13 16  2  0  0  0
 13 39  1  0  0  0
 14 15  1  0  0  0
 14 40  1  0  0  0
 15 41  1  0  0  0
 16 42  1  0  0  0
 17 20  1  0  0  0
 17 21  2  0  0  0
 18 19  1  0  0  0
 19 43  1  0  0  0
 19 44  1  0  0  0
 20 22  2  0  0  0
 20 45  1  0  0  0
 21 23  1  0  0  0
 21 46  1  0  0  0
 22 24  1  0  0  0
 22 47  1  0  0  0
 23 24  2  0  0  0
 23 48  1  0  0  0
 24 49  1  0  0  0
M  END
> <s_m_entry_id>
6993

> <s_m_entry_name>
dock_pv.423

> <s_m_Source_Path>
/home/csk/Desktop/cluster/DUD-E-result/lkha4

> <s_m_Source_File>
dock_pv.maegz

> <i_m_Source_File_Index>
423

> <chembl_id>
CHEMBL350586

> <chembl_pref_name>
None

> <i_lp_mmshare_version>
53161

> <i_f3d_flags>
0

> <r_lp_tautomer_probability>
1

> <s_lp_Force_Field>
OPLS_2005

> <r_lp_Energy>
58.922542

> <b_lp_Chiralities_Consistent>
1

> <s_lp_Variant>
CHEMBL4618_lig87-1

> <s_i_glide_gridfile>
glide-grid_3chp

> <i_i_glide_lignum>
109

> <i_i_glide_rotatable_bonds>
6

> <r_i_docking_score>
-8.0836079473069

> <r_i_glide_ligand_efficiency>
-0.336816997804454

> <r_i_glide_ligand_efficiency_sa>
-0.9715483396822

> <r_i_glide_ligand_efficiency_ln>
-1.93477831438895

> <r_i_glide_gscore>
-8.0836079473069

> <r_i_glide_lipo>
-4.07110625251902

> <r_i_glide_hbond>
-0.0265676060945701

> <r_i_glide_metal>
0

> <r_i_glide_rewards>
-2.11453382598333

> <r_i_glide_evdw>
-37.2079010009766

> <r_i_glide_ecoul>
-6.16853618621826

> <r_i_glide_erotb>
0.914275215271584

> <r_i_glide_esite>
0

> <r_i_glide_emodel>
-60.987109754846

> <r_i_glide_energy>
-43.3764371871948

> <r_i_glide_einternal>
6.52086591720581

> <i_i_glide_confnum>
11

> <i_i_glide_posenum>
206

> <r_i_glide_eff_state_penalty>
0

> <s_user_duplicate_titles>
CHEMBL4618_lig87

> <s_m_subgroup_title>
dock_pv

> <s_m_subgroupid>
dock_pv

> <b_m_subgroup_collapsed>
1

$$$$
CHEMBL4618_lig94
                    3D
 Schrodinger Suite 2021-1.
 40 41  0  0  1  0            999 V2000
    8.4586   40.1324   68.3474 C   0  0  0  0  0  0
   14.7234   42.7330   65.3807 N   0  0  0  0  0  0
    7.4886   39.1790   69.0336 C   0  0  0  0  0  0
   10.2508   41.8893   67.0970 C   0  0  0  0  0  0
    8.4243   41.4994   68.6377 C   0  0  0  0  0  0
    9.3193   39.6631   67.3604 C   0  0  0  0  0  0
   10.2051   40.5373   66.7400 C   0  0  0  0  0  0
    9.3121   42.3681   68.0077 C   0  0  0  0  0  0
    8.0709   38.2109   70.0678 C   0  0  0  0  0  0
   11.1916   42.7880   66.6276 O   0  0  0  0  0  0
   12.3025   42.3017   65.8721 C   0  0  0  0  0  0
   13.4914   43.2724   65.9761 C   0  0  0  0  0  0
   15.8333   43.6507   65.6174 C   0  0  0  0  0  0
   14.5723   42.5267   63.9376 C   0  0  0  0  0  0
    8.0731   36.8306   69.8487 C   0  0  0  0  0  0
    8.5254   38.6941   71.2914 C   0  0  0  0  0  0
    8.5207   35.9648   70.8526 C   0  0  0  0  0  0
    8.9943   37.8233   72.2726 C   0  0  0  0  0  0
    8.9805   36.4586   72.0599 C   0  0  0  0  0  0
    6.7663   39.8159   69.5400 H   0  0  0  0  0  0
    6.9315   38.6194   68.2821 H   0  0  0  0  0  0
    7.7226   41.8917   69.3592 H   0  0  0  0  0  0
    9.3206   38.6160   67.0890 H   0  0  0  0  0  0
   10.8714   40.1289   65.9953 H   0  0  0  0  0  0
    9.2944   43.4156   68.2565 H   0  0  0  0  0  0
   11.9832   42.2172   64.8340 H   0  0  0  0  0  0
   12.6436   41.3242   66.2188 H   0  0  0  0  0  0
   13.6630   43.4916   67.0313 H   0  0  0  0  0  0
   13.2248   44.2180   65.5035 H   0  0  0  0  0  0
   16.7645   43.2450   65.2172 H   0  0  0  0  0  0
   15.9802   43.8177   66.6860 H   0  0  0  0  0  0
   15.6608   44.6147   65.1408 H   0  0  0  0  0  0
   15.5247   42.2832   63.4635 H   0  0  0  0  0  0
   13.8954   41.6989   63.7278 H   0  0  0  0  0  0
   14.1696   43.4130   63.4423 H   0  0  0  0  0  0
    7.7209   36.4214   68.9133 H   0  0  0  0  0  0
    8.5239   39.7559   71.4835 H   0  0  0  0  0  0
    8.5211   34.8979   70.7187 H   0  0  0  0  0  0
    9.3710   38.2159   73.1995 H   0  0  0  0  0  0
    9.3318   35.7843   72.8276 H   0  0  0  0  0  0
  1  3  1  0  0  0
  1  5  1  0  0  0
  1  6  2  0  0  0
  2 12  1  0  0  0
  2 13  1  0  0  0
  2 14  1  0  0  0
  3  9  1  0  0  0
  3 20  1  0  0  0
  3 21  1  0  0  0
  4  7  2  0  0  0
  4 10  1  0  0  0
  4  8  1  0  0  0
  5  8  2  0  0  0
  5 22  1  0  0  0
  6  7  1  0  0  0
  6 23  1  0  0  0
  7 24  1  0  0  0
  8 25  1  0  0  0
  9 15  2  0  0  0
  9 16  1  0  0  0
 10 11  1  0  0  0
 11 12  1  0  0  0
 11 26  1  0  0  0
 11 27  1  0  0  0
 12 28  1  0  0  0
 12 29  1  0  0  0
 13 30  1  0  0  0
 13 31  1  0  0  0
 13 32  1  0  0  0
 14 33  1  0  0  0
 14 34  1  0  0  0
 14 35  1  0  0  0
 15 17  1  0  0  0
 15 36  1  0  0  0
 16 18  2  0  0  0
 16 37  1  0  0  0
 17 19  2  0  0  0
 17 38  1  0  0  0
 18 19  1  0  0  0
 18 39  1  0  0  0
 19 40  1  0  0  0
M  END
> <s_m_entry_id>
6994

> <s_m_entry_name>
dock_pv.424

> <s_m_Source_Path>
/home/csk/Desktop/cluster/DUD-E-result/lkha4

> <s_m_Source_File>
dock_pv.maegz

> <i_m_Source_File_Index>
424

> <chembl_id>
CHEMBL163478

> <chembl_pref_name>
None

> <i_lp_mmshare_version>
53161

> <i_f3d_flags>
0

> <r_lp_tautomer_probability>
1

> <s_lp_Force_Field>
OPLS_2005

> <r_lp_Energy>
19.936993

> <b_lp_Chiralities_Consistent>
1

> <s_lp_Variant>
CHEMBL4618_lig94-1

> <s_i_glide_gridfile>
glide-grid_3chp

> <i_i_glide_lignum>
117

> <i_i_glide_rotatable_bonds>
6

> <r_i_docking_score>
-8.08317934733281

> <r_i_glide_ligand_efficiency>
-0.425430491964885

> <r_i_glide_ligand_efficiency_sa>
-1.13521942506149

> <r_i_glide_ligand_efficiency_ln>
-2.04925957532267

> <r_i_glide_gscore>
-8.08317934733281

> <r_i_glide_lipo>
-4.54072784417684

> <r_i_glide_hbond>
0

> <r_i_glide_metal>
0

> <r_i_glide_rewards>
-2.56637252702002

> <r_i_glide_evdw>
-33.6157531738281

> <r_i_glide_ecoul>
-4.3018651008606

> <r_i_glide_erotb>
1.34998844768455

> <r_i_glide_esite>
0

> <r_i_glide_emodel>
-56.6776348822905

> <r_i_glide_energy>
-37.9176182746887

> <r_i_glide_einternal>
3.11645603179932

> <i_i_glide_confnum>
202

> <i_i_glide_posenum>
312

> <r_i_glide_eff_state_penalty>
0

> <s_user_duplicate_titles>
CHEMBL4618_lig94,272069

> <s_m_subgroup_title>
dock_pv

> <s_m_subgroupid>
dock_pv

> <b_m_subgroup_collapsed>
1

$$$$
CHEMBL4618_lig487
                    3D
 Schrodinger Suite 2021-1.
 48 50  0  0  1  0            999 V2000
   10.9164   37.4253   73.9516 N   0  0  0  0  0  0
   10.4477   36.1867   73.5360 C   0  0  0  0  0  0
   10.9389   35.0896   74.2425 C   0  0  0  0  0  0
   10.8534   33.8161   73.7037 C   0  0  0  0  0  0
   10.1211   33.6170   72.5436 C   0  0  0  0  0  0
    9.4667   34.6876   71.9400 C   0  0  0  0  0  0
    9.6627   36.0135   72.3693 C   0  0  0  0  0  0
    9.2305   37.1416   71.5892 N   0  0  0  0  0  0
    8.4397   37.1493   70.4752 C   0  0  0  0  0  0
    7.7215   36.2162   70.1387 O   0  0  0  0  0  0
    8.4988   38.3410   69.5413 C   0  0  0  0  0  0
    8.4763   38.1537   68.1480 C   0  0  0  0  0  0
    8.5339   39.2391   67.2695 C   0  0  0  0  0  0
    8.5844   40.5389   67.7798 C   0  0  0  0  0  0
    8.7070   41.7718   66.8932 C   0  0  0  0  0  0
   10.0901   41.9818   66.4835 N   0  0  0  0  0  0
   10.4831   43.0153   65.6389 C   0  0  0  0  0  0
    9.7258   43.8446   65.1468 O   0  0  0  0  0  0
   11.8244   43.0313   65.3815 O   0  0  0  0  0  0
   12.6902   41.9377   65.6722 C   0  0  0  0  0  0
   14.1212   42.2454   65.2827 C   0  0  0  0  0  0
   14.8398   43.2767   65.8974 C   0  0  0  0  0  0
   16.2031   43.4160   65.6239 C   0  0  0  0  0  0
   16.8047   42.5171   64.7402 C   0  0  0  0  0  0
   16.1220   41.5128   64.1330 N   0  0  0  0  0  0
   14.7927   41.4158   64.3830 C   0  0  0  0  0  0
    8.5207   40.7280   69.1506 C   0  0  0  0  0  0
    8.5210   39.6422   70.0274 C   0  0  0  0  0  0
   10.1761   38.0624   74.2394 H   0  0  0  0  0  0
   11.6356   37.3314   74.6493 H   0  0  0  0  0  0
   11.5167   35.2242   75.1466 H   0  0  0  0  0  0
   11.3236   32.9833   74.2058 H   0  0  0  0  0  0
   10.0095   32.6175   72.1477 H   0  0  0  0  0  0
    8.8506   34.4427   71.1013 H   0  0  0  0  0  0
    9.7005   38.0039   71.8150 H   0  0  0  0  0  0
    8.4488   37.1538   67.7382 H   0  0  0  0  0  0
    8.5605   39.0614   66.2033 H   0  0  0  0  0  0
    8.0493   41.7103   66.0317 H   0  0  0  0  0  0
    8.3624   42.6540   67.4387 H   0  0  0  0  0  0
   10.7957   41.3705   66.8615 H   0  0  0  0  0  0
   12.6755   41.7080   66.7381 H   0  0  0  0  0  0
   12.3519   41.0444   65.1435 H   0  0  0  0  0  0
   14.3534   43.9377   66.6004 H   0  0  0  0  0  0
   16.7784   44.2104   66.0758 H   0  0  0  0  0  0
   17.8492   42.6155   64.4747 H   0  0  0  0  0  0
   14.2728   40.6162   63.8717 H   0  0  0  0  0  0
    8.5222   41.7342   69.5398 H   0  0  0  0  0  0
    8.5208   39.8160   71.0938 H   0  0  0  0  0  0
  1  2  1  0  0  0
  1 29  1  0  0  0
  1 30  1  0  0  0
  2  3  2  0  0  0
  2  7  1  0  0  0
  3  4  1  0  0  0
  3 31  1  0  0  0
  4  5  2  0  0  0
  4 32  1  0  0  0
  5  6  1  0  0  0
  5 33  1  0  0  0
  6  7  2  0  0  0
  6 34  1  0  0  0
  7  8  1  0  0  0
  8  9  1  0  0  0
  8 35  1  0  0  0
  9 10  2  0  0  0
  9 11  1  0  0  0
 11 12  2  0  0  0
 11 28  1  0  0  0
 12 13  1  0  0  0
 12 36  1  0  0  0
 13 14  2  0  0  0
 13 37  1  0  0  0
 14 15  1  0  0  0
 14 27  1  0  0  0
 15 16  1  0  0  0
 15 38  1  0  0  0
 15 39  1  0  0  0
 16 17  1  0  0  0
 16 40  1  0  0  0
 17 18  2  0  0  0
 17 19  1  0  0  0
 19 20  1  0  0  0
 20 21  1  0  0  0
 20 41  1  0  0  0
 20 42  1  0  0  0
 21 22  2  0  0  0
 21 26  1  0  0  0
 22 23  1  0  0  0
 22 43  1  0  0  0
 23 24  2  0  0  0
 23 44  1  0  0  0
 24 25  1  0  0  0
 24 45  1  0  0  0
 25 26  2  0  0  0
 26 46  1  0  0  0
 27 28  2  0  0  0
 27 47  1  0  0  0
 28 48  1  0  0  0
M  END
> <s_m_entry_id>
6995

> <s_m_entry_name>
dock_pv.425

> <s_m_Source_Path>
/home/csk/Desktop/cluster/DUD-E-result/lkha4

> <s_m_Source_File>
dock_pv.maegz

> <i_m_Source_File_Index>
425

> <chembl_id>
CHEMBL27759

> <chembl_pref_name>
ENTINOSTAT

> <i_lp_mmshare_version>
53161

> <i_f3d_flags>
0

> <r_lp_tautomer_probability>
1

> <s_lp_Force_Field>
OPLS_2005

> <r_lp_Energy>
23.46752

> <b_lp_Chiralities_Consistent>
1

> <s_lp_Variant>
CHEMBL4618_lig487-1

> <s_i_glide_gridfile>
glide-grid_3chp

> <i_i_glide_lignum>
587

> <i_i_glide_rotatable_bonds>
9

> <r_i_docking_score>
-8.0817020084715

> <r_i_glide_ligand_efficiency>
-0.288632214588268

> <r_i_glide_ligand_efficiency_sa>
-0.876457398773272

> <r_i_glide_ligand_efficiency_ln>
-1.86549411263705

> <r_i_glide_gscore>
-8.0817020084715

> <r_i_glide_lipo>
-4.03897067809438

> <r_i_glide_hbond>
-0.535875324916636

> <r_i_glide_metal>
0

> <r_i_glide_rewards>
-0.841186506177536

> <r_i_glide_evdw>
-48.1752967834473

> <r_i_glide_ecoul>
-8.95688152313232

> <r_i_glide_erotb>
1.09299241431272

> <r_i_glide_esite>
-0.00636484595346595

> <r_i_glide_emodel>
-64.4414821020665

> <r_i_glide_energy>
-57.1321783065796

> <r_i_glide_einternal>
14.9068565368652

> <i_i_glide_confnum>
38

> <i_i_glide_posenum>
299

> <r_i_glide_eff_state_penalty>
0

> <s_user_duplicate_titles>
CHEMBL4618_lig487

> <s_m_subgroup_title>
dock_pv

> <s_m_subgroupid>
dock_pv

> <b_m_subgroup_collapsed>
1

$$$$
CHEMBL4618_lig494
                    3D
 Schrodinger Suite 2021-1.
 58 60  0  0  1  0            999 V2000
    7.7211   42.8551   67.2912 N   0  0  0  0  0  0
    7.1849   41.9846   68.1759 C   0  0  0  0  0  0
    7.7139   40.8670   68.6704 N   0  0  0  0  0  0
    8.9208   40.5583   68.1853 C   0  0  0  0  0  0
    8.9585   42.5623   66.8392 C   0  0  0  0  0  0
    9.6317   41.3868   67.2618 C   0  0  0  0  0  0
   10.9210   41.1402   66.7607 C   0  0  0  0  0  0
   11.5572   42.0514   65.9121 C   0  0  0  0  0  0
   10.8448   43.1377   65.4344 C   0  0  0  0  0  0
    9.5662   43.4160   65.9014 C   0  0  0  0  0  0
   11.3146   43.8160   64.3400 O   0  0  0  0  0  0
   12.5879   44.4549   64.3818 C   0  0  0  0  0  0
   12.8169   41.9586   65.3720 O   0  0  0  0  0  0
   13.6937   40.9301   65.6782 C   0  0  0  0  0  0
   15.0799   41.3530   65.1392 C   0  0  0  0  0  0
   15.6577   42.7324   65.5398 C   0  0  0  0  0  0
   17.1147   42.8587   65.0519 C   0  0  0  0  0  0
   17.8079   44.2009   65.3553 C   0  0  0  0  0  0
   18.5072   44.2960   66.7342 C   0  0  0  0  0  0
   17.6313   44.8245   67.8762 C   0  0  0  0  0  0
   16.9211   45.8159   67.6943 O   0  0  0  0  0  0
   17.7209   44.1720   69.0477 N   0  0  0  0  0  0
   16.9217   44.6162   70.1141 O   0  0  0  0  0  0
    9.4483   39.3794   68.6847 N   0  0  0  0  0  0
    8.9601   38.5210   69.6697 C   0  0  0  0  0  0
    9.5982   38.4517   70.9141 C   0  0  0  0  0  0
    9.3052   37.4164   71.8067 C   0  0  0  0  0  0
    8.3541   36.4676   71.4505 C   0  0  0  0  0  0
    7.7209   36.5600   70.2160 C   0  0  0  0  0  0
    7.9992   37.5844   69.3270 C   0  0  0  0  0  0
   10.0312   37.2494   73.0562 C   0  0  0  0  0  0
   10.6010   37.0160   74.1108 C   0  0  0  0  0  0
    6.2000   42.2160   68.5406 H   0  0  0  0  0  0
   11.3335   40.2160   67.0530 H   0  0  0  0  0  0
    9.0066   44.2587   65.5245 H   0  0  0  0  0  0
   12.5210   45.4465   63.9398 H   0  0  0  0  0  0
   12.9865   44.5644   65.3902 H   0  0  0  0  0  0
   13.2971   43.8935   63.7734 H   0  0  0  0  0  0
   13.7198   40.7360   66.7400 H   0  0  0  0  0  0
   13.3209   40.0326   65.1885 H   0  0  0  0  0  0
   15.7950   40.6160   65.4646 H   0  0  0  0  0  0
   15.0428   41.2956   64.0485 H   0  0  0  0  0  0
   15.0726   43.5213   65.0747 H   0  0  0  0  0  0
   15.5911   42.9293   66.6098 H   0  0  0  0  0  0
   17.7269   42.0414   65.4345 H   0  0  0  0  0  0
   17.1014   42.7275   63.9671 H   0  0  0  0  0  0
   18.5816   44.3402   64.5982 H   0  0  0  0  0  0
   17.1035   45.0160   65.1935 H   0  0  0  0  0  0
   18.9817   43.3483   66.9934 H   0  0  0  0  0  0
   19.3212   45.0162   66.6503 H   0  0  0  0  0  0
   18.2465   43.3357   69.2614 H   0  0  0  0  0  0
   16.1594   44.0214   70.0810 H   0  0  0  0  0  0
   10.3096   39.0742   68.2560 H   0  0  0  0  0  0
   10.3951   39.1394   71.1400 H   0  0  0  0  0  0
    8.1177   35.6403   72.1058 H   0  0  0  0  0  0
    6.9947   35.8161   69.9400 H   0  0  0  0  0  0
    7.5235   37.6091   68.3569 H   0  0  0  0  0  0
   11.0474   36.8134   75.0586 H   0  0  0  0  0  0
  1  2  2  0  0  0
  1  5  1  0  0  0
  2  3  1  0  0  0
  2 33  1  0  0  0
  3  4  2  0  0  0
  4  6  1  0  0  0
  4 24  1  0  0  0
  5 10  2  0  0  0
  5  6  1  0  0  0
  6  7  2  0  0  0
  7  8  1  0  0  0
  7 34  1  0  0  0
  8  9  2  0  0  0
  8 13  1  0  0  0
  9 10  1  0  0  0
  9 11  1  0  0  0
 10 35  1  0  0  0
 11 12  1  0  0  0
 12 36  1  0  0  0
 12 37  1  0  0  0
 12 38  1  0  0  0
 13 14  1  0  0  0
 14 15  1  0  0  0
 14 39  1  0  0  0
 14 40  1  0  0  0
 15 16  1  0  0  0
 15 41  1  0  0  0
 15 42  1  0  0  0
 16 17  1  0  0  0
 16 43  1  0  0  0
 16 44  1  0  0  0
 17 18  1  0  0  0
 17 45  1  0  0  0
 17 46  1  0  0  0
 18 19  1  0  0  0
 18 47  1  0  0  0
 18 48  1  0  0  0
 19 20  1  0  0  0
 19 49  1  0  0  0
 19 50  1  0  0  0
 20 21  2  0  0  0
 20 22  1  0  0  0
 22 23  1  0  0  0
 22 51  1  0  0  0
 23 52  1  0  0  0
 24 25  1  0  0  0
 24 53  1  0  0  0
 25 26  2  0  0  0
 25 30  1  0  0  0
 26 27  1  0  0  0
 26 54  1  0  0  0
 27 28  2  0  0  0
 27 31  1  0  0  0
 28 29  1  0  0  0
 28 55  1  0  0  0
 29 30  2  0  0  0
 29 56  1  0  0  0
 30 57  1  0  0  0
 31 32  3  0  0  0
 32 58  1  0  0  0
M  END
> <s_m_entry_id>
6997

> <s_m_entry_name>
dock_pv.427

> <s_m_Source_Path>
/home/csk/Desktop/cluster/DUD-E-result/lkha4

> <s_m_Source_File>
dock_pv.maegz

> <i_m_Source_File_Index>
427

> <chembl_id>
CHEMBL598797

> <chembl_pref_name>
CUDC-101

> <i_lp_mmshare_version>
53161

> <i_f3d_flags>
0

> <r_lp_tautomer_probability>
0.999978000241998

> <s_lp_Force_Field>
OPLS_2005

> <r_lp_Energy>
25.18703

> <b_lp_Chiralities_Consistent>
1

> <s_lp_Variant>
CHEMBL4618_lig494-1

> <s_i_glide_gridfile>
glide-grid_3chp

> <i_i_glide_lignum>
594

> <i_i_glide_rotatable_bonds>
14

> <r_i_docking_score>
-8.06010233414634

> <r_i_glide_ligand_efficiency>
-0.251878197942073

> <r_i_glide_ligand_efficiency_sa>
-0.799663431838395

> <r_i_glide_ligand_efficiency_ln>
-1.80487662270695

> <r_i_glide_gscore>
-8.06010233414634

> <r_i_glide_lipo>
-4.3761538384145

> <r_i_glide_hbond>
-0.327328442666959

> <r_i_glide_metal>
0

> <r_i_glide_rewards>
-1.34665979761226

> <r_i_glide_evdw>
-34.8593330383301

> <r_i_glide_ecoul>
-10.0202608108521

> <r_i_glide_erotb>
1.26599571966862

> <r_i_glide_esite>
-0.0299502015769275

> <r_i_glide_emodel>
-37.2731280023566

> <r_i_glide_energy>
-44.8795938491821

> <r_i_glide_einternal>
21.6605911254883

> <i_i_glide_confnum>
212

> <i_i_glide_posenum>
388

> <r_i_glide_eff_state_penalty>
0

> <s_user_duplicate_titles>
CHEMBL4618_lig494

> <s_m_subgroup_title>
dock_pv

> <s_m_subgroupid>
dock_pv

> <b_m_subgroup_collapsed>
1

$$$$
CHEMBL4618_lig108
                    3D
 Schrodinger Suite 2021-1.
 50 52  0  0  1  0            999 V2000
   14.4754   42.7081   65.4963 N   0  0  0  0  0  0
    8.4228   40.0727   68.4415 C   0  0  0  0  0  0
   10.0518   41.9349   67.1158 C   0  0  0  0  0  0
    7.6157   39.0293   69.2099 C   0  0  0  0  0  0
    9.2599   39.6609   67.4072 C   0  0  0  0  0  0
    8.3176   41.4335   68.7401 C   0  0  0  0  0  0
    9.1262   42.3560   68.0737 C   0  0  0  0  0  0
   10.0627   40.5838   66.7455 C   0  0  0  0  0  0
   10.9257   42.8892   66.6165 O   0  0  0  0  0  0
   13.2610   43.3557   66.0103 C   0  0  0  0  0  0
   12.0084   42.4914   65.7682 C   0  0  0  0  0  0
    8.4576   38.0511   70.0649 C   0  0  0  0  0  0
   14.4907   42.5343   64.0478 C   0  0  0  0  0  0
   15.6934   43.4649   65.7440 C   0  0  0  0  0  0
    8.9346   38.7040   71.3787 C   0  0  0  0  0  0
    7.6664   36.7846   70.4364 C   0  0  0  0  0  0
   16.7511   42.8136   64.8526 C   0  0  0  0  0  0
   15.9420   42.2040   63.7040 C   0  0  0  0  0  0
    9.8083   37.7511   72.2197 C   0  0  0  0  0  0
    8.4759   35.8026   71.3111 C   0  0  0  0  0  0
    9.0398   36.4682   72.5740 C   0  0  0  0  0  0
    6.9211   39.5246   69.8848 H   0  0  0  0  0  0
    7.0122   38.4831   68.4825 H   0  0  0  0  0  0
    9.3174   38.6167   67.1337 H   0  0  0  0  0  0
    7.6367   41.7769   69.5077 H   0  0  0  0  0  0
    9.0678   43.4034   68.3325 H   0  0  0  0  0  0
   10.7017   40.2079   65.9626 H   0  0  0  0  0  0
   13.3749   43.5210   67.0822 H   0  0  0  0  0  0
   13.1311   44.3324   65.5438 H   0  0  0  0  0  0
   11.6797   42.6152   64.7379 H   0  0  0  0  0  0
   12.3081   41.4549   65.9167 H   0  0  0  0  0  0
    9.3210   37.7333   69.4866 H   0  0  0  0  0  0
   14.1213   43.4141   63.5183 H   0  0  0  0  0  0
   13.8137   41.7259   63.7694 H   0  0  0  0  0  0
   15.9407   43.4145   66.8052 H   0  0  0  0  0  0
   15.5714   44.5253   65.5289 H   0  0  0  0  0  0
    9.4699   39.6198   71.1397 H   0  0  0  0  0  0
    8.0764   39.0237   71.9672 H   0  0  0  0  0  0
    6.7658   37.0948   70.9625 H   0  0  0  0  0  0
    7.3206   36.2786   69.5392 H   0  0  0  0  0  0
   17.3282   42.0675   65.3966 H   0  0  0  0  0  0
   17.4530   43.5626   64.4843 H   0  0  0  0  0  0
   16.2130   42.6335   62.7397 H   0  0  0  0  0  0
   16.0820   41.1296   63.6133 H   0  0  0  0  0  0
   10.7034   37.5079   71.6536 H   0  0  0  0  0  0
   10.1462   38.2160   73.1424 H   0  0  0  0  0  0
    9.3112   35.4160   70.7402 H   0  0  0  0  0  0
    7.8636   34.9423   71.5832 H   0  0  0  0  0  0
    9.6911   35.7733   73.1057 H   0  0  0  0  0  0
    8.2236   36.7069   73.2577 H   0  0  0  0  0  0
  1 10  1  0  0  0
  1 13  1  0  0  0
  1 14  1  0  0  0
  2  5  1  0  0  0
  2  4  1  0  0  0
  2  6  2  0  0  0
  3  9  1  0  0  0
  3  7  2  0  0  0
  3  8  1  0  0  0
  4 12  1  0  0  0
  4 22  1  0  0  0
  4 23  1  0  0  0
  5  8  2  0  0  0
  5 24  1  0  0  0
  6  7  1  0  0  0
  6 25  1  0  0  0
  7 26  1  0  0  0
  8 27  1  0  0  0
  9 11  1  0  0  0
 10 11  1  0  0  0
 10 28  1  0  0  0
 10 29  1  0  0  0
 11 30  1  0  0  0
 11 31  1  0  0  0
 12 15  1  0  0  0
 12 16  1  0  0  0
 12 32  1  0  0  0
 13 18  1  0  0  0
 13 33  1  0  0  0
 13 34  1  0  0  0
 14 17  1  0  0  0
 14 35  1  0  0  0
 14 36  1  0  0  0
 15 19  1  0  0  0
 15 37  1  0  0  0
 15 38  1  0  0  0
 16 20  1  0  0  0
 16 39  1  0  0  0
 16 40  1  0  0  0
 17 18  1  0  0  0
 17 41  1  0  0  0
 17 42  1  0  0  0
 18 43  1  0  0  0
 18 44  1  0  0  0
 19 21  1  0  0  0
 19 45  1  0  0  0
 19 46  1  0  0  0
 20 21  1  0  0  0
 20 47  1  0  0  0
 20 48  1  0  0  0
 21 49  1  0  0  0
 21 50  1  0  0  0
M  END
> <s_m_entry_id>
6998

> <s_m_entry_name>
dock_pv.428

> <s_m_Source_Path>
/home/csk/Desktop/cluster/DUD-E-result/lkha4

> <s_m_Source_File>
dock_pv.maegz

> <i_m_Source_File_Index>
428

> <chembl_id>
CHEMBL159808

> <chembl_pref_name>
None

> <i_lp_mmshare_version>
53161

> <i_f3d_flags>
0

> <r_lp_tautomer_probability>
1

> <s_lp_Force_Field>
OPLS_2005

> <r_lp_Energy>
37.61838

> <b_lp_Chiralities_Consistent>
1

> <s_lp_Variant>
CHEMBL4618_lig108-1

> <s_i_glide_gridfile>
glide-grid_3chp

> <i_i_glide_lignum>
134

> <i_i_glide_rotatable_bonds>
6

> <r_i_docking_score>
-8.04908099131006

> <r_i_glide_ligand_efficiency>
-0.383289571014765

> <r_i_glide_ligand_efficiency_sa>
-1.05746686295422

> <r_i_glide_ligand_efficiency_ln>
-1.99011901040181

> <r_i_glide_gscore>
-8.04908099131006

> <r_i_glide_lipo>
-4.66127986781431

> <r_i_glide_hbond>
0

> <r_i_glide_metal>
0

> <r_i_glide_rewards>
-2.13485827332276

> <r_i_glide_evdw>
-39.502857208252

> <r_i_glide_ecoul>
-2.51854228973389

> <r_i_glide_erotb>
1.09998135369969

> <r_i_glide_esite>
0

> <r_i_glide_emodel>
-58.7756263337067

> <r_i_glide_energy>
-42.0213994979858

> <r_i_glide_einternal>
3.94093203544617

> <i_i_glide_confnum>
44

> <i_i_glide_posenum>
192

> <r_i_glide_eff_state_penalty>
0

> <s_user_duplicate_titles>
CHEMBL4618_lig108,271384

> <s_m_subgroup_title>
dock_pv

> <s_m_subgroupid>
dock_pv

> <b_m_subgroup_collapsed>
1

$$$$
CHEMBL4618_lig106
                    3D
 Schrodinger Suite 2021-1.
 44 46  0  0  1  0            999 V2000
    9.1128   39.7294   67.3056 C   0  0  0  0  0  0
    8.3253   40.2033   68.3474 C   0  0  0  0  0  0
   10.0834   40.5513   66.7399 C   0  0  0  0  0  0
   14.7448   42.6160   65.5398 N   0  0  0  0  0  0
    7.3715   39.2608   69.0511 C   0  0  0  0  0  0
    8.3916   41.5528   68.7042 C   0  0  0  0  0  0
   10.2162   41.8863   67.1400 C   0  0  0  0  0  0
    8.9211   38.4753   66.8400 F   0  0  0  0  0  0
    9.3207   42.3856   68.0840 C   0  0  0  0  0  0
    8.0144   38.2944   70.0437 C   0  0  0  0  0  0
   11.2063   42.7355   66.6864 O   0  0  0  0  0  0
   13.5138   43.1814   66.1003 C   0  0  0  0  0  0
   12.3627   42.1616   66.0799 C   0  0  0  0  0  0
   14.6721   42.3339   64.1082 C   0  0  0  0  0  0
   15.8876   43.5061   65.6531 C   0  0  0  0  0  0
    8.5210   38.7542   71.2575 C   0  0  0  0  0  0
    8.0386   36.9281   69.7787 C   0  0  0  0  0  0
   16.9410   42.8863   64.7413 C   0  0  0  0  0  0
   16.1209   42.2155   63.6346 C   0  0  0  0  0  0
    9.0146   37.8583   72.2061 C   0  0  0  0  0  0
    8.5209   36.0431   70.7401 C   0  0  0  0  0  0
    8.9988   36.4996   71.9549 C   0  0  0  0  0  0
   10.7124   40.1344   65.9688 H   0  0  0  0  0  0
    6.6276   39.8752   69.5419 H   0  0  0  0  0  0
    6.8301   38.6814   68.3057 H   0  0  0  0  0  0
    7.7441   41.9507   69.4734 H   0  0  0  0  0  0
    9.3892   43.4152   68.3902 H   0  0  0  0  0  0
   13.6936   43.4759   67.1363 H   0  0  0  0  0  0
   13.2245   44.0858   65.5612 H   0  0  0  0  0  0
   12.1208   41.8719   65.0606 H   0  0  0  0  0  0
   12.6828   41.2647   66.6127 H   0  0  0  0  0  0
   14.1254   43.1053   63.5589 H   0  0  0  0  0  0
   14.1151   41.4103   63.9418 H   0  0  0  0  0  0
   16.2021   43.5502   66.6970 H   0  0  0  0  0  0
   15.6422   44.5315   65.3773 H   0  0  0  0  0  0
    8.5215   39.8105   71.4765 H   0  0  0  0  0  0
    7.6899   36.5444   68.8328 H   0  0  0  0  0  0
   17.5705   42.1813   65.2837 H   0  0  0  0  0  0
   17.5981   43.6597   64.3406 H   0  0  0  0  0  0
   16.2408   42.7347   62.6847 H   0  0  0  0  0  0
   16.4132   41.1828   63.4675 H   0  0  0  0  0  0
    9.4060   38.2160   73.1404 H   0  0  0  0  0  0
    8.5208   34.9913   70.5461 H   0  0  0  0  0  0
    9.3706   35.8015   72.6914 H   0  0  0  0  0  0
  1  2  1  0  0  0
  1  3  2  0  0  0
  1  8  1  0  0  0
  2  5  1  0  0  0
  2  6  2  0  0  0
  3  7  1  0  0  0
  3 23  1  0  0  0
  4 12  1  0  0  0
  4 14  1  0  0  0
  4 15  1  0  0  0
  5 10  1  0  0  0
  5 24  1  0  0  0
  5 25  1  0  0  0
  6  9  1  0  0  0
  6 26  1  0  0  0
  7  9  2  0  0  0
  7 11  1  0  0  0
  9 27  1  0  0  0
 10 16  1  0  0  0
 10 17  2  0  0  0
 11 13  1  0  0  0
 12 13  1  0  0  0
 12 28  1  0  0  0
 12 29  1  0  0  0
 13 30  1  0  0  0
 13 31  1  0  0  0
 14 19  1  0  0  0
 14 32  1  0  0  0
 14 33  1  0  0  0
 15 18  1  0  0  0
 15 34  1  0  0  0
 15 35  1  0  0  0
 16 20  2  0  0  0
 16 36  1  0  0  0
 17 21  1  0  0  0
 17 37  1  0  0  0
 18 19  1  0  0  0
 18 38  1  0  0  0
 18 39  1  0  0  0
 19 40  1  0  0  0
 19 41  1  0  0  0
 20 22  1  0  0  0
 20 42  1  0  0  0
 21 22  2  0  0  0
 21 43  1  0  0  0
 22 44  1  0  0  0
M  END
> <s_m_entry_id>
6999

> <s_m_entry_name>
dock_pv.429

> <s_m_Source_Path>
/home/csk/Desktop/cluster/DUD-E-result/lkha4

> <s_m_Source_File>
dock_pv.maegz

> <i_m_Source_File_Index>
429

> <chembl_id>
CHEMBL352092

> <chembl_pref_name>
None

> <i_lp_mmshare_version>
53161

> <i_f3d_flags>
0

> <r_lp_tautomer_probability>
1

> <s_lp_Force_Field>
OPLS_2005

> <r_lp_Energy>
36.599875

> <b_lp_Chiralities_Consistent>
1

> <s_lp_Variant>
CHEMBL4618_lig106-1

> <s_i_glide_gridfile>
glide-grid_3chp

> <i_i_glide_lignum>
130

> <i_i_glide_rotatable_bonds>
6

> <r_i_docking_score>
-8.04321237614264

> <r_i_glide_ligand_efficiency>
-0.365600562551938

> <r_i_glide_ligand_efficiency_sa>
-1.02442715452475

> <r_i_glide_ligand_efficiency_ln>
-1.96605448802909

> <r_i_glide_gscore>
-8.04321237614264

> <r_i_glide_lipo>
-4.42932118825212

> <r_i_glide_hbond>
-0.0448596290136675

> <r_i_glide_metal>
0

> <r_i_glide_rewards>
-2.2440589411484

> <r_i_glide_evdw>
-36.8600196838379

> <r_i_glide_ecoul>
-3.37661480903625

> <r_i_glide_erotb>
1.02452058781888

> <r_i_glide_esite>
0

> <r_i_glide_emodel>
-56.8101379397346

> <r_i_glide_energy>
-40.2366344928741

> <r_i_glide_einternal>
3.46507620811462

> <i_i_glide_confnum>
39

> <i_i_glide_posenum>
332

> <r_i_glide_eff_state_penalty>
0

> <s_user_duplicate_titles>
CHEMBL4618_lig106,271894

> <s_m_subgroup_title>
dock_pv

> <s_m_subgroupid>
dock_pv

> <b_m_subgroup_collapsed>
1

$$$$
CHEMBL4618_lig171
                    3D
 Schrodinger Suite 2021-1.
 35 36  0  0  1  0            999 V2000
    8.5208   38.6036   71.0541 C   0  0  0  0  0  0
    8.9454   37.9254   72.1979 C   0  0  0  0  0  0
    8.9472   36.5390   72.2414 C   0  0  0  0  0  0
    8.5209   35.8162   71.1394 C   0  0  0  0  0  0
    8.0804   36.4863   69.9993 C   0  0  0  0  0  0
    8.0735   37.8789   69.9454 C   0  0  0  0  0  0
    7.5461   38.5475   68.6760 C   0  0  0  0  0  0
    7.5537   39.9864   68.7470 O   0  0  0  0  0  0
    8.4826   40.7013   68.0139 C   0  0  0  0  0  0
    9.6479   40.1232   67.5171 C   0  0  0  0  0  0
   10.5224   40.8575   66.7404 C   0  0  0  0  0  0
    8.2304   42.0498   67.7436 C   0  0  0  0  0  0
    9.1198   42.7979   66.9641 C   0  0  0  0  0  0
   10.2883   42.2085   66.4734 C   0  0  0  0  0  0
   11.1744   42.9580   65.6670 N   0  0  0  0  0  0
   12.5112   42.7512   65.5557 C   0  0  0  0  0  0
   13.1483   42.0463   66.3400 O   0  0  0  0  0  0
   13.2401   43.4227   64.3754 C   0  0  0  0  0  0
   14.3712   42.6161   63.9401 N   0  0  0  0  0  0
    8.5216   39.6842   71.0440 H   0  0  0  0  0  0
    9.2776   38.4671   73.0674 H   0  0  0  0  0  0
    9.2791   36.0259   73.1324 H   0  0  0  0  0  0
    8.5208   34.7364   71.1669 H   0  0  0  0  0  0
    7.7251   35.9084   69.1585 H   0  0  0  0  0  0
    6.5211   38.2191   68.5249 H   0  0  0  0  0  0
    8.0490   38.1412   67.7981 H   0  0  0  0  0  0
    9.8949   39.0945   67.7178 H   0  0  0  0  0  0
   11.3789   40.3480   66.3286 H   0  0  0  0  0  0
    7.3280   42.5128   68.1202 H   0  0  0  0  0  0
    8.8943   43.8327   66.7533 H   0  0  0  0  0  0
   10.7545   43.6709   65.0931 H   0  0  0  0  0  0
   13.5856   44.4073   64.6914 H   0  0  0  0  0  0
   12.5580   43.5793   63.5403 H   0  0  0  0  0  0
   14.1210   41.9882   63.1819 H   0  0  0  0  0  0
   15.0741   43.2302   63.5382 H   0  0  0  0  0  0
  1  2  2  0  0  0
  1  6  1  0  0  0
  1 20  1  0  0  0
  2  3  1  0  0  0
  2 21  1  0  0  0
  3  4  2  0  0  0
  3 22  1  0  0  0
  4  5  1  0  0  0
  4 23  1  0  0  0
  5  6  2  0  0  0
  5 24  1  0  0  0
  6  7  1  0  0  0
  7  8  1  0  0  0
  7 25  1  0  0  0
  7 26  1  0  0  0
  8  9  1  0  0  0
  9 10  2  0  0  0
  9 12  1  0  0  0
 10 11  1  0  0  0
 10 27  1  0  0  0
 11 14  2  0  0  0
 11 28  1  0  0  0
 12 13  2  0  0  0
 12 29  1  0  0  0
 13 14  1  0  0  0
 13 30  1  0  0  0
 14 15  1  0  0  0
 15 16  1  0  0  0
 15 31  1  0  0  0
 16 17  2  0  0  0
 16 18  1  0  0  0
 18 19  1  0  0  0
 18 32  1  0  0  0
 18 33  1  0  0  0
 19 34  1  0  0  0
 19 35  1  0  0  0
M  END
> <s_m_entry_id>
7000

> <s_m_entry_name>
dock_pv.430

> <s_m_Source_Path>
/home/csk/Desktop/cluster/DUD-E-result/lkha4

> <s_m_Source_File>
dock_pv.maegz

> <i_m_Source_File_Index>
430

> <chembl_id>
CHEMBL479960

> <chembl_pref_name>
None

> <i_lp_mmshare_version>
53161

> <i_f3d_flags>
0

> <r_lp_tautomer_probability>
1

> <s_lp_Force_Field>
OPLS_2005

> <r_lp_Energy>
21.817456

> <b_lp_Chiralities_Consistent>
1

> <s_lp_Variant>
CHEMBL4618_lig171-1

> <s_i_glide_gridfile>
glide-grid_3chp

> <i_i_glide_lignum>
197

> <i_i_glide_rotatable_bonds>
6

> <r_i_docking_score>
-8.03817892308516

> <r_i_glide_ligand_efficiency>
-0.423062048583429

> <r_i_glide_ligand_efficiency_sa>
-1.12889946684371

> <r_i_glide_ligand_efficiency_ln>
-2.0378510012554

> <r_i_glide_gscore>
-8.03817892308516

> <r_i_glide_lipo>
-4.07989655716404

> <r_i_glide_hbond>
-0.398096959274831

> <r_i_glide_metal>
0

> <r_i_glide_rewards>
-2.18765321899287

> <r_i_glide_evdw>
-38.5954780578613

> <r_i_glide_ecoul>
-5.2280125617981

> <r_i_glide_erotb>
1.34144359950937

> <r_i_glide_esite>
0

> <r_i_glide_emodel>
-66.1937229646266

> <r_i_glide_energy>
-43.8234906196594

> <r_i_glide_einternal>
9.18998527526855

> <i_i_glide_confnum>
239

> <i_i_glide_posenum>
303

> <r_i_glide_eff_state_penalty>
0

> <s_user_duplicate_titles>
CHEMBL4618_lig171,467508

> <s_m_subgroup_title>
dock_pv

> <s_m_subgroupid>
dock_pv

> <b_m_subgroup_collapsed>
1

$$$$
CHEMBL4618_lig93
                    3D
 Schrodinger Suite 2021-1.
 40 42  0  0  1  0            999 V2000
   11.1422   43.4265   65.0555 N   0  0  0  0  0  0
   11.8250   42.7873   65.9694 C   0  0  0  0  0  0
   11.1307   42.3218   67.0317 O   0  0  0  0  0  0
    9.8687   42.7189   66.7466 C   0  0  0  0  0  0
    9.9169   43.4119   65.5481 C   0  0  0  0  0  0
   16.0532   41.8618   65.1399 N   0  0  0  0  0  0
    8.7822   42.3622   67.7314 C   0  0  0  0  0  0
   13.1725   42.5787   65.9710 O   0  0  0  0  0  0
    8.5779   40.8664   67.9511 C   0  0  0  0  0  0
   14.7926   41.6232   64.4134 C   0  0  0  0  0  0
   13.5627   41.3693   65.3266 C   0  0  0  0  0  0
   17.1567   42.2156   64.2588 C   0  0  0  0  0  0
   16.0314   43.0880   65.9476 C   0  0  0  0  0  0
    8.9266   39.9133   66.9913 C   0  0  0  0  0  0
    7.9901   40.4452   69.1401 C   0  0  0  0  0  0
   17.4864   43.3388   66.3426 C   0  0  0  0  0  0
   18.2635   42.6663   65.2154 C   0  0  0  0  0  0
    8.6484   38.5702   67.2057 C   0  0  0  0  0  0
    7.7496   39.0940   69.3786 C   0  0  0  0  0  0
    8.0707   38.1597   68.4008 C   0  0  0  0  0  0
    9.0699   43.8669   65.0576 H   0  0  0  0  0  0
    8.9972   42.8327   68.6915 H   0  0  0  0  0  0
    7.8261   42.7885   67.4208 H   0  0  0  0  0  0
   14.5746   42.4671   63.7546 H   0  0  0  0  0  0
   14.9169   40.7614   63.7564 H   0  0  0  0  0  0
   12.7624   40.9292   64.7384 H   0  0  0  0  0  0
   13.7424   40.6141   66.0881 H   0  0  0  0  0  0
   16.8668   42.9976   63.5490 H   0  0  0  0  0  0
   17.4376   41.3848   63.6196 H   0  0  0  0  0  0
   15.3852   43.0090   66.8193 H   0  0  0  0  0  0
   15.5965   43.9265   65.3960 H   0  0  0  0  0  0
    9.4187   40.1980   66.0748 H   0  0  0  0  0  0
    7.7208   41.1710   69.8922 H   0  0  0  0  0  0
   17.7178   42.9008   67.3141 H   0  0  0  0  0  0
   17.6935   44.4079   66.3992 H   0  0  0  0  0  0
   18.9588   43.3575   64.7401 H   0  0  0  0  0  0
   18.8530   41.8176   65.5659 H   0  0  0  0  0  0
    8.9201   37.8382   66.4588 H   0  0  0  0  0  0
    7.3066   38.7798   70.3120 H   0  0  0  0  0  0
    7.8819   37.1098   68.5737 H   0  0  0  0  0  0
  1  2  2  0  0  0
  1  5  1  0  0  0
  2  3  1  0  0  0
  2  8  1  0  0  0
  3  4  1  0  0  0
  4  5  2  0  0  0
  4  7  1  0  0  0
  5 21  1  0  0  0
  6 10  1  0  0  0
  6 12  1  0  0  0
  6 13  1  0  0  0
  7  9  1  0  0  0
  7 22  1  0  0  0
  7 23  1  0  0  0
  8 11  1  0  0  0
  9 14  1  0  0  0
  9 15  2  0  0  0
 10 11  1  0  0  0
 10 24  1  0  0  0
 10 25  1  0  0  0
 11 26  1  0  0  0
 11 27  1  0  0  0
 12 17  1  0  0  0
 12 28  1  0  0  0
 12 29  1  0  0  0
 13 16  1  0  0  0
 13 30  1  0  0  0
 13 31  1  0  0  0
 14 18  2  0  0  0
 14 32  1  0  0  0
 15 19  1  0  0  0
 15 33  1  0  0  0
 16 17  1  0  0  0
 16 34  1  0  0  0
 16 35  1  0  0  0
 17 36  1  0  0  0
 17 37  1  0  0  0
 18 20  1  0  0  0
 18 38  1  0  0  0
 19 20  2  0  0  0
 19 39  1  0  0  0
 20 40  1  0  0  0
M  END
> <s_m_entry_id>
7001

> <s_m_entry_name>
dock_pv.431

> <s_m_Source_Path>
/home/csk/Desktop/cluster/DUD-E-result/lkha4

> <s_m_Source_File>
dock_pv.maegz

> <i_m_Source_File_Index>
431

> <chembl_id>
CHEMBL163623

> <chembl_pref_name>
None

> <i_lp_mmshare_version>
53161

> <i_f3d_flags>
0

> <r_lp_tautomer_probability>
1

> <s_lp_Force_Field>
OPLS_2005

> <r_lp_Energy>
29.980513

> <b_lp_Chiralities_Consistent>
1

> <s_lp_Variant>
CHEMBL4618_lig93-1

> <s_i_glide_gridfile>
glide-grid_3chp

> <i_i_glide_lignum>
116

> <i_i_glide_rotatable_bonds>
6

> <r_i_docking_score>
-8.01899455939817

> <r_i_glide_ligand_efficiency>
-0.400949727969909

> <r_i_glide_ligand_efficiency_sa>
-1.08834500388366

> <r_i_glide_ligand_efficiency_ln>
-2.00688985407566

> <r_i_glide_gscore>
-8.01899455939817

> <r_i_glide_lipo>
-3.19434148006463

> <r_i_glide_hbond>
-0.32

> <r_i_glide_metal>
0

> <r_i_glide_rewards>
-2.20166032508655

> <r_i_glide_evdw>
-37.712833404541

> <r_i_glide_ecoul>
-10.8358955383301

> <r_i_glide_erotb>
1.20803324672956

> <r_i_glide_esite>
0

> <r_i_glide_emodel>
-68.0426893099847

> <r_i_glide_energy>
-48.5487289428711

> <r_i_glide_einternal>
10.853967666626

> <i_i_glide_confnum>
22

> <i_i_glide_posenum>
332

> <r_i_glide_eff_state_penalty>
0

> <s_user_duplicate_titles>
CHEMBL4618_lig93

> <s_m_subgroup_title>
dock_pv

> <s_m_subgroupid>
dock_pv

> <b_m_subgroup_collapsed>
1

$$$$
CHEMBL4618_lig259
                    3D
 Schrodinger Suite 2021-1.
 62 64  0  0  1  0            999 V2000
    8.1008   39.6546   68.5680 C   0  0  0  0  0  0
    8.9210   39.1812   67.5514 C   0  0  0  0  0  0
    9.6999   40.0706   66.8219 C   0  0  0  0  0  0
    9.6830   41.4423   67.1176 C   0  0  0  0  0  0
    8.7894   41.9230   68.0753 C   0  0  0  0  0  0
    7.9994   41.0286   68.7941 C   0  0  0  0  0  0
   10.5336   42.3777   66.4938 N   0  0  0  0  0  0
   11.7559   42.1295   65.9712 C   0  0  0  0  0  0
   12.5331   43.3314   65.4133 C   0  0  0  0  0  0
   12.2672   41.0119   65.9423 O   0  0  0  0  0  0
   13.8762   42.9034   64.9960 N   0  0  1  0  0  0
    7.3405   38.7687   69.2938 O   0  0  0  0  0  0
    7.9602   38.0048   70.2571 C   0  0  0  0  0  0
    7.9515   36.6160   70.1437 C   0  0  0  0  0  0
    8.5210   35.8193   71.1399 C   0  0  0  0  0  0
    9.1309   36.4145   72.2320 C   0  0  0  0  0  0
    9.1605   37.7963   72.3400 C   0  0  0  0  0  0
    8.5548   38.5954   71.3709 C   0  0  0  0  0  0
   13.9966   42.8514   63.5400 C   0  0  0  0  0  0
   14.9424   43.6638   65.6322 C   0  0  0  0  0  0
   16.3534   43.0638   65.5191 C   0  0  0  0  0  0
   17.3444   43.7843   66.4547 C   0  0  0  0  0  0
   18.5610   43.0161   66.7399 N   0  0  2  0  0  0
   19.3974   43.6801   67.7516 C   0  0  0  0  0  0
   19.3566   42.8279   65.5238 C   0  0  0  0  0  0
   18.7438   43.7460   69.1312 C   0  0  0  0  0  0
   18.7478   42.6158   69.9520 C   0  0  0  0  0  0
   18.0860   42.6376   71.1768 C   0  0  0  0  0  0
   17.4113   43.7896   71.5746 C   0  0  0  0  0  0
   17.3892   44.9177   70.7568 C   0  0  0  0  0  0
   18.0535   44.8949   69.5326 C   0  0  0  0  0  0
    8.9643   38.1234   67.3376 H   0  0  0  0  0  0
   10.3237   39.6634   66.0411 H   0  0  0  0  0  0
    8.7208   42.9801   68.2908 H   0  0  0  0  0  0
    7.3188   41.4043   69.5400 H   0  0  0  0  0  0
   10.2341   43.3399   66.5366 H   0  0  0  0  0  0
   11.9502   43.7728   64.6020 H   0  0  0  0  0  0
   12.5534   44.0970   66.1900 H   0  0  0  0  0  0
    7.4989   36.1536   69.2838 H   0  0  0  0  0  0
    8.5210   34.7425   71.0659 H   0  0  0  0  0  0
    9.5862   35.8017   72.9964 H   0  0  0  0  0  0
    9.6471   38.2160   73.2008 H   0  0  0  0  0  0
    8.5321   39.6689   71.4804 H   0  0  0  0  0  0
   15.0018   42.5931   63.2068 H   0  0  0  0  0  0
   13.3210   42.0960   63.1399 H   0  0  0  0  0  0
   13.7212   43.8101   63.0979 H   0  0  0  0  0  0
   14.9522   44.6160   65.1400 H   0  0  0  0  0  0
   14.7071   43.8675   66.6784 H   0  0  0  0  0  0
   16.3936   41.9765   65.5400 H   0  0  0  0  0  0
   16.6965   43.3216   64.5151 H   0  0  0  0  0  0
   17.6175   44.7490   66.0216 H   0  0  0  0  0  0
   16.8206   44.0212   67.3803 H   0  0  0  0  0  0
   20.3345   43.1296   67.8576 H   0  0  0  0  0  0
   19.6545   44.6855   67.4124 H   0  0  0  0  0  0
   20.2468   42.2304   65.7273 H   0  0  0  0  0  0
   18.7931   42.2978   64.7561 H   0  0  0  0  0  0
   19.6787   43.7791   65.0956 H   0  0  0  0  0  0
   19.2501   41.7136   69.6331 H   0  0  0  0  0  0
   18.0825   41.7593   71.8060 H   0  0  0  0  0  0
   16.8871   43.8017   72.5190 H   0  0  0  0  0  0
   16.8462   45.7985   71.0660 H   0  0  0  0  0  0
   18.0126   45.7600   68.8889 H   0  0  0  0  0  0
  1 12  1  0  0  0
  1  6  1  0  0  0
  1  2  2  0  0  0
  2  3  1  0  0  0
  2 32  1  0  0  0
  3  4  2  0  0  0
  3 33  1  0  0  0
  4  5  1  0  0  0
  4  7  1  0  0  0
  5  6  2  0  0  0
  5 34  1  0  0  0
  6 35  1  0  0  0
  7  8  1  0  0  0
  7 36  1  0  0  0
  8  9  1  0  0  0
  8 10  2  0  0  0
  9 11  1  0  0  0
  9 37  1  0  0  0
  9 38  1  0  0  0
 11 19  1  0  0  0
 11 20  1  0  0  0
 12 13  1  0  0  0
 13 18  1  0  0  0
 13 14  2  0  0  0
 14 15  1  0  0  0
 14 39  1  0  0  0
 15 16  2  0  0  0
 15 40  1  0  0  0
 16 17  1  0  0  0
 16 41  1  0  0  0
 17 18  2  0  0  0
 17 42  1  0  0  0
 18 43  1  0  0  0
 19 44  1  0  0  0
 19 45  1  0  0  0
 19 46  1  0  0  0
 20 21  1  0  0  0
 20 47  1  0  0  0
 20 48  1  0  0  0
 21 22  1  0  0  0
 21 49  1  0  0  0
 21 50  1  0  0  0
 22 23  1  0  0  0
 22 51  1  0  0  0
 22 52  1  0  0  0
 23 24  1  0  0  0
 23 25  1  0  0  0
 24 26  1  0  0  0
 24 53  1  0  0  0
 24 54  1  0  0  0
 25 55  1  0  0  0
 25 56  1  0  0  0
 25 57  1  0  0  0
 26 27  2  0  0  0
 26 31  1  0  0  0
 27 28  1  0  0  0
 27 58  1  0  0  0
 28 29  2  0  0  0
 28 59  1  0  0  0
 29 30  1  0  0  0
 29 60  1  0  0  0
 30 31  2  0  0  0
 30 61  1  0  0  0
 31 62  1  0  0  0
M  END
> <s_m_entry_id>
7002

> <s_m_entry_name>
dock_pv.432

> <s_m_Source_Path>
/home/csk/Desktop/cluster/DUD-E-result/lkha4

> <s_m_Source_File>
dock_pv.maegz

> <i_m_Source_File_Index>
432

> <chembl_id>
CHEMBL480985

> <chembl_pref_name>
None

> <i_lp_mmshare_version>
53161

> <i_f3d_flags>
0

> <r_lp_tautomer_probability>
1

> <s_lp_Force_Field>
OPLS_2005

> <r_lp_Energy>
36.47723

> <b_lp_Chiralities_Consistent>
1

> <s_lp_Variant>
CHEMBL4618_lig259-1

> <s_i_glide_gridfile>
glide-grid_3chp

> <i_i_glide_lignum>
297

> <i_i_glide_rotatable_bonds>
12

> <r_i_docking_score>
-8.01871767044626

> <r_i_glide_ligand_efficiency>
-0.258668311949879

> <r_i_glide_ligand_efficiency_sa>
-0.812575629615968

> <r_i_glide_ligand_efficiency_ln>
-1.80846657886947

> <r_i_glide_gscore>
-8.01871767044626

> <r_i_glide_lipo>
-4.62637850792705

> <r_i_glide_hbond>
0

> <r_i_glide_metal>
0

> <r_i_glide_rewards>
-1.08601216562288

> <r_i_glide_evdw>
-59.9268455505371

> <r_i_glide_ecoul>
-3.71407794952393

> <r_i_glide_erotb>
1.24712697305912

> <r_i_glide_esite>
0

> <r_i_glide_emodel>
-85.7102450039971

> <r_i_glide_energy>
-63.640923500061

> <r_i_glide_einternal>
9.57413291931152

> <i_i_glide_confnum>
96

> <i_i_glide_posenum>
323

> <r_i_glide_eff_state_penalty>
0

> <s_user_duplicate_titles>
CHEMBL4618_lig259,467569

> <s_m_subgroup_title>
dock_pv

> <s_m_subgroupid>
dock_pv

> <b_m_subgroup_collapsed>
1

$$$$
CHEMBL4618_lig358
                    3D
 Schrodinger Suite 2021-1.
 42 44  0  0  1  0            999 V2000
    9.3587   37.4507   72.7160 C   0  0  0  0  0  0
    9.3948   36.0672   72.6039 C   0  0  0  0  0  0
    8.7609   35.4417   71.5400 C   0  0  0  0  0  0
    8.1210   36.2161   70.5693 C   0  0  0  0  0  0
    8.0521   37.5955   70.6923 C   0  0  0  0  0  0
    8.6613   38.2160   71.7787 C   0  0  0  0  0  0
    7.3210   38.3031   69.7689 O   0  0  0  0  0  0
    7.9830   39.1124   68.8799 C   0  0  0  0  0  0
    8.0427   40.4840   69.1053 C   0  0  0  0  0  0
    8.7282   41.3192   68.2449 C   0  0  0  0  0  0
    9.3834   40.7776   67.1400 C   0  0  0  0  0  0
    9.2429   39.4203   66.8505 C   0  0  0  0  0  0
    8.5481   38.5835   67.7226 C   0  0  0  0  0  0
   10.1835   41.5335   66.3166 O   0  0  0  0  0  0
   10.8355   42.6670   66.8931 C   0  0  0  0  0  0
   12.1344   42.9635   66.1302 C   0  0  2  0  0  0
   11.8427   43.6912   64.8039 C   0  0  0  0  0  0
   13.1203   43.9873   64.0152 C   0  0  0  0  0  0
   13.8846   42.6792   63.7950 C   0  0  0  0  0  0
   14.1841   41.9859   65.1327 C   0  0  0  0  0  0
   12.9812   41.7801   65.9400 N   0  0  2  0  0  0
   10.0551   35.3314   73.5259 F   0  0  0  0  0  0
    9.8623   37.9246   73.5400 H   0  0  0  0  0  0
    8.7814   34.3653   71.4560 H   0  0  0  0  0  0
    7.6409   35.7789   69.7130 H   0  0  0  0  0  0
    8.5712   39.2859   71.8912 H   0  0  0  0  0  0
    7.5585   40.9323   69.9400 H   0  0  0  0  0  0
    8.7630   42.3769   68.4593 H   0  0  0  0  0  0
    9.7210   39.0105   65.9729 H   0  0  0  0  0  0
    8.4805   37.5250   67.5214 H   0  0  0  0  0  0
   11.0873   42.4968   67.9398 H   0  0  0  0  0  0
   10.1612   43.5233   66.8705 H   0  0  0  0  0  0
   12.7323   43.6290   66.7549 H   0  0  0  0  0  0
   11.3210   44.6160   65.0247 H   0  0  0  0  0  0
   11.1765   43.0846   64.1910 H   0  0  0  0  0  0
   13.7378   44.6868   64.5771 H   0  0  0  0  0  0
   12.8975   44.4744   63.0705 H   0  0  0  0  0  0
   14.8200   42.8802   63.2717 H   0  0  0  0  0  0
   13.3333   42.0041   63.1400 H   0  0  0  0  0  0
   14.8886   42.5852   65.7114 H   0  0  0  0  0  0
   14.6477   41.0160   64.9538 H   0  0  0  0  0  0
   12.3977   41.0503   65.5483 H   0  0  0  0  0  0
  1  6  1  0  0  0
  1  2  2  0  0  0
  1 23  1  0  0  0
  2  3  1  0  0  0
  2 22  1  0  0  0
  3  4  2  0  0  0
  3 24  1  0  0  0
  4  5  1  0  0  0
  4 25  1  0  0  0
  5  6  2  0  0  0
  5  7  1  0  0  0
  6 26  1  0  0  0
  7  8  1  0  0  0
  8 13  1  0  0  0
  8  9  2  0  0  0
  9 10  1  0  0  0
  9 27  1  0  0  0
 10 11  2  0  0  0
 10 28  1  0  0  0
 11 12  1  0  0  0
 11 14  1  0  0  0
 12 13  2  0  0  0
 12 29  1  0  0  0
 13 30  1  0  0  0
 14 15  1  0  0  0
 15 16  1  0  0  0
 15 31  1  0  0  0
 15 32  1  0  0  0
 16 17  1  0  0  0
 16 21  1  0  0  0
 16 33  1  0  0  0
 17 18  1  0  0  0
 17 34  1  0  0  0
 17 35  1  0  0  0
 18 19  1  0  0  0
 18 36  1  0  0  0
 18 37  1  0  0  0
 19 20  1  0  0  0
 19 38  1  0  0  0
 19 39  1  0  0  0
 20 21  1  0  0  0
 20 40  1  0  0  0
 20 41  1  0  0  0
 21 42  1  0  0  0
M  END
> <s_m_entry_id>
7003

> <s_m_entry_name>
dock_pv.433

> <s_m_Source_Path>
/home/csk/Desktop/cluster/DUD-E-result/lkha4

> <s_m_Source_File>
dock_pv.maegz

> <i_m_Source_File_Index>
433

> <chembl_id>
CHEMBL1098167

> <chembl_pref_name>
None

> <i_lp_mmshare_version>
53161

> <i_f3d_flags>
0

> <r_lp_tautomer_probability>
1

> <s_lp_Force_Field>
OPLS_2005

> <r_lp_Energy>
28.907202

> <b_lp_Chiralities_Consistent>
1

> <s_lp_Variant>
CHEMBL4618_lig358-1

> <s_i_glide_gridfile>
glide-grid_3chp

> <i_i_glide_lignum>
404

> <i_i_glide_rotatable_bonds>
5

> <r_i_docking_score>
-8.01639649372933

> <r_i_glide_ligand_efficiency>
-0.364381658805878

> <r_i_glide_ligand_efficiency_sa>
-1.02101173829153

> <r_i_glide_ligand_efficiency_ln>
-1.9594997082342

> <r_i_glide_gscore>
-8.01639649372933

> <r_i_glide_lipo>
-4.75547715440014

> <r_i_glide_hbond>
0

> <r_i_glide_metal>
0

> <r_i_glide_rewards>
-1.83645347288136

> <r_i_glide_evdw>
-40.7615776062012

> <r_i_glide_ecoul>
-2.66131734848022

> <r_i_glide_erotb>
1.01281061613426

> <r_i_glide_esite>
0

> <r_i_glide_emodel>
-57.6245339100198

> <r_i_glide_energy>
-43.4228949546814

> <r_i_glide_einternal>
9.13872337341309

> <i_i_glide_confnum>
231

> <i_i_glide_posenum>
85

> <r_i_glide_eff_state_penalty>
0

> <s_user_duplicate_titles>
CHEMBL4618_lig358,627475

> <s_m_subgroup_title>
dock_pv

> <s_m_subgroupid>
dock_pv

> <b_m_subgroup_collapsed>
1

$$$$
CHEMBL4618_lig406
                    3D
 Schrodinger Suite 2021-1.
 51 55  0  0  1  0            999 V2000
    9.0995   38.5185   71.1153 C   0  0  0  0  0  0
    8.3790   37.9128   69.9767 N   0  0  1  0  0  0
    7.4531   36.9896   70.6331 C   0  0  2  0  0  0
    8.5355   37.7857   72.3529 C   0  0  1  0  0  0
    7.0848   37.6470   71.9400 C   0  0  0  0  0  0
    8.2924   35.7916   71.1227 C   0  0  0  0  0  0
    8.9935   36.3938   72.2558 N   0  0  0  0  0  0
   18.4173   42.7279   65.7627 C   0  0  0  0  0  0
   17.4447   42.2599   64.8783 C   0  0  0  0  0  0
   16.7545   43.9116   67.0879 N   0  0  0  0  0  0
   18.0347   43.5258   66.8415 C   0  0  0  0  0  0
   15.8251   43.4600   66.2371 C   0  0  0  0  0  0
   16.1213   42.6102   65.1401 C   0  0  0  0  0  0
   14.6365   42.2205   64.2888 S   0  0  0  0  0  0
   13.8207   43.3312   65.3579 C   0  0  0  0  0  0
   14.5210   43.8160   66.3400 N   0  0  0  0  0  0
   12.4980   43.6125   65.1143 O   0  0  0  0  0  0
   11.5171   42.8663   65.7315 C   0  0  0  0  0  0
   11.7428   41.5586   66.1552 C   0  0  0  0  0  0
   10.7195   40.8421   66.7386 C   0  0  0  0  0  0
    9.4689   41.4102   66.9863 C   0  0  0  0  0  0
    9.2338   42.7083   66.5441 C   0  0  0  0  0  0
   10.2436   43.4160   65.8914 C   0  0  0  0  0  0
    8.4559   40.7312   67.6381 O   0  0  0  0  0  0
    8.7697   39.4324   68.1428 C   0  0  0  0  0  0
    7.7211   38.8965   69.1126 C   0  0  0  0  0  0
    9.8214   35.7267   73.0873 C   0  0  0  0  0  0
   10.4252   36.4678   74.2801 C   0  0  0  0  0  0
   10.1216   34.5471   72.9110 O   0  0  0  0  0  0
    8.8743   39.5838   71.1931 H   0  0  0  0  0  0
   10.1831   38.4309   71.0306 H   0  0  0  0  0  0
    6.6174   36.6917   69.9978 H   0  0  0  0  0  0
    8.7410   38.2160   73.3245 H   0  0  0  0  0  0
    6.5700   38.5947   71.7969 H   0  0  0  0  0  0
    6.5136   37.0160   72.6178 H   0  0  0  0  0  0
    8.9211   35.4161   70.3380 H   0  0  0  0  0  0
    7.7192   34.9689   71.5400 H   0  0  0  0  0  0
   19.4591   42.4960   65.5918 H   0  0  0  0  0  0
   17.7209   41.7236   63.9843 H   0  0  0  0  0  0
   18.7790   43.8965   67.5298 H   0  0  0  0  0  0
   12.6900   41.0655   66.0028 H   0  0  0  0  0  0
   10.9208   39.8176   66.9706 H   0  0  0  0  0  0
    8.2663   43.1648   66.7013 H   0  0  0  0  0  0
   10.0432   44.4139   65.5394 H   0  0  0  0  0  0
    9.7225   39.4792   68.6736 H   0  0  0  0  0  0
    8.8898   38.7316   67.3134 H   0  0  0  0  0  0
    6.9314   38.4167   68.5320 H   0  0  0  0  0  0
    7.2565   39.7020   69.6819 H   0  0  0  0  0  0
    9.6551   36.6650   75.0254 H   0  0  0  0  0  0
   11.1989   35.8625   74.7536 H   0  0  0  0  0  0
   10.8719   37.4132   73.9709 H   0  0  0  0  0  0
  1  2  1  0  0  0
  1  4  1  0  0  0
  1 30  1  0  0  0
  1 31  1  0  0  0
  2  3  1  0  0  0
  2 26  1  0  0  0
  3  5  1  0  0  0
  3  6  1  0  0  0
  3 32  1  0  0  0
  4  5  1  0  0  0
  4  7  1  0  0  0
  4 33  1  0  0  0
  5 34  1  0  0  0
  5 35  1  0  0  0
  6  7  1  0  0  0
  6 36  1  0  0  0
  6 37  1  0  0  0
  7 27  1  0  0  0
  8  9  2  0  0  0
  8 11  1  0  0  0
  8 38  1  0  0  0
  9 13  1  0  0  0
  9 39  1  0  0  0
 10 12  1  0  0  0
 10 11  2  0  0  0
 11 40  1  0  0  0
 12 13  2  0  0  0
 12 16  1  0  0  0
 13 14  1  0  0  0
 14 15  1  0  0  0
 15 16  2  0  0  0
 15 17  1  0  0  0
 17 18  1  0  0  0
 18 19  2  0  0  0
 18 23  1  0  0  0
 19 20  1  0  0  0
 19 41  1  0  0  0
 20 21  2  0  0  0
 20 42  1  0  0  0
 21 22  1  0  0  0
 21 24  1  0  0  0
 22 23  2  0  0  0
 22 43  1  0  0  0
 23 44  1  0  0  0
 24 25  1  0  0  0
 25 26  1  0  0  0
 25 45  1  0  0  0
 25 46  1  0  0  0
 26 47  1  0  0  0
 26 48  1  0  0  0
 27 28  1  0  0  0
 27 29  2  0  0  0
 28 49  1  0  0  0
 28 50  1  0  0  0
 28 51  1  0  0  0
M  END
> <s_m_entry_id>
7004

> <s_m_entry_name>
dock_pv.434

> <s_m_Source_Path>
/home/csk/Desktop/cluster/DUD-E-result/lkha4

> <s_m_Source_File>
dock_pv.maegz

> <i_m_Source_File_Index>
434

> <chembl_id>
CHEMBL2207740

> <chembl_pref_name>
None

> <i_lp_mmshare_version>
53161

> <i_f3d_flags>
0

> <r_lp_tautomer_probability>
1

> <s_lp_Force_Field>
OPLS_2005

> <r_lp_Energy>
86.698287

> <b_lp_Chiralities_Consistent>
1

> <s_lp_Variant>
CHEMBL4618_lig406-2

> <s_i_glide_gridfile>
glide-grid_3chp

> <i_i_glide_lignum>
473

> <i_i_glide_rotatable_bonds>
7

> <r_i_docking_score>
-8.0069162349891

> <r_i_glide_ligand_efficiency>
-0.27610055982721

> <r_i_glide_ligand_efficiency_sa>
-0.848268394586297

> <r_i_glide_ligand_efficiency_ln>
-1.83338077993537

> <r_i_glide_gscore>
-8.0069162349891

> <r_i_glide_lipo>
-4.49752973552053

> <r_i_glide_hbond>
0

> <r_i_glide_metal>
0

> <r_i_glide_rewards>
-1.08833204564138

> <r_i_glide_evdw>
-53.1063766479492

> <r_i_glide_ecoul>
-2.86812162399292

> <r_i_glide_erotb>
0.701498567721789

> <r_i_glide_esite>
-0.0370159455525891

> <r_i_glide_emodel>
-71.6907118344419

> <r_i_glide_energy>
-55.9744982719421

> <r_i_glide_einternal>
14.0848636627197

> <i_i_glide_confnum>
30

> <i_i_glide_posenum>
301

> <r_i_glide_eff_state_penalty>
0

> <s_user_duplicate_titles>
CHEMBL4618_lig406

> <s_m_subgroup_title>
dock_pv

> <s_m_subgroupid>
dock_pv

> <b_m_subgroup_collapsed>
1

$$$$
CHEMBL4618_lig349
                    3D
 Schrodinger Suite 2021-1.
 41 43  0  0  1  0            999 V2000
   11.0648   35.1735   75.0106 C   0  0  0  0  0  0
   11.3216   33.9986   74.3145 C   0  0  0  0  0  0
   10.6534   33.7246   73.1235 C   0  0  0  0  0  0
    9.7357   34.6385   72.6157 C   0  0  0  0  0  0
    9.4634   35.8215   73.3123 C   0  0  0  0  0  0
   10.1447   36.0899   74.5056 C   0  0  0  0  0  0
    8.3372   36.7485   72.8567 C   0  0  0  0  0  0
    8.3949   37.2822   71.4302 C   0  0  0  0  0  0
    8.0212   36.4808   70.3577 C   0  0  0  0  0  0
    7.9801   37.0042   69.0725 C   0  0  0  0  0  0
    8.3184   38.3242   68.8328 C   0  0  0  0  0  0
    8.6727   39.1351   69.9091 C   0  0  0  0  0  0
    8.6992   38.6159   71.1906 C   0  0  0  0  0  0
    8.2669   38.7610   67.5314 O   0  0  0  0  0  0
    9.2508   39.6997   67.1142 C   0  0  0  0  0  0
    8.6534   41.1001   66.9101 C   0  0  2  0  0  0
    9.6230   42.0361   66.1678 C   0  0  0  0  0  0
    9.4936   43.3356   66.9366 C   0  0  0  0  0  0
    8.1836   43.1897   67.7025 C   0  0  0  0  0  0
    8.2270   41.8031   68.1092 N   0  0  1  0  0  0
   11.5740   35.3719   75.9410 H   0  0  0  0  0  0
   12.0247   33.2808   74.7136 H   0  0  0  0  0  0
   10.8429   32.7974   72.6030 H   0  0  0  0  0  0
    9.2014   34.3858   71.7145 H   0  0  0  0  0  0
    9.9366   36.9882   75.0680 H   0  0  0  0  0  0
    7.3931   36.2190   72.9804 H   0  0  0  0  0  0
    8.2801   37.5960   73.5369 H   0  0  0  0  0  0
    7.7305   35.4561   70.5245 H   0  0  0  0  0  0
    7.7219   36.3638   68.2485 H   0  0  0  0  0  0
    8.9141   40.1745   69.7806 H   0  0  0  0  0  0
    8.9188   39.2822   71.9929 H   0  0  0  0  0  0
   10.1218   39.7418   67.7701 H   0  0  0  0  0  0
    9.6272   39.3318   66.1606 H   0  0  0  0  0  0
    7.7409   40.9721   66.3393 H   0  0  0  0  0  0
   10.6551   41.6826   66.1500 H   0  0  0  0  0  0
    9.2975   42.2192   65.1446 H   0  0  0  0  0  0
   10.3282   43.4165   67.6356 H   0  0  0  0  0  0
    9.4958   44.2156   66.2954 H   0  0  0  0  0  0
    8.1236   43.8176   68.5916 H   0  0  0  0  0  0
    7.3190   43.3977   67.0706 H   0  0  0  0  0  0
    7.3196   41.4841   68.4248 H   0  0  0  0  0  0
  1  6  1  0  0  0
  1  2  2  0  0  0
  1 21  1  0  0  0
  2  3  1  0  0  0
  2 22  1  0  0  0
  3  4  2  0  0  0
  3 23  1  0  0  0
  4  5  1  0  0  0
  4 24  1  0  0  0
  5  6  2  0  0  0
  5  7  1  0  0  0
  6 25  1  0  0  0
  7  8  1  0  0  0
  7 26  1  0  0  0
  7 27  1  0  0  0
  8 13  1  0  0  0
  8  9  2  0  0  0
  9 10  1  0  0  0
  9 28  1  0  0  0
 10 11  2  0  0  0
 10 29  1  0  0  0
 11 12  1  0  0  0
 11 14  1  0  0  0
 12 13  2  0  0  0
 12 30  1  0  0  0
 13 31  1  0  0  0
 14 15  1  0  0  0
 15 16  1  0  0  0
 15 32  1  0  0  0
 15 33  1  0  0  0
 16 17  1  0  0  0
 16 20  1  0  0  0
 16 34  1  0  0  0
 17 18  1  0  0  0
 17 35  1  0  0  0
 17 36  1  0  0  0
 18 19  1  0  0  0
 18 37  1  0  0  0
 18 38  1  0  0  0
 19 20  1  0  0  0
 19 39  1  0  0  0
 19 40  1  0  0  0
 20 41  1  0  0  0
M  END
> <s_m_entry_id>
7005

> <s_m_entry_name>
dock_pv.435

> <s_m_Source_Path>
/home/csk/Desktop/cluster/DUD-E-result/lkha4

> <s_m_Source_File>
dock_pv.maegz

> <i_m_Source_File_Index>
435

> <chembl_id>
CHEMBL566422

> <chembl_pref_name>
None

> <i_lp_mmshare_version>
53161

> <i_f3d_flags>
0

> <r_lp_tautomer_probability>
1

> <s_lp_Force_Field>
OPLS_2005

> <r_lp_Energy>
34.412327

> <b_lp_Chiralities_Consistent>
1

> <s_lp_Variant>
CHEMBL4618_lig349-1

> <s_i_glide_gridfile>
glide-grid_3chp

> <i_i_glide_lignum>
393

> <i_i_glide_rotatable_bonds>
5

> <r_i_docking_score>
-8.0012564836558

> <r_i_glide_ligand_efficiency>
-0.40006282418279

> <r_i_glide_ligand_efficiency_sa>
-1.08593757662208

> <r_i_glide_ligand_efficiency_ln>
-2.00245059875824

> <r_i_glide_gscore>
-8.0012564836558

> <r_i_glide_lipo>
-4.87141905736884

> <r_i_glide_hbond>
0

> <r_i_glide_metal>
0

> <r_i_glide_rewards>
-2.22592971626737

> <r_i_glide_evdw>
-36.280948638916

> <r_i_glide_ecoul>
-2.24699997901917

> <r_i_glide_erotb>
1.24718971877909

> <r_i_glide_esite>
0

> <r_i_glide_emodel>
-51.6872977596521

> <r_i_glide_energy>
-38.5279486179352

> <r_i_glide_einternal>
7.84180974960327

> <i_i_glide_confnum>
87

> <i_i_glide_posenum>
352

> <r_i_glide_eff_state_penalty>
0

> <s_user_duplicate_titles>
CHEMBL4618_lig349

> <s_m_subgroup_title>
dock_pv

> <s_m_subgroupid>
dock_pv

> <b_m_subgroup_collapsed>
1

$$$$
CHEMBL4618_lig434
                    3D
 Schrodinger Suite 2021-1.
 50 55  0  0  1  0            999 V2000
   13.3634   42.3721   64.6878 O   0  0  0  0  0  0
   15.9734   42.2153   64.3401 S   0  0  0  0  0  0
   14.5642   42.7997   65.1945 C   0  0  0  0  0  0
   14.7714   43.6115   66.2004 N   0  0  0  0  0  0
   16.1061   43.8156   66.3866 C   0  0  0  0  0  0
   16.9500   43.1008   65.4965 C   0  0  0  0  0  0
   16.7102   44.6082   67.3785 C   0  0  0  0  0  0
   18.1063   44.6350   67.4277 C   0  0  0  0  0  0
   18.8380   43.8850   66.5046 C   0  0  0  0  0  0
   18.2835   43.1078   65.5384 N   0  0  0  0  0  0
   10.1554   43.3637   66.2297 C   0  0  0  0  0  0
   11.3994   43.4324   65.5850 C   0  0  0  0  0  0
   12.2300   42.3232   65.4642 C   0  0  0  0  0  0
   11.8109   41.0860   65.9401 C   0  0  0  0  0  0
    8.6165   41.6843   67.5151 C   0  0  0  0  0  0
    9.7497   42.1490   66.7846 C   0  0  0  0  0  0
   10.5787   41.0239   66.6172 C   0  0  0  0  0  0
    9.9708   39.9118   67.1293 O   0  0  0  0  0  0
    8.7985   40.3212   67.6980 C   0  0  0  0  0  0
    7.8944   39.2498   68.2863 C   0  0  0  0  0  0
    8.5210   38.3343   69.2454 N   0  0  1  0  0  0
    9.0630   38.9707   70.4606 C   0  0  0  0  0  0
    8.3779   38.2347   71.6386 C   0  0  2  0  0  0
    8.8356   36.8312   71.5930 N   0  0  0  0  0  0
    8.2460   36.2161   70.3990 C   0  0  0  0  0  0
    7.5138   37.4159   69.8089 C   0  0  1  0  0  0
    9.5806   36.1555   72.4939 C   0  0  0  0  0  0
    9.8687   34.9675   72.3520 O   0  0  0  0  0  0
   10.1129   36.8931   73.7184 C   0  0  0  0  0  0
    6.9889   38.0833   71.0549 C   0  0  0  0  0  0
   16.1217   45.1423   68.1056 H   0  0  0  0  0  0
   18.6158   45.2112   68.1854 H   0  0  0  0  0  0
   19.9179   43.8872   66.5305 H   0  0  0  0  0  0
    9.5009   44.2159   66.3195 H   0  0  0  0  0  0
   11.7312   44.3535   65.1390 H   0  0  0  0  0  0
   12.3959   40.2161   65.7047 H   0  0  0  0  0  0
    7.7540   42.2545   67.8330 H   0  0  0  0  0  0
    7.5106   38.6288   67.4744 H   0  0  0  0  0  0
    7.0275   39.7302   68.7408 H   0  0  0  0  0  0
    8.7848   40.0252   70.4867 H   0  0  0  0  0  0
   10.1496   38.9240   70.5158 H   0  0  0  0  0  0
    8.4610   38.7170   72.6114 H   0  0  0  0  0  0
    7.5814   35.4266   70.7398 H   0  0  0  0  0  0
    8.9213   35.8161   69.6673 H   0  0  0  0  0  0
    6.7409   37.1236   69.1049 H   0  0  0  0  0  0
    9.3149   37.0157   74.4496 H   0  0  0  0  0  0
   10.9142   36.3220   74.1877 H   0  0  0  0  0  0
   10.5108   37.8710   73.4526 H   0  0  0  0  0  0
    6.3087   37.4819   71.6600 H   0  0  0  0  0  0
    6.5210   39.0159   70.7711 H   0  0  0  0  0  0
  1  3  1  0  0  0
  1 13  1  0  0  0
  2  3  1  0  0  0
  2  6  1  0  0  0
  3  4  2  0  0  0
  4  5  1  0  0  0
  5  6  1  0  0  0
  5  7  2  0  0  0
  6 10  2  0  0  0
  7  8  1  0  0  0
  7 31  1  0  0  0
  8  9  2  0  0  0
  8 32  1  0  0  0
  9 10  1  0  0  0
  9 33  1  0  0  0
 11 16  2  0  0  0
 11 12  1  0  0  0
 11 34  1  0  0  0
 12 13  2  0  0  0
 12 35  1  0  0  0
 13 14  1  0  0  0
 14 17  2  0  0  0
 14 36  1  0  0  0
 15 16  1  0  0  0
 15 19  2  0  0  0
 15 37  1  0  0  0
 16 17  1  0  0  0
 17 18  1  0  0  0
 18 19  1  0  0  0
 19 20  1  0  0  0
 20 21  1  0  0  0
 20 38  1  0  0  0
 20 39  1  0  0  0
 21 22  1  0  0  0
 21 26  1  0  0  0
 22 23  1  0  0  0
 22 40  1  0  0  0
 22 41  1  0  0  0
 23 24  1  0  0  0
 23 30  1  0  0  0
 23 42  1  0  0  0
 24 25  1  0  0  0
 24 27  1  0  0  0
 25 26  1  0  0  0
 25 43  1  0  0  0
 25 44  1  0  0  0
 26 30  1  0  0  0
 26 45  1  0  0  0
 27 28  2  0  0  0
 27 29  1  0  0  0
 29 46  1  0  0  0
 29 47  1  0  0  0
 29 48  1  0  0  0
 30 49  1  0  0  0
 30 50  1  0  0  0
M  END
> <s_m_entry_id>
7006

> <s_m_entry_name>
dock_pv.436

> <s_m_Source_Path>
/home/csk/Desktop/cluster/DUD-E-result/lkha4

> <s_m_Source_File>
dock_pv.maegz

> <i_m_Source_File_Index>
436

> <chembl_id>
CHEMBL2313271

> <chembl_pref_name>
None

> <i_lp_mmshare_version>
53161

> <i_f3d_flags>
0

> <r_lp_tautomer_probability>
1

> <s_lp_Force_Field>
OPLS_2005

> <r_lp_Energy>
81.64602

> <b_lp_Chiralities_Consistent>
1

> <s_lp_Variant>
CHEMBL4618_lig434-1

> <s_i_glide_gridfile>
glide-grid_3chp

> <i_i_glide_lignum>
504

> <i_i_glide_rotatable_bonds>
5

> <r_i_docking_score>
-7.98204272855572

> <r_i_glide_ligand_efficiency>
-0.266068090951857

> <r_i_glide_ligand_efficiency_sa>
-0.826735420065402

> <r_i_glide_ligand_efficiency_ln>
-1.81360707924924

> <r_i_glide_gscore>
-7.98204272855572

> <r_i_glide_lipo>
-4.4687154433098

> <r_i_glide_hbond>
0

> <r_i_glide_metal>
0

> <r_i_glide_rewards>
-1.44212092406753

> <r_i_glide_evdw>
-52.449104309082

> <r_i_glide_ecoul>
0.689776659011841

> <r_i_glide_erotb>
0.447782355423934

> <r_i_glide_esite>
0

> <r_i_glide_emodel>
-63.5422965025877

> <r_i_glide_energy>
-51.7593276500702

> <r_i_glide_einternal>
2.14731073379517

> <i_i_glide_confnum>
13

> <i_i_glide_posenum>
76

> <r_i_glide_eff_state_penalty>
0

> <s_user_duplicate_titles>
CHEMBL4618_lig434

> <s_m_subgroup_title>
dock_pv

> <s_m_subgroupid>
dock_pv

> <b_m_subgroup_collapsed>
1

$$$$
CHEMBL4618_lig260
                    3D
 Schrodinger Suite 2021-1.
 44 47  0  0  1  0            999 V2000
   10.3236   36.9350   73.4711 C   0  0  0  0  0  0
    9.1596   36.1813   73.5906 C   0  0  0  0  0  0
    8.1210   36.3001   72.6630 C   0  0  0  0  0  0
   10.4989   37.8160   72.4013 C   0  0  0  0  0  0
    9.4227   37.9661   71.5206 C   0  0  0  0  0  0
    8.2377   37.2323   71.6309 C   0  0  0  0  0  0
    7.3667   37.5934   70.6428 N   0  0  0  0  0  0
    8.0383   38.5171   69.9983 C   0  0  0  0  0  0
    9.3009   38.7980   70.4515 O   0  0  0  0  0  0
    7.5334   39.2258   68.9368 O   0  0  0  0  0  0
    8.3416   40.1269   68.2974 C   0  0  0  0  0  0
    9.2371   39.6697   67.3378 C   0  0  0  0  0  0
   10.1210   40.5571   66.7400 C   0  0  0  0  0  0
   10.1304   41.9102   67.1030 C   0  0  0  0  0  0
    9.1528   42.3715   67.9868 C   0  0  0  0  0  0
    8.2605   41.4866   68.5905 C   0  0  0  0  0  0
   11.0812   42.8170   66.6626 O   0  0  0  0  0  0
   12.2192   42.3276   65.9451 C   0  0  0  0  0  0
   13.4259   43.2749   66.0627 C   0  0  0  0  0  0
   14.6409   42.6519   65.5195 N   0  0  0  0  0  0
   15.8323   43.4711   65.6806 C   0  0  0  0  0  0
   16.8726   42.8436   64.7518 C   0  0  0  0  0  0
   16.0371   42.1795   63.6534 C   0  0  0  0  0  0
   14.5894   42.4194   64.0789 C   0  0  0  0  0  0
   11.1077   36.8137   74.2043 H   0  0  0  0  0  0
    9.0671   35.4821   74.4088 H   0  0  0  0  0  0
    7.2380   35.7022   72.7400 H   0  0  0  0  0  0
   11.4070   38.3841   72.2762 H   0  0  0  0  0  0
    9.2723   38.6199   67.0835 H   0  0  0  0  0  0
   10.8136   40.1560   66.0162 H   0  0  0  0  0  0
    9.1129   43.4160   68.2436 H   0  0  0  0  0  0
    7.5333   41.8460   69.3048 H   0  0  0  0  0  0
   11.9367   42.2160   64.9000 H   0  0  0  0  0  0
   12.5457   41.3562   66.3212 H   0  0  0  0  0  0
   13.5838   43.5121   67.1157 H   0  0  0  0  0  0
   13.2138   44.2160   65.5529 H   0  0  0  0  0  0
   16.1365   43.4553   66.7280 H   0  0  0  0  0  0
   15.6493   44.5203   65.4483 H   0  0  0  0  0  0
   17.5041   42.1308   65.2814 H   0  0  0  0  0  0
   17.5276   43.6122   64.3400 H   0  0  0  0  0  0
   16.2174   42.6296   62.6790 H   0  0  0  0  0  0
   16.2465   41.1188   63.5451 H   0  0  0  0  0  0
   14.1265   43.2483   63.5381 H   0  0  0  0  0  0
   13.9595   41.5534   63.8704 H   0  0  0  0  0  0
  1  2  2  0  0  0
  1  4  1  0  0  0
  1 25  1  0  0  0
  2  3  1  0  0  0
  2 26  1  0  0  0
  3  6  2  0  0  0
  3 27  1  0  0  0
  4  5  2  0  0  0
  4 28  1  0  0  0
  5  9  1  0  0  0
  5  6  1  0  0  0
  6  7  1  0  0  0
  7  8  2  0  0  0
  8  9  1  0  0  0
  8 10  1  0  0  0
 10 11  1  0  0  0
 11 12  2  0  0  0
 11 16  1  0  0  0
 12 13  1  0  0  0
 12 29  1  0  0  0
 13 14  2  0  0  0
 13 30  1  0  0  0
 14 15  1  0  0  0
 14 17  1  0  0  0
 15 16  2  0  0  0
 15 31  1  0  0  0
 16 32  1  0  0  0
 17 18  1  0  0  0
 18 19  1  0  0  0
 18 33  1  0  0  0
 18 34  1  0  0  0
 19 20  1  0  0  0
 19 35  1  0  0  0
 19 36  1  0  0  0
 20 21  1  0  0  0
 20 24  1  0  0  0
 21 22  1  0  0  0
 21 37  1  0  0  0
 21 38  1  0  0  0
 22 23  1  0  0  0
 22 39  1  0  0  0
 22 40  1  0  0  0
 23 24  1  0  0  0
 23 41  1  0  0  0
 23 42  1  0  0  0
 24 43  1  0  0  0
 24 44  1  0  0  0
M  END
> <s_m_entry_id>
7007

> <s_m_entry_name>
dock_pv.437

> <s_m_Source_Path>
/home/csk/Desktop/cluster/DUD-E-result/lkha4

> <s_m_Source_File>
dock_pv.maegz

> <i_m_Source_File_Index>
437

> <chembl_id>
CHEMBL479958

> <chembl_pref_name>
None

> <i_lp_mmshare_version>
53161

> <i_f3d_flags>
0

> <r_lp_tautomer_probability>
1

> <s_lp_Force_Field>
OPLS_2005

> <r_lp_Energy>
41.10792

> <b_lp_Chiralities_Consistent>
1

> <s_lp_Variant>
CHEMBL4618_lig260-1

> <s_i_glide_gridfile>
glide-grid_3chp

> <i_i_glide_lignum>
298

> <i_i_glide_rotatable_bonds>
6

> <r_i_docking_score>
-7.95868106794471

> <r_i_glide_ligand_efficiency>
-0.331611711164363

> <r_i_glide_ligand_efficiency_sa>
-0.956533694858108

> <r_i_glide_ligand_efficiency_ln>
-1.90487757963662

> <r_i_glide_gscore>
-7.95868106794471

> <r_i_glide_lipo>
-4.48773696087598

> <r_i_glide_hbond>
-0.0199681999220584

> <r_i_glide_metal>
0

> <r_i_glide_rewards>
-1.80699395807555

> <r_i_glide_evdw>
-42.7746238708496

> <r_i_glide_ecoul>
-2.63434910774231

> <r_i_glide_erotb>
0.889901610632714

> <r_i_glide_esite>
0

> <r_i_glide_emodel>
-64.0625682758444

> <r_i_glide_energy>
-45.4089729785919

> <r_i_glide_einternal>
7.5622673034668

> <i_i_glide_confnum>
23

> <i_i_glide_posenum>
299

> <r_i_glide_eff_state_penalty>
0

> <s_user_duplicate_titles>
CHEMBL4618_lig260,467453

> <s_m_subgroup_title>
dock_pv

> <s_m_subgroupid>
dock_pv

> <b_m_subgroup_collapsed>
1

$$$$
CHEMBL4618_lig258
                    3D
 Schrodinger Suite 2021-1.
 61 62  0  0  1  0            999 V2000
    8.5769   36.6245   71.3028 C   0  0  0  0  0  0
    7.7232   36.6378   70.1986 C   0  0  0  0  0  0
    7.6624   37.7276   69.3537 C   0  0  0  0  0  0
    8.4382   38.8423   69.6461 C   0  0  0  0  0  0
    9.1907   38.8972   70.8038 C   0  0  0  0  0  0
    9.2987   37.7826   71.6122 C   0  0  0  0  0  0
    8.5132   39.9351   68.8086 N   0  0  0  0  0  0
    8.6038   39.9028   67.4717 C   0  0  0  0  0  0
    8.7254   41.2413   66.7405 C   0  0  0  0  0  0
    8.5210   38.8758   66.7959 O   0  0  0  0  0  0
    9.2887   42.3224   67.5318 N   0  0  2  0  0  0
    8.6865   35.4428   72.0039 O   0  0  0  0  0  0
    9.6049   35.2646   73.0155 C   0  0  0  0  0  0
    9.6064   36.0742   74.1574 C   0  0  0  0  0  0
   10.4969   35.8166   75.1902 C   0  0  0  0  0  0
   11.3212   34.6986   75.1161 C   0  0  0  0  0  0
   11.3207   33.8789   73.9903 C   0  0  0  0  0  0
   10.4653   34.1700   72.9336 C   0  0  0  0  0  0
    8.3787   42.9325   68.5150 C   0  0  0  0  0  0
    9.8806   43.4160   66.7550 C   0  0  0  0  0  0
   10.6734   43.1273   65.4663 C   0  0  0  0  0  0
   12.0654   42.5014   65.6795 C   0  0  0  0  0  0
   13.1222   43.5142   65.6232 N   0  0  1  0  0  0
   14.3593   42.9503   66.1509 C   0  0  0  0  0  0
   13.3220   44.0275   64.2658 C   0  0  0  0  0  0
   15.5417   43.9355   66.3224 C   0  0  0  0  0  0
   16.8871   43.2827   66.7046 C   0  0  0  0  0  0
   17.4631   42.4451   65.5641 C   0  0  0  0  0  0
   18.6402   42.9765   65.1400 O   0  0  0  0  0  0
   16.9212   41.4161   65.1360 O   0  0  0  0  0  0
    7.1114   35.8055   69.9401 H   0  0  0  0  0  0
    7.0312   37.6940   68.4772 H   0  0  0  0  0  0
    9.7210   39.7886   71.0826 H   0  0  0  0  0  0
    9.9678   37.8416   72.4534 H   0  0  0  0  0  0
    8.6585   40.8349   69.2393 H   0  0  0  0  0  0
    7.7502   41.5094   66.3399 H   0  0  0  0  0  0
    9.4056   40.9898   65.9400 H   0  0  0  0  0  0
    8.9144   36.8976   74.2482 H   0  0  0  0  0  0
   10.5068   36.4442   76.0683 H   0  0  0  0  0  0
   11.9757   34.4653   75.9408 H   0  0  0  0  0  0
   11.9688   33.0157   73.9481 H   0  0  0  0  0  0
   10.4385   33.5273   72.0668 H   0  0  0  0  0  0
    7.7155   42.2253   69.0079 H   0  0  0  0  0  0
    8.9546   43.4161   69.3019 H   0  0  0  0  0  0
    7.7214   43.6749   68.0576 H   0  0  0  0  0  0
   10.6100   43.8160   67.4517 H   0  0  0  0  0  0
    9.1466   44.1942   66.5321 H   0  0  0  0  0  0
   10.7684   44.1175   65.0262 H   0  0  0  0  0  0
   10.1172   42.5517   64.7400 H   0  0  0  0  0  0
   12.2651   41.7162   64.9512 H   0  0  0  0  0  0
   12.0741   42.0110   66.6554 H   0  0  0  0  0  0
   14.6388   42.0734   65.5679 H   0  0  0  0  0  0
   14.1215   42.5804   67.1400 H   0  0  0  0  0  0
   12.3971   44.2013   63.7212 H   0  0  0  0  0  0
   13.8127   44.9954   64.3400 H   0  0  0  0  0  0
   13.9334   43.3594   63.6549 H   0  0  0  0  0  0
   15.3002   44.6124   67.1405 H   0  0  0  0  0  0
   15.6781   44.5673   65.4455 H   0  0  0  0  0  0
   16.8309   42.6773   67.6093 H   0  0  0  0  0  0
   17.5906   44.0802   66.9534 H   0  0  0  0  0  0
   18.8741   42.7028   64.2394 H   0  0  0  0  0  0
  1 12  1  0  0  0
  1  6  1  0  0  0
  1  2  2  0  0  0
  2  3  1  0  0  0
  2 31  1  0  0  0
  3  4  2  0  0  0
  3 32  1  0  0  0
  4  5  1  0  0  0
  4  7  1  0  0  0
  5  6  2  0  0  0
  5 33  1  0  0  0
  6 34  1  0  0  0
  7  8  1  0  0  0
  7 35  1  0  0  0
  8  9  1  0  0  0
  8 10  2  0  0  0
  9 11  1  0  0  0
  9 36  1  0  0  0
  9 37  1  0  0  0
 11 19  1  0  0  0
 11 20  1  0  0  0
 12 13  1  0  0  0
 13 18  1  0  0  0
 13 14  2  0  0  0
 14 15  1  0  0  0
 14 38  1  0  0  0
 15 16  2  0  0  0
 15 39  1  0  0  0
 16 17  1  0  0  0
 16 40  1  0  0  0
 17 18  2  0  0  0
 17 41  1  0  0  0
 18 42  1  0  0  0
 19 43  1  0  0  0
 19 44  1  0  0  0
 19 45  1  0  0  0
 20 21  1  0  0  0
 20 46  1  0  0  0
 20 47  1  0  0  0
 21 22  1  0  0  0
 21 48  1  0  0  0
 21 49  1  0  0  0
 22 23  1  0  0  0
 22 50  1  0  0  0
 22 51  1  0  0  0
 23 24  1  0  0  0
 23 25  1  0  0  0
 24 26  1  0  0  0
 24 52  1  0  0  0
 24 53  1  0  0  0
 25 54  1  0  0  0
 25 55  1  0  0  0
 25 56  1  0  0  0
 26 27  1  0  0  0
 26 57  1  0  0  0
 26 58  1  0  0  0
 27 28  1  0  0  0
 27 59  1  0  0  0
 27 60  1  0  0  0
 28 29  1  0  0  0
 28 30  2  0  0  0
 29 61  1  0  0  0
M  END
> <s_m_entry_id>
7008

> <s_m_entry_name>
dock_pv.438

> <s_m_Source_Path>
/home/csk/Desktop/cluster/DUD-E-result/lkha4

> <s_m_Source_File>
dock_pv.maegz

> <i_m_Source_File_Index>
438

> <chembl_id>
CHEMBL480986

> <chembl_pref_name>
None

> <i_lp_mmshare_version>
53161

> <i_f3d_flags>
0

> <r_lp_tautomer_probability>
1

> <s_lp_Force_Field>
OPLS_2005

> <r_lp_Energy>
32.732139

> <b_lp_Chiralities_Consistent>
1

> <s_lp_Variant>
CHEMBL4618_lig258-1

> <s_i_glide_gridfile>
glide-grid_3chp

> <i_i_glide_lignum>
296

> <i_i_glide_rotatable_bonds>
15

> <r_i_docking_score>
-7.95065934692311

> <r_i_glide_ligand_efficiency>
-0.26502197823077

> <r_i_glide_ligand_efficiency_sa>
-0.823484904617234

> <r_i_glide_ligand_efficiency_ln>
-1.80647643299298

> <r_i_glide_gscore>
-7.95065934692311

> <r_i_glide_lipo>
-4.36383947413139

> <r_i_glide_hbond>
-0.306639493310602

> <r_i_glide_metal>
0

> <r_i_glide_rewards>
-0.896708295527988

> <r_i_glide_evdw>
-53.3969802856445

> <r_i_glide_ecoul>
-8.19297218322754

> <r_i_glide_erotb>
1.61532275781322

> <r_i_glide_esite>
-0.1

> <r_i_glide_emodel>
-77.8692071150488

> <r_i_glide_energy>
-61.5899524688721

> <r_i_glide_einternal>
12.741491317749

> <i_i_glide_confnum>
20

> <i_i_glide_posenum>
361

> <r_i_glide_eff_state_penalty>
0

> <s_user_duplicate_titles>
CHEMBL4618_lig258,467570

> <s_m_subgroup_title>
dock_pv

> <s_m_subgroupid>
dock_pv

> <b_m_subgroup_collapsed>
1

$$$$
CHEMBL4618_lig424
                    3D
 Schrodinger Suite 2021-1.
 55 58  0  0  1  0            999 V2000
   11.0070   42.1455   66.2138 C   0  0  0  0  0  0
   10.1902   43.2528   65.9607 C   0  0  0  0  0  0
    8.9212   43.3772   66.5171 C   0  0  0  0  0  0
   10.5195   41.0805   66.9652 C   0  0  0  0  0  0
    9.2601   41.1635   67.5708 C   0  0  0  0  0  0
    8.4897   42.3435   67.3460 C   0  0  0  0  0  0
    7.3453   42.2156   68.0893 N   0  0  0  0  0  0
    7.3624   41.0122   68.7399 C   0  0  0  0  0  0
    8.5059   40.2929   68.4434 C   0  0  0  0  0  0
    8.8983   38.9127   68.9642 C   0  0  0  0  0  0
    7.7346   38.1551   69.6525 C   0  0  0  0  0  0
    8.1207   36.8984   70.2975 N   0  0  0  0  0  0
   12.3017   42.0398   65.7541 O   0  0  0  0  0  0
   13.0135   43.2486   65.5018 C   0  0  0  0  0  0
   14.4788   42.9340   65.2906 C   0  0  0  0  0  0
   14.8506   42.0693   64.2636 C   0  0  0  0  0  0
   16.1935   41.8166   64.0096 C   0  0  0  0  0  0
   17.1705   42.3921   64.8171 C   0  0  0  0  0  0
   16.8212   43.2622   65.8643 C   0  0  0  0  0  0
   15.4667   43.5302   66.0816 C   0  0  0  0  0  0
   17.7382   43.8967   66.6820 O   0  0  0  0  0  0
   19.0092   43.3930   66.8312 C   0  0  0  0  0  0
   19.9730   43.5828   65.8382 C   0  0  0  0  0  0
   21.2348   43.0134   65.9721 C   0  0  0  0  0  0
   21.5382   42.2732   67.1116 C   0  0  0  0  0  0
   20.5956   42.1082   68.1239 C   0  0  0  0  0  0
   19.3289   42.6749   67.9849 C   0  0  0  0  0  0
    8.7322   36.8492   71.5404 C   0  0  0  0  0  0
    8.9665   35.5659   71.8657 O   0  0  0  0  0  0
    9.0326   37.8165   72.2428 O   0  0  0  0  0  0
    9.6193   35.2416   73.0862 C   0  0  0  0  0  0
   10.5507   44.0669   65.3565 H   0  0  0  0  0  0
    8.3139   44.2553   66.3473 H   0  0  0  0  0  0
   11.1353   40.2167   67.1252 H   0  0  0  0  0  0
    6.5978   42.9012   68.2157 H   0  0  0  0  0  0
    6.5228   40.7475   69.3548 H   0  0  0  0  0  0
    9.7200   39.0153   69.6726 H   0  0  0  0  0  0
    9.2814   38.3007   68.1460 H   0  0  0  0  0  0
    6.9564   37.9401   68.9211 H   0  0  0  0  0  0
    7.2656   38.7929   70.4044 H   0  0  0  0  0  0
    7.9451   36.0230   69.8257 H   0  0  0  0  0  0
   12.6349   43.7413   64.6045 H   0  0  0  0  0  0
   12.8949   43.9372   66.3401 H   0  0  0  0  0  0
   14.1029   41.6354   63.6162 H   0  0  0  0  0  0
   16.4714   41.2399   63.1372 H   0  0  0  0  0  0
   18.2060   42.2158   64.5679 H   0  0  0  0  0  0
   15.1856   44.2059   66.8743 H   0  0  0  0  0  0
   19.7185   44.1330   64.9428 H   0  0  0  0  0  0
   21.9658   43.1246   65.1872 H   0  0  0  0  0  0
   22.5142   41.8151   67.2062 H   0  0  0  0  0  0
   20.8402   41.5346   69.0058 H   0  0  0  0  0  0
   18.5876   42.5384   68.7589 H   0  0  0  0  0  0
    9.7279   34.1610   73.1751 H   0  0  0  0  0  0
    9.0463   35.5966   73.9454 H   0  0  0  0  0  0
   10.6138   35.6880   73.1316 H   0  0  0  0  0  0
  1  2  2  0  0  0
  1  4  1  0  0  0
  1 13  1  0  0  0
  2  3  1  0  0  0
  2 32  1  0  0  0
  3  6  2  0  0  0
  3 33  1  0  0  0
  4  5  2  0  0  0
  4 34  1  0  0  0
  5  6  1  0  0  0
  5  9  1  0  0  0
  6  7  1  0  0  0
  7  8  1  0  0  0
  7 35  1  0  0  0
  8  9  2  0  0  0
  8 36  1  0  0  0
  9 10  1  0  0  0
 10 11  1  0  0  0
 10 37  1  0  0  0
 10 38  1  0  0  0
 11 12  1  0  0  0
 11 39  1  0  0  0
 11 40  1  0  0  0
 12 28  1  0  0  0
 12 41  1  0  0  0
 13 14  1  0  0  0
 14 15  1  0  0  0
 14 42  1  0  0  0
 14 43  1  0  0  0
 15 16  2  0  0  0
 15 20  1  0  0  0
 16 17  1  0  0  0
 16 44  1  0  0  0
 17 18  2  0  0  0
 17 45  1  0  0  0
 18 19  1  0  0  0
 18 46  1  0  0  0
 19 20  2  0  0  0
 19 21  1  0  0  0
 20 47  1  0  0  0
 21 22  1  0  0  0
 22 23  2  0  0  0
 22 27  1  0  0  0
 23 24  1  0  0  0
 23 48  1  0  0  0
 24 25  2  0  0  0
 24 49  1  0  0  0
 25 26  1  0  0  0
 25 50  1  0  0  0
 26 27  2  0  0  0
 26 51  1  0  0  0
 27 52  1  0  0  0
 28 29  1  0  0  0
 28 30  2  0  0  0
 29 31  1  0  0  0
 31 53  1  0  0  0
 31 54  1  0  0  0
 31 55  1  0  0  0
M  END
> <s_m_entry_id>
7009

> <s_m_entry_name>
dock_pv.439

> <s_m_Source_Path>
/home/csk/Desktop/cluster/DUD-E-result/lkha4

> <s_m_Source_File>
dock_pv.maegz

> <i_m_Source_File_Index>
439

> <chembl_id>
CHEMBL2316063

> <chembl_pref_name>
None

> <i_lp_mmshare_version>
53161

> <i_f3d_flags>
0

> <r_lp_tautomer_probability>
1

> <s_lp_Force_Field>
OPLS_2005

> <r_lp_Energy>
20.975424

> <b_lp_Chiralities_Consistent>
1

> <s_lp_Variant>
CHEMBL4618_lig424-1

> <s_i_glide_gridfile>
glide-grid_3chp

> <i_i_glide_lignum>
491

> <i_i_glide_rotatable_bonds>
10

> <r_i_docking_score>
-7.94517379236206

> <r_i_glide_ligand_efficiency>
-0.256295928785873

> <r_i_glide_ligand_efficiency_sa>
-0.80512307105303

> <r_i_glide_ligand_efficiency_ln>
-1.7918801805123

> <r_i_glide_gscore>
-7.94517379236206

> <r_i_glide_lipo>
-3.74908396161274

> <r_i_glide_hbond>
-0.16

> <r_i_glide_metal>
0

> <r_i_glide_rewards>
-0.966882518123772

> <r_i_glide_evdw>
-60.2740859985352

> <r_i_glide_ecoul>
-7.09148550033569

> <r_i_glide_erotb>
1.02513613372828

> <r_i_glide_esite>
-0.0169163213767256

> <r_i_glide_emodel>
-96.1469091600868

> <r_i_glide_energy>
-67.3655714988708

> <r_i_glide_einternal>
9.48180484771729

> <i_i_glide_confnum>
139

> <i_i_glide_posenum>
68

> <r_i_glide_eff_state_penalty>
0

> <s_user_duplicate_titles>
CHEMBL4618_lig424

> <s_m_subgroup_title>
dock_pv

> <s_m_subgroupid>
dock_pv

> <b_m_subgroup_collapsed>
1

$$$$
CHEMBL4618_lig117
                    3D
 Schrodinger Suite 2021-1.
 44 46  0  0  1  0            999 V2000
    8.7653   41.9318   67.7858 C   0  0  0  0  0  0
   10.0132   42.1550   66.9207 C   0  0  0  0  0  0
   16.4489   42.1313   65.2125 N   0  0  0  0  0  0
    8.4908   40.4704   68.1701 C   0  0  0  0  0  0
    8.9198   42.6784   68.8801 F   0  0  0  0  0  0
    7.6936   42.3777   67.1400 F   0  0  0  0  0  0
   11.0685   41.2469   66.9731 C   0  0  0  0  0  0
   10.1142   43.2567   66.0689 C   0  0  0  0  0  0
   12.3501   42.5746   65.4268 C   0  0  0  0  0  0
   11.2881   43.4693   65.3480 C   0  0  0  0  0  0
   12.2303   41.4524   66.2455 C   0  0  0  0  0  0
   13.4805   42.8544   64.6925 O   0  0  0  0  0  0
   15.7025   42.0853   63.9400 C   0  0  0  0  0  0
   14.1981   41.7652   64.1041 C   0  0  0  0  0  0
   15.9558   43.1813   66.1107 C   0  0  0  0  0  0
   17.8113   42.6156   65.0186 C   0  0  0  0  0  0
    8.5748   39.4765   67.1966 C   0  0  0  0  0  0
    8.2002   40.1007   69.4859 C   0  0  0  0  0  0
   18.3327   43.0261   66.3936 C   0  0  0  0  0  0
   17.0631   43.4201   67.1401 C   0  0  0  0  0  0
    8.4017   38.1512   67.5400 C   0  0  0  0  0  0
    8.0181   38.7652   69.8331 C   0  0  0  0  0  0
    8.1193   37.7882   68.8516 C   0  0  0  0  0  0
   11.0176   40.3907   67.6272 H   0  0  0  0  0  0
    9.3066   43.9735   66.0078 H   0  0  0  0  0  0
   11.3915   44.3507   64.7400 H   0  0  0  0  0  0
   13.0389   40.7484   66.3557 H   0  0  0  0  0  0
   15.8074   43.0160   63.3918 H   0  0  0  0  0  0
   16.1522   41.3379   63.2861 H   0  0  0  0  0  0
   13.7210   41.6214   63.1400 H   0  0  0  0  0  0
   14.1090   40.8060   64.6078 H   0  0  0  0  0  0
   15.0242   42.8724   66.5836 H   0  0  0  0  0  0
   15.6968   44.0950   65.5690 H   0  0  0  0  0  0
   17.8345   43.4675   64.3400 H   0  0  0  0  0  0
   18.4133   41.8429   64.5504 H   0  0  0  0  0  0
    8.8291   39.7149   66.1785 H   0  0  0  0  0  0
    8.1210   40.8489   70.2526 H   0  0  0  0  0  0
   19.0272   43.8622   66.3048 H   0  0  0  0  0  0
   18.8714   42.2160   66.8830 H   0  0  0  0  0  0
   16.9210   42.8186   68.0381 H   0  0  0  0  0  0
   17.0817   44.4644   67.4527 H   0  0  0  0  0  0
    8.5219   37.4160   66.7698 H   0  0  0  0  0  0
    7.7959   38.4958   70.8555 H   0  0  0  0  0  0
    7.9908   36.7466   69.1085 H   0  0  0  0  0  0
  1  2  1  0  0  0
  1  4  1  0  0  0
  1  5  1  0  0  0
  1  6  1  0  0  0
  2  7  1  0  0  0
  2  8  2  0  0  0
  3 13  1  0  0  0
  3 15  1  0  0  0
  3 16  1  0  0  0
  4 17  2  0  0  0
  4 18  1  0  0  0
  7 11  2  0  0  0
  7 24  1  0  0  0
  8 10  1  0  0  0
  8 25  1  0  0  0
  9 10  2  0  0  0
  9 12  1  0  0  0
  9 11  1  0  0  0
 10 26  1  0  0  0
 11 27  1  0  0  0
 12 14  1  0  0  0
 13 14  1  0  0  0
 13 28  1  0  0  0
 13 29  1  0  0  0
 14 30  1  0  0  0
 14 31  1  0  0  0
 15 20  1  0  0  0
 15 32  1  0  0  0
 15 33  1  0  0  0
 16 19  1  0  0  0
 16 34  1  0  0  0
 16 35  1  0  0  0
 17 21  1  0  0  0
 17 36  1  0  0  0
 18 22  2  0  0  0
 18 37  1  0  0  0
 19 20  1  0  0  0
 19 38  1  0  0  0
 19 39  1  0  0  0
 20 40  1  0  0  0
 20 41  1  0  0  0
 21 23  2  0  0  0
 21 42  1  0  0  0
 22 23  1  0  0  0
 22 43  1  0  0  0
 23 44  1  0  0  0
M  END
> <s_m_entry_id>
7010

> <s_m_entry_name>
dock_pv.440

> <s_m_Source_Path>
/home/csk/Desktop/cluster/DUD-E-result/lkha4

> <s_m_Source_File>
dock_pv.maegz

> <i_m_Source_File_Index>
440

> <chembl_id>
CHEMBL349189

> <chembl_pref_name>
None

> <i_lp_mmshare_version>
53161

> <i_f3d_flags>
0

> <r_lp_tautomer_probability>
1

> <s_lp_Force_Field>
OPLS_2005

> <r_lp_Energy>
39.228726

> <b_lp_Chiralities_Consistent>
1

> <s_lp_Variant>
CHEMBL4618_lig117-1

> <s_i_glide_gridfile>
glide-grid_3chp

> <i_i_glide_lignum>
143

> <i_i_glide_rotatable_bonds>
6

> <r_i_docking_score>
-7.94292829688431

> <r_i_glide_ligand_efficiency>
-0.345344708560187

> <r_i_glide_ligand_efficiency_sa>
-0.982114412314308

> <r_i_glide_ligand_efficiency_ln>
-1.92067208467845

> <r_i_glide_gscore>
-7.94292829688431

> <r_i_glide_lipo>
-3.75988698789587

> <r_i_glide_hbond>
-0.32

> <r_i_glide_metal>
0

> <r_i_glide_rewards>
-1.88087389081843

> <r_i_glide_evdw>
-32.578182220459

> <r_i_glide_ecoul>
-8.35479736328125

> <r_i_glide_erotb>
0.924787371802151

> <r_i_glide_esite>
-0.0248260744570234

> <r_i_glide_emodel>
-56.8386943263208

> <r_i_glide_energy>
-40.9329795837402

> <r_i_glide_einternal>
4.4701623916626

> <i_i_glide_confnum>
23

> <i_i_glide_posenum>
102

> <r_i_glide_eff_state_penalty>
0

> <s_user_duplicate_titles>
CHEMBL4618_lig117,271870

> <s_m_subgroup_title>
dock_pv

> <s_m_subgroupid>
dock_pv

> <b_m_subgroup_collapsed>
1

$$$$
CHEMBL4618_lig288
                    3D
 Schrodinger Suite 2021-1.
 46 49  0  0  1  0            999 V2000
    8.1211   36.6158   70.3787 C   0  0  0  0  0  0
    8.3510   37.5222   71.4090 C   0  0  0  0  0  0
    8.5204   38.8772   71.1381 C   0  0  0  0  0  0
    8.0586   37.0157   69.0417 C   0  0  0  0  0  0
    8.2334   38.3709   68.7763 C   0  0  0  0  0  0
    8.4465   39.3146   69.8077 C   0  0  0  0  0  0
    8.5209   40.5869   69.3049 N   0  0  0  0  0  0
    8.4426   40.4271   68.0156 C   0  0  0  0  0  0
    8.2596   39.1206   67.6254 N   0  0  0  0  0  0
    8.5883   41.4719   67.1385 O   0  0  0  0  0  0
    9.8470   41.7556   66.6457 C   0  0  0  0  0  0
   10.1581   43.0515   66.2417 C   0  0  0  0  0  0
   11.4164   43.3445   65.7022 C   0  0  0  0  0  0
   12.3743   42.3413   65.5406 C   0  0  0  0  0  0
   12.0502   41.0423   65.9400 C   0  0  0  0  0  0
   10.8026   40.7596   66.4718 C   0  0  0  0  0  0
   13.5830   42.6772   64.9574 O   0  0  0  0  0  0
   14.5072   41.6306   64.6283 C   0  0  0  0  0  0
   15.9175   42.1709   64.3299 C   0  0  0  0  0  0
   16.6969   42.5038   65.5400 N   0  0  0  0  0  0
   16.0285   43.5301   66.3630 C   0  0  0  0  0  0
   16.9209   44.0498   67.5148 C   0  0  0  0  0  0
   18.1559   44.5386   67.0039 O   0  0  0  0  0  0
   18.8707   43.5211   66.3083 C   0  0  0  0  0  0
   18.0241   42.9936   65.1304 C   0  0  0  0  0  0
    7.9920   35.5715   70.6260 H   0  0  0  0  0  0
    8.3669   37.1740   72.4322 H   0  0  0  0  0  0
    8.5747   39.5889   71.9399 H   0  0  0  0  0  0
    7.8868   36.2955   68.2604 H   0  0  0  0  0  0
    8.1748   38.8298   66.6634 H   0  0  0  0  0  0
    9.4194   43.8316   66.3537 H   0  0  0  0  0  0
   11.6510   44.3518   65.3956 H   0  0  0  0  0  0
   12.7229   40.2160   65.7955 H   0  0  0  0  0  0
   10.5590   39.7419   66.7143 H   0  0  0  0  0  0
   14.1226   41.0880   63.7637 H   0  0  0  0  0  0
   14.6160   40.9168   65.4418 H   0  0  0  0  0  0
   15.8340   43.0160   63.6557 H   0  0  0  0  0  0
   16.4550   41.4219   63.7482 H   0  0  0  0  0  0
   15.0909   43.1493   66.7649 H   0  0  0  0  0  0
   15.7531   44.3694   65.7227 H   0  0  0  0  0  0
   16.4132   44.8596   68.0390 H   0  0  0  0  0  0
   17.0978   43.2661   68.2542 H   0  0  0  0  0  0
   19.8030   43.9426   65.9315 H   0  0  0  0  0  0
   19.1464   42.7098   66.9848 H   0  0  0  0  0  0
   17.8947   43.8067   64.4115 H   0  0  0  0  0  0
   18.5657   42.2151   64.5963 H   0  0  0  0  0  0
  1  2  2  0  0  0
  1  4  1  0  0  0
  1 26  1  0  0  0
  2  3  1  0  0  0
  2 27  1  0  0  0
  3  6  2  0  0  0
  3 28  1  0  0  0
  4  5  2  0  0  0
  4 29  1  0  0  0
  5  9  1  0  0  0
  5  6  1  0  0  0
  6  7  1  0  0  0
  7  8  2  0  0  0
  8  9  1  0  0  0
  8 10  1  0  0  0
  9 30  1  0  0  0
 10 11  1  0  0  0
 11 12  2  0  0  0
 11 16  1  0  0  0
 12 13  1  0  0  0
 12 31  1  0  0  0
 13 14  2  0  0  0
 13 32  1  0  0  0
 14 15  1  0  0  0
 14 17  1  0  0  0
 15 16  2  0  0  0
 15 33  1  0  0  0
 16 34  1  0  0  0
 17 18  1  0  0  0
 18 19  1  0  0  0
 18 35  1  0  0  0
 18 36  1  0  0  0
 19 20  1  0  0  0
 19 37  1  0  0  0
 19 38  1  0  0  0
 20 21  1  0  0  0
 20 25  1  0  0  0
 21 22  1  0  0  0
 21 39  1  0  0  0
 21 40  1  0  0  0
 22 23  1  0  0  0
 22 41  1  0  0  0
 22 42  1  0  0  0
 23 24  1  0  0  0
 24 25  1  0  0  0
 24 43  1  0  0  0
 24 44  1  0  0  0
 25 45  1  0  0  0
 25 46  1  0  0  0
M  END
> <s_m_entry_id>
7011

> <s_m_entry_name>
dock_pv.441

> <s_m_Source_Path>
/home/csk/Desktop/cluster/DUD-E-result/lkha4

> <s_m_Source_File>
dock_pv.maegz

> <i_m_Source_File_Index>
441

> <chembl_id>
CHEMBL521257

> <chembl_pref_name>
None

> <i_lp_mmshare_version>
53161

> <i_f3d_flags>
0

> <r_lp_tautomer_probability>
1

> <s_lp_Force_Field>
OPLS_2005

> <r_lp_Energy>
35.535512

> <b_lp_Chiralities_Consistent>
1

> <s_lp_Variant>
CHEMBL4618_lig288-1

> <s_i_glide_gridfile>
glide-grid_3chp

> <i_i_glide_lignum>
326

> <i_i_glide_rotatable_bonds>
6

> <r_i_docking_score>
-7.92728703551585

> <r_i_glide_ligand_efficiency>
-0.317091481420634

> <r_i_glide_ligand_efficiency_sa>
-0.927181115315303

> <r_i_glide_ligand_efficiency_ln>
-1.87900458903967

> <r_i_glide_gscore>
-7.92728703551585

> <r_i_glide_lipo>
-3.54495442336849

> <r_i_glide_hbond>
-0.32

> <r_i_glide_metal>
0

> <r_i_glide_rewards>
-1.54034785886598

> <r_i_glide_evdw>
-40.880786895752

> <r_i_glide_ecoul>
-8.66275596618652

> <r_i_glide_erotb>
0.821467986434196

> <r_i_glide_esite>
0

> <r_i_glide_emodel>
-68.6730536967773

> <r_i_glide_energy>
-49.5435428619385

> <r_i_glide_einternal>
4.79281902313232

> <i_i_glide_confnum>
27

> <i_i_glide_posenum>
155

> <r_i_glide_eff_state_penalty>
0

> <s_user_duplicate_titles>
CHEMBL4618_lig288

> <s_m_subgroup_title>
dock_pv

> <s_m_subgroupid>
dock_pv

> <b_m_subgroup_collapsed>
1

$$$$
CHEMBL4618_lig10
                    3D
 Schrodinger Suite 2021-1.
 49 51  0  0  1  0            999 V2000
   20.9056   40.9010   70.9554 C   0  0  0  0  0  0
   18.1246   44.4571   67.2530 C   0  0  0  0  0  0
   17.9962   44.2044   65.7520 C   0  0  2  0  0  0
   20.1684   41.8165   69.9802 C   0  0  0  0  0  0
   18.8109   43.4896   68.1785 C   0  0  0  0  0  0
   17.3654   42.8337   65.3823 C   0  0  0  0  0  0
   17.5712   45.4641   67.7052 O   0  0  0  0  0  0
   19.1223   42.6300   70.4258 C   0  0  0  0  0  0
   20.5210   41.8276   68.6282 C   0  0  0  0  0  0
   18.4555   43.4661   69.5346 C   0  0  0  0  0  0
   19.8488   42.6553   67.7361 C   0  0  0  0  0  0
   21.3682   39.8152   70.3382 F   0  0  0  0  0  0
   21.9307   41.5707   71.4814 F   0  0  0  0  0  0
   20.1049   40.5006   71.9411 F   0  0  0  0  0  0
   11.6423   42.6160   65.1405 O   0  0  0  0  0  0
   19.3210   44.3409   65.1400 N   0  0  0  0  0  0
   15.8369   42.8308   65.3314 C   0  0  0  0  0  0
   13.0184   42.7298   65.2599 C   0  0  0  0  0  0
   10.7245   43.2061   66.0671 C   0  0  0  0  0  0
   15.1790   42.2159   64.2675 C   0  0  0  0  0  0
   15.0741   43.4161   66.3399 C   0  0  0  0  0  0
   13.6861   43.3485   66.3205 C   0  0  0  0  0  0
   13.7878   42.1784   64.2328 C   0  0  0  0  0  0
    9.8460   42.1833   66.7867 C   0  0  0  0  0  0
    8.7551   42.6499   67.5269 C   0  0  0  0  0  0
   10.1197   40.8122   66.7591 C   0  0  0  0  0  0
    9.3211   39.9279   67.4862 C   0  0  0  0  0  0
    7.9733   41.7725   68.2706 C   0  0  0  0  0  0
    8.2684   40.4132   68.2581 C   0  0  0  0  0  0
   17.3507   44.9692   65.3177 H   0  0  0  0  0  0
   17.7129   42.5575   64.3839 H   0  0  0  0  0  0
   17.7160   42.0309   66.0276 H   0  0  0  0  0  0
   18.8276   42.6224   71.4658 H   0  0  0  0  0  0
   21.3235   41.2011   68.2627 H   0  0  0  0  0  0
   17.6554   44.0905   69.9099 H   0  0  0  0  0  0
   20.1692   42.6339   66.7054 H   0  0  0  0  0  0
   19.2835   43.9990   64.1745 H   0  0  0  0  0  0
   19.6083   45.3049   65.0635 H   0  0  0  0  0  0
   11.1855   43.8159   66.8291 H   0  0  0  0  0  0
   10.0765   43.8678   65.4913 H   0  0  0  0  0  0
   15.7312   41.8025   63.4354 H   0  0  0  0  0  0
   15.5371   43.9079   67.1763 H   0  0  0  0  0  0
   13.1680   43.7872   67.1537 H   0  0  0  0  0  0
   13.3210   41.7192   63.3765 H   0  0  0  0  0  0
    8.5151   43.7042   67.5396 H   0  0  0  0  0  0
   10.9489   40.4276   66.1827 H   0  0  0  0  0  0
    9.5314   38.8684   67.4662 H   0  0  0  0  0  0
    7.1402   42.1479   68.8494 H   0  0  0  0  0  0
    7.6625   39.7284   68.8335 H   0  0  0  0  0  0
  1  4  1  0  0  0
  1 12  1  0  0  0
  1 13  1  0  0  0
  1 14  1  0  0  0
  2  5  1  0  0  0
  2  3  1  0  0  0
  2  7  2  0  0  0
  3  6  1  0  0  0
  3 16  1  0  0  0
  3 30  1  0  0  0
  4  8  1  0  0  0
  4  9  2  0  0  0
  5 11  2  0  0  0
  5 10  1  0  0  0
  6 17  1  0  0  0
  6 31  1  0  0  0
  6 32  1  0  0  0
  8 10  2  0  0  0
  8 33  1  0  0  0
  9 11  1  0  0  0
  9 34  1  0  0  0
 10 35  1  0  0  0
 11 36  1  0  0  0
 15 18  1  0  0  0
 15 19  1  0  0  0
 16 37  1  0  0  0
 16 38  1  0  0  0
 17 20  1  0  0  0
 17 21  2  0  0  0
 18 22  2  0  0  0
 18 23  1  0  0  0
 19 24  1  0  0  0
 19 39  1  0  0  0
 19 40  1  0  0  0
 20 23  2  0  0  0
 20 41  1  0  0  0
 21 22  1  0  0  0
 21 42  1  0  0  0
 22 43  1  0  0  0
 23 44  1  0  0  0
 24 25  1  0  0  0
 24 26  2  0  0  0
 25 28  2  0  0  0
 25 45  1  0  0  0
 26 27  1  0  0  0
 26 46  1  0  0  0
 27 29  2  0  0  0
 27 47  1  0  0  0
 28 29  1  0  0  0
 28 48  1  0  0  0
 29 49  1  0  0  0
M  END
> <s_m_entry_id>
7012

> <s_m_entry_name>
dock_pv.442

> <s_m_Source_Path>
/home/csk/Desktop/cluster/DUD-E-result/lkha4

> <s_m_Source_File>
dock_pv.maegz

> <i_m_Source_File_Index>
442

> <chembl_id>
CHEMBL302371

> <chembl_pref_name>
None

> <i_lp_mmshare_version>
53161

> <i_f3d_flags>
0

> <r_lp_tautomer_probability>
1

> <s_lp_Force_Field>
OPLS_2005

> <r_lp_Energy>
36.059214

> <b_lp_Chiralities_Consistent>
1

> <s_lp_Variant>
CHEMBL4618_lig10-1

> <s_i_glide_gridfile>
glide-grid_3chp

> <i_i_glide_lignum>
10

> <i_i_glide_rotatable_bonds>
8

> <r_i_docking_score>
-7.92244372170737

> <r_i_glide_ligand_efficiency>
-0.273187714541633

> <r_i_glide_ligand_efficiency_sa>
-0.839319211014843

> <r_i_glide_ligand_efficiency_ln>
-1.81403871643197

> <r_i_glide_gscore>
-7.92244372170737

> <r_i_glide_lipo>
-3.33253980793574

> <r_i_glide_hbond>
-0.418465044178461

> <r_i_glide_metal>
0

> <r_i_glide_rewards>
-1.43929360182684

> <r_i_glide_evdw>
-48.9874877929688

> <r_i_glide_ecoul>
-7.61712741851807

> <r_i_glide_erotb>
0.859798234659816

> <r_i_glide_esite>
0

> <r_i_glide_emodel>
-80.48993407689

> <r_i_glide_energy>
-56.6046152114868

> <r_i_glide_einternal>
5.96334886550903

> <i_i_glide_confnum>
9

> <i_i_glide_posenum>
365

> <r_i_glide_eff_state_penalty>
0

> <s_user_duplicate_titles>
CHEMBL4618_lig10

> <s_m_subgroup_title>
dock_pv

> <s_m_subgroupid>
dock_pv

> <b_m_subgroup_collapsed>
1

$$$$
CHEMBL4618_lig63
                    3D
 Schrodinger Suite 2021-1.
 46 48  0  0  1  0            999 V2000
   10.9083   42.7310   65.6474 N   0  0  0  0  0  0
    8.7408   37.1291   71.8988 N   0  0  0  0  0  0
    8.0004   36.9737   70.6437 C   0  0  0  0  0  0
    8.2681   38.0975   69.6464 C   0  0  0  0  0  0
    8.6100   40.1597   67.7731 C   0  0  0  0  0  0
    9.4390   36.0951   72.5479 C   0  0  0  0  0  0
    8.4130   39.4151   70.0672 C   0  0  0  0  0  0
    8.3058   37.8156   68.2826 C   0  0  0  0  0  0
    8.5190   38.8331   67.3535 C   0  0  0  0  0  0
    8.5205   40.4442   69.1399 C   0  0  0  0  0  0
    8.7771   41.1107   66.7893 O   0  0  0  0  0  0
    9.5902   43.2654   66.0172 C   0  0  0  0  0  0
    8.8983   42.4859   67.1485 C   0  0  0  0  0  0
   11.8557   42.5706   66.7404 C   0  0  0  0  0  0
   11.6299   43.5480   64.6877 C   0  0  0  0  0  0
   10.1021   36.4141   73.7347 C   0  0  0  0  0  0
    9.5012   34.7819   72.0627 C   0  0  0  0  0  0
   13.0717   43.0330   64.7034 C   0  0  0  0  0  0
   13.2135   42.3580   66.0705 C   0  0  0  0  0  0
   10.8268   35.4473   74.4285 C   0  0  0  0  0  0
   10.2618   33.8222   72.7310 C   0  0  0  0  0  0
   10.9209   34.1610   73.9112 C   0  0  0  0  0  0
    8.6524   38.0104   72.3821 H   0  0  0  0  0  0
    6.9346   37.0147   70.8746 H   0  0  0  0  0  0
    8.1857   36.0200   70.1490 H   0  0  0  0  0  0
    8.3862   39.6584   71.1171 H   0  0  0  0  0  0
    8.2004   36.7990   67.9405 H   0  0  0  0  0  0
    8.5787   38.5991   66.2994 H   0  0  0  0  0  0
    8.5543   41.4523   69.5198 H   0  0  0  0  0  0
    9.6890   44.2959   66.3386 H   0  0  0  0  0  0
    8.9404   43.2714   65.1432 H   0  0  0  0  0  0
    9.4860   42.6408   68.0526 H   0  0  0  0  0  0
    7.9072   42.8984   67.3381 H   0  0  0  0  0  0
   11.5469   41.7016   67.3215 H   0  0  0  0  0  0
   11.8468   43.4156   67.4321 H   0  0  0  0  0  0
   11.5699   44.6135   64.9159 H   0  0  0  0  0  0
   11.1599   43.4187   63.7134 H   0  0  0  0  0  0
   10.0592   37.4155   74.1311 H   0  0  0  0  0  0
    8.9523   34.4736   71.1870 H   0  0  0  0  0  0
   13.7791   43.8537   64.5829 H   0  0  0  0  0  0
   13.2485   42.3269   63.8897 H   0  0  0  0  0  0
   13.4295   41.2933   65.9687 H   0  0  0  0  0  0
   14.0107   42.8038   66.6634 H   0  0  0  0  0  0
   11.3203   35.7001   75.3543 H   0  0  0  0  0  0
   10.3135   32.8103   72.3544 H   0  0  0  0  0  0
   11.4855   33.4095   74.4424 H   0  0  0  0  0  0
  1 12  1  0  0  0
  1 14  1  0  0  0
  1 15  1  0  0  0
  2  3  1  0  0  0
  2  6  1  0  0  0
  2 23  1  0  0  0
  3  4  1  0  0  0
  3 24  1  0  0  0
  3 25  1  0  0  0
  4  7  2  0  0  0
  4  8  1  0  0  0
  5 11  1  0  0  0
  5  9  1  0  0  0
  5 10  2  0  0  0
  6 16  2  0  0  0
  6 17  1  0  0  0
  7 10  1  0  0  0
  7 26  1  0  0  0
  8  9  2  0  0  0
  8 27  1  0  0  0
  9 28  1  0  0  0
 10 29  1  0  0  0
 11 13  1  0  0  0
 12 13  1  0  0  0
 12 30  1  0  0  0
 12 31  1  0  0  0
 13 32  1  0  0  0
 13 33  1  0  0  0
 14 19  1  0  0  0
 14 34  1  0  0  0
 14 35  1  0  0  0
 15 18  1  0  0  0
 15 36  1  0  0  0
 15 37  1  0  0  0
 16 20  1  0  0  0
 16 38  1  0  0  0
 17 21  2  0  0  0
 17 39  1  0  0  0
 18 19  1  0  0  0
 18 40  1  0  0  0
 18 41  1  0  0  0
 19 42  1  0  0  0
 19 43  1  0  0  0
 20 22  2  0  0  0
 20 44  1  0  0  0
 21 22  1  0  0  0
 21 45  1  0  0  0
 22 46  1  0  0  0
M  END
> <s_m_entry_id>
7013

> <s_m_entry_name>
dock_pv.443

> <s_m_Source_Path>
/home/csk/Desktop/cluster/DUD-E-result/lkha4

> <s_m_Source_File>
dock_pv.maegz

> <i_m_Source_File_Index>
443

> <chembl_id>
CHEMBL162180

> <chembl_pref_name>
None

> <i_lp_mmshare_version>
53161

> <i_f3d_flags>
0

> <r_lp_tautomer_probability>
1

> <s_lp_Force_Field>
OPLS_2005

> <r_lp_Energy>
39.450563

> <b_lp_Chiralities_Consistent>
1

> <s_lp_Variant>
CHEMBL4618_lig63-1

> <s_i_glide_gridfile>
glide-grid_3chp

> <i_i_glide_lignum>
81

> <i_i_glide_rotatable_bonds>
7

> <r_i_docking_score>
-7.92197031697557

> <r_i_glide_ligand_efficiency>
-0.360089559862526

> <r_i_glide_ligand_efficiency_sa>
-1.00898510825358

> <r_i_glide_ligand_efficiency_ln>
-1.93641850635709

> <r_i_glide_gscore>
-7.92197031697557

> <r_i_glide_lipo>
-5.6364775436384

> <r_i_glide_hbond>
0

> <r_i_glide_metal>
0

> <r_i_glide_rewards>
-2.23813601975432

> <r_i_glide_evdw>
-43.3868370056152

> <r_i_glide_ecoul>
-2.53462815284729

> <r_i_glide_erotb>
2.50217931962501

> <r_i_glide_esite>
0

> <r_i_glide_emodel>
-64.8362769592369

> <r_i_glide_energy>
-45.9214651584625

> <r_i_glide_einternal>
3.56856679916382

> <i_i_glide_confnum>
32

> <i_i_glide_posenum>
271

> <r_i_glide_eff_state_penalty>
0

> <s_user_duplicate_titles>
CHEMBL4618_lig63,271251

> <s_m_subgroup_title>
dock_pv

> <s_m_subgroupid>
dock_pv

> <b_m_subgroup_collapsed>
1

$$$$
CHEMBL4618_lig506 
                    3D
 Schrodinger Suite 2021-1.
 46 48  0  0  1  0            999 V2000
    8.8525   39.5686   67.6934 C   0  0  0  0  0  0
    8.1146   40.1485   68.7203 C   0  0  0  0  0  0
    7.9693   41.5311   68.7869 C   0  0  0  0  0  0
    8.6352   42.3451   67.8789 C   0  0  0  0  0  0
    9.4268   41.7830   66.8810 C   0  0  0  0  0  0
    9.4779   40.3859   66.7575 C   0  0  0  0  0  0
   10.0565   42.6550   66.0142 O   0  0  0  0  0  0
   11.4117   42.6143   65.7335 C   0  0  0  0  0  0
   11.9730   43.7395   65.1298 C   0  0  0  0  0  0
   13.3092   43.7492   64.7280 C   0  0  0  0  0  0
   14.1014   42.6160   64.9257 C   0  0  0  0  0  0
   13.5480   41.5001   65.5398 C   0  0  0  0  0  0
   12.2316   41.5046   65.9594 C   0  0  0  0  0  0
   15.5708   42.5813   64.5096 C   0  0  0  0  0  0
   16.5318   43.2644   65.5025 C   0  0  0  0  0  0
   17.8238   43.2623   65.1401 N   0  0  0  0  0  0
   16.1232   43.7611   66.5493 O   0  0  0  0  0  0
   18.9637   43.8625   65.8326 C   0  0  0  0  0  0
   19.2974   43.2980   67.2383 C   0  0  0  0  0  0
   18.5885   43.9061   68.4540 C   0  0  0  0  0  0
   18.0277   45.1908   68.4352 C   0  0  0  0  0  0
   17.3821   45.6916   69.5617 C   0  0  0  0  0  0
   17.3178   44.9228   70.7200 C   0  0  0  0  0  0
   17.8859   43.6529   70.7581 C   0  0  0  0  0  0
   18.5197   43.1459   69.6263 C   0  0  0  0  0  0
   16.7001   45.4154   71.8170 F   0  0  0  0  0  0
    8.9250   38.4933   67.6111 H   0  0  0  0  0  0
    7.6082   39.5240   69.4422 H   0  0  0  0  0  0
    7.3387   41.9751   69.5400 H   0  0  0  0  0  0
    8.5277   43.4168   67.9413 H   0  0  0  0  0  0
   10.0034   39.9178   65.9402 H   0  0  0  0  0  0
   11.3641   44.6153   64.9785 H   0  0  0  0  0  0
   13.7212   44.6313   64.2626 H   0  0  0  0  0  0
   14.1313   40.6160   65.7134 H   0  0  0  0  0  0
   11.8853   40.6161   66.4463 H   0  0  0  0  0  0
   15.6741   43.0159   63.5172 H   0  0  0  0  0  0
   15.8814   41.5456   64.3925 H   0  0  0  0  0  0
   18.0257   43.0163   64.1715 H   0  0  0  0  0  0
   18.8607   44.9457   65.8278 H   0  0  0  0  0  0
   19.8400   43.7187   65.1973 H   0  0  0  0  0  0
   20.3670   43.4203   67.4116 H   0  0  0  0  0  0
   19.1402   42.2179   67.2231 H   0  0  0  0  0  0
   18.0568   45.8056   67.5524 H   0  0  0  0  0  0
   16.9253   46.6685   69.5400 H   0  0  0  0  0  0
   17.8245   43.0610   71.6590 H   0  0  0  0  0  0
   18.9470   42.1537   69.6617 H   0  0  0  0  0  0
  1  2  2  0  0  0
  1  6  1  0  0  0
  1 27  1  0  0  0
  2  3  1  0  0  0
  2 28  1  0  0  0
  3  4  2  0  0  0
  3 29  1  0  0  0
  4  5  1  0  0  0
  4 30  1  0  0  0
  5  6  2  0  0  0
  5  7  1  0  0  0
  6 31  1  0  0  0
  7  8  1  0  0  0
  8  9  2  0  0  0
  8 13  1  0  0  0
  9 10  1  0  0  0
  9 32  1  0  0  0
 10 11  2  0  0  0
 10 33  1  0  0  0
 11 12  1  0  0  0
 11 14  1  0  0  0
 12 13  2  0  0  0
 12 34  1  0  0  0
 13 35  1  0  0  0
 14 15  1  0  0  0
 14 36  1  0  0  0
 14 37  1  0  0  0
 15 16  1  0  0  0
 15 17  2  0  0  0
 16 18  1  0  0  0
 16 38  1  0  0  0
 18 19  1  0  0  0
 18 39  1  0  0  0
 18 40  1  0  0  0
 19 20  1  0  0  0
 19 41  1  0  0  0
 19 42  1  0  0  0
 20 21  2  0  0  0
 20 25  1  0  0  0
 21 22  1  0  0  0
 21 43  1  0  0  0
 22 23  2  0  0  0
 22 44  1  0  0  0
 23 24  1  0  0  0
 23 26  1  0  0  0
 24 25  2  0  0  0
 24 45  1  0  0  0
 25 46  1  0  0  0
M  END
> <s_m_entry_id>
7014

> <s_m_entry_name>
dock_pv.444

> <s_m_Source_Path>
/home/csk/Desktop/cluster/DUD-E-result/lkha4

> <s_m_Source_File>
dock_pv.maegz

> <i_m_Source_File_Index>
444

> <chembl_id>
CHEMBL4531314

> <chembl_pref_name>
None

> <i_lp_mmshare_version>
53161

> <i_f3d_flags>
0

> <r_lp_tautomer_probability>
1

> <s_lp_Force_Field>
OPLS_2005

> <r_lp_Energy>
16.948141

> <b_lp_Chiralities_Consistent>
1

> <s_lp_Variant>
CHEMBL4618_lig506 -1

> <s_i_glide_gridfile>
glide-grid_3chp

> <i_i_glide_lignum>
606

> <i_i_glide_rotatable_bonds>
8

> <r_i_docking_score>
-7.91933771061714

> <r_i_glide_ligand_efficiency>
-0.304589911946813

> <r_i_glide_ligand_efficiency_sa>
-0.902346415639004

> <r_i_glide_ligand_efficiency_ln>
-1.85983047587194

> <r_i_glide_gscore>
-7.91933771061714

> <r_i_glide_lipo>
-3.65530982411512

> <r_i_glide_hbond>
-0.16

> <r_i_glide_metal>
0

> <r_i_glide_rewards>
-1.76162403446385

> <r_i_glide_evdw>
-50.0578155517578

> <r_i_glide_ecoul>
-4.87825775146484

> <r_i_glide_erotb>
1.09222558826944

> <r_i_glide_esite>
-0.2

> <r_i_glide_emodel>
-77.1102847660703

> <r_i_glide_energy>
-54.9360733032227

> <r_i_glide_einternal>
9.26113224029541

> <i_i_glide_confnum>
15

> <i_i_glide_posenum>
347

> <r_i_glide_eff_state_penalty>
0

> <s_user_duplicate_titles>
CHEMBL4618_lig506 

> <s_m_subgroup_title>
dock_pv

> <s_m_subgroupid>
dock_pv

> <b_m_subgroup_collapsed>
1

$$$$
CHEMBL4618_lig343
                    3D
 Schrodinger Suite 2021-1.
 39 41  0  0  1  0            999 V2000
    8.9210   38.2159   71.9374 N   0  0  2  0  0  0
    8.0567   37.4129   71.0936 C   0  0  2  0  0  0
    8.6291   36.0003   71.1996 C   0  0  0  0  0  0
    9.3697   35.9579   72.5344 C   0  0  0  0  0  0
    9.2595   37.3775   73.0773 C   0  0  0  0  0  0
    7.9851   37.8868   69.6305 C   0  0  0  0  0  0
    7.5404   39.2422   69.5395 O   0  0  0  0  0  0
    8.1222   40.0831   68.6115 C   0  0  0  0  0  0
    8.9067   39.6397   67.5419 C   0  0  0  0  0  0
    9.5638   40.5565   66.7401 C   0  0  0  0  0  0
    9.4723   41.9323   66.9811 C   0  0  0  0  0  0
    8.5928   42.3730   67.9668 C   0  0  0  0  0  0
    7.9193   41.4540   68.7677 C   0  0  0  0  0  0
   10.1749   42.8840   66.2575 O   0  0  0  0  0  0
   11.4802   42.7101   65.8183 C   0  0  0  0  0  0
   12.0204   43.6750   64.9653 C   0  0  0  0  0  0
   13.3096   43.5357   64.4406 C   0  0  0  0  0  0
   14.0691   42.4165   64.7770 C   0  0  0  0  0  0
   13.5387   41.4574   65.6217 C   0  0  0  0  0  0
   12.2879   41.6320   66.1835 C   0  0  0  0  0  0
   15.6935   42.2157   64.2277 Cl  0  0  0  0  0  0
    8.4483   39.0748   72.1939 H   0  0  0  0  0  0
    7.0315   37.4181   71.4691 H   0  0  0  0  0  0
    9.3053   35.8160   70.3704 H   0  0  0  0  0  0
    7.8387   35.2519   71.2080 H   0  0  0  0  0  0
   10.4114   35.6699   72.3927 H   0  0  0  0  0  0
    8.9212   35.2451   73.2242 H   0  0  0  0  0  0
   10.2069   37.7131   73.5013 H   0  0  0  0  0  0
    8.5209   37.4167   73.8752 H   0  0  0  0  0  0
    8.9886   37.7578   69.2284 H   0  0  0  0  0  0
    7.3219   37.2489   69.0457 H   0  0  0  0  0  0
    9.0372   38.5925   67.3166 H   0  0  0  0  0  0
   10.1704   40.1697   65.9400 H   0  0  0  0  0  0
    8.4461   43.4293   68.1292 H   0  0  0  0  0  0
    7.2637   41.8151   69.5429 H   0  0  0  0  0  0
   11.4355   44.5491   64.7402 H   0  0  0  0  0  0
   13.7206   44.2934   63.7905 H   0  0  0  0  0  0
   14.1208   40.6057   65.9302 H   0  0  0  0  0  0
   11.9663   40.9110   66.9102 H   0  0  0  0  0  0
  1  2  1  0  0  0
  1  5  1  0  0  0
  1 22  1  0  0  0
  2  3  1  0  0  0
  2  6  1  0  0  0
  2 23  1  0  0  0
  3  4  1  0  0  0
  3 24  1  0  0  0
  3 25  1  0  0  0
  4  5  1  0  0  0
  4 26  1  0  0  0
  4 27  1  0  0  0
  5 28  1  0  0  0
  5 29  1  0  0  0
  6  7  1  0  0  0
  6 30  1  0  0  0
  6 31  1  0  0  0
  7  8  1  0  0  0
  8  9  1  0  0  0
  8 13  2  0  0  0
  9 10  2  0  0  0
  9 32  1  0  0  0
 10 11  1  0  0  0
 10 33  1  0  0  0
 11 12  2  0  0  0
 11 14  1  0  0  0
 12 13  1  0  0  0
 12 34  1  0  0  0
 13 35  1  0  0  0
 14 15  1  0  0  0
 15 16  1  0  0  0
 15 20  2  0  0  0
 16 17  2  0  0  0
 16 36  1  0  0  0
 17 18  1  0  0  0
 17 37  1  0  0  0
 18 19  2  0  0  0
 18 21  1  0  0  0
 19 20  1  0  0  0
 19 38  1  0  0  0
 20 39  1  0  0  0
M  END
> <s_m_entry_id>
7015

> <s_m_entry_name>
dock_pv.445

> <s_m_Source_Path>
/home/csk/Desktop/cluster/DUD-E-result/lkha4

> <s_m_Source_File>
dock_pv.maegz

> <i_m_Source_File_Index>
445

> <chembl_id>
CHEMBL566225

> <chembl_pref_name>
None

> <i_lp_mmshare_version>
53161

> <i_f3d_flags>
0

> <r_lp_tautomer_probability>
1

> <s_lp_Force_Field>
OPLS_2005

> <r_lp_Energy>
34.40345

> <b_lp_Chiralities_Consistent>
1

> <s_lp_Variant>
CHEMBL4618_lig343-1

> <s_i_glide_gridfile>
glide-grid_3chp

> <i_i_glide_lignum>
387

> <i_i_glide_rotatable_bonds>
5

> <r_i_docking_score>
-7.90415882026591

> <r_i_glide_ligand_efficiency>
-0.376388515250758

> <r_i_glide_ligand_efficiency_sa>
-1.03842737338367

> <r_i_glide_ligand_efficiency_ln>
-1.95428729645397

> <r_i_glide_gscore>
-7.90415882026591

> <r_i_glide_lipo>
-4.84566836737852

> <r_i_glide_hbond>
0

> <r_i_glide_metal>
0

> <r_i_glide_rewards>
-1.61844426194688

> <r_i_glide_evdw>
-41.4625091552734

> <r_i_glide_ecoul>
-2.43731045722961

> <r_i_glide_erotb>
0.998675835407605

> <r_i_glide_esite>
0

> <r_i_glide_emodel>
-64.1581858496531

> <r_i_glide_energy>
-43.8998196125031

> <r_i_glide_einternal>
4.24983787536621

> <i_i_glide_confnum>
112

> <i_i_glide_posenum>
151

> <r_i_glide_eff_state_penalty>
0

> <s_user_duplicate_titles>
CHEMBL4618_lig343,583342

> <s_m_subgroup_title>
dock_pv

> <s_m_subgroupid>
dock_pv

> <b_m_subgroup_collapsed>
1

$$$$
CHEMBL4618_lig74
                    3D
 Schrodinger Suite 2021-1.
 28 29  0  0  1  0            999 V2000
    8.6509   40.6417   67.7683 C   0  0  0  0  0  0
    8.5210   39.0160   67.1114 S   0  0  0  0  0  0
   10.2881   42.0255   66.4385 N   0  0  0  0  0  0
    8.8766   41.8733   66.8827 C   0  0  2  0  0  0
    8.5210   40.5967   69.1400 C   0  0  0  0  0  0
   10.7718   43.0160   65.6481 C   0  0  0  0  0  0
    8.3398   38.3148   68.7094 C   0  0  0  0  0  0
    8.4676   39.3025   69.7078 C   0  0  0  0  0  0
   10.0428   43.8509   65.1400 O   0  0  0  0  0  0
   12.0886   43.0596   65.4253 N   0  0  0  0  0  0
   11.1958   41.0160   66.8069 O   0  0  0  0  0  0
    8.3320   43.1378   67.5814 C   0  0  0  0  0  0
    8.1210   36.9761   69.0483 C   0  0  0  0  0  0
    8.4887   38.9022   71.0538 C   0  0  0  0  0  0
    8.3127   37.5638   71.3864 C   0  0  0  0  0  0
    8.1210   36.6160   70.3931 C   0  0  0  0  0  0
    8.2711   41.7735   65.9842 H   0  0  0  0  0  0
    8.5210   41.4924   69.7295 H   0  0  0  0  0  0
   12.4862   43.7934   64.8618 H   0  0  0  0  0  0
   12.6683   42.3482   65.8428 H   0  0  0  0  0  0
   10.7970   40.2198   66.4427 H   0  0  0  0  0  0
    7.3210   42.9709   67.9400 H   0  0  0  0  0  0
    8.9382   43.4157   68.4423 H   0  0  0  0  0  0
    8.2813   43.9996   66.9164 H   0  0  0  0  0  0
    7.9993   36.2197   68.2914 H   0  0  0  0  0  0
    8.5210   39.6397   71.8376 H   0  0  0  0  0  0
    8.2917   37.2635   72.4248 H   0  0  0  0  0  0
    7.9774   35.5816   70.6720 H   0  0  0  0  0  0
  1  2  1  0  0  0
  1  4  1  0  0  0
  1  5  2  0  0  0
  2  7  1  0  0  0
  3  4  1  0  0  0
  3  6  1  0  0  0
  3 11  1  0  0  0
  4 12  1  0  0  0
  4 17  1  0  0  0
  5  8  1  0  0  0
  5 18  1  0  0  0
  6  9  2  0  0  0
  6 10  1  0  0  0
  7 13  2  0  0  0
  7  8  1  0  0  0
  8 14  2  0  0  0
 10 19  1  0  0  0
 10 20  1  0  0  0
 11 21  1  0  0  0
 12 22  1  0  0  0
 12 23  1  0  0  0
 12 24  1  0  0  0
 13 16  1  0  0  0
 13 25  1  0  0  0
 14 15  1  0  0  0
 14 26  1  0  0  0
 15 16  2  0  0  0
 15 27  1  0  0  0
 16 28  1  0  0  0
M  END
> <s_m_entry_id>
7016

> <s_m_entry_name>
dock_pv.446

> <s_m_Source_Path>
/home/csk/Desktop/cluster/DUD-E-result/lkha4

> <s_m_Source_File>
dock_pv.maegz

> <i_m_Source_File_Index>
446

> <chembl_id>
CHEMBL93

> <chembl_pref_name>
ZILEUTON

> <i_lp_mmshare_version>
53161

> <i_f3d_flags>
0

> <r_lp_tautomer_probability>
1

> <s_lp_Force_Field>
OPLS_2005

> <r_lp_Energy>
5.081862

> <b_lp_Chiralities_Consistent>
1

> <s_lp_Variant>
CHEMBL4618_lig74-2

> <s_i_glide_gridfile>
glide-grid_3chp

> <i_i_glide_lignum>
95

> <i_i_glide_rotatable_bonds>
4

> <r_i_docking_score>
-7.89707180472896

> <r_i_glide_ligand_efficiency>
-0.49356698779556

> <r_i_glide_ligand_efficiency_sa>
-1.24371087376423

> <r_i_glide_ligand_efficiency_ln>
-2.09327662943351

> <r_i_glide_gscore>
-7.89707180472896

> <r_i_glide_lipo>
-2.98406783767642

> <r_i_glide_hbond>
-0.188999202319365

> <r_i_glide_metal>
0

> <r_i_glide_rewards>
-3.05634801515152

> <r_i_glide_evdw>
-29.4336585998535

> <r_i_glide_ecoul>
-3.36196541786194

> <r_i_glide_erotb>
0.308320993090307

> <r_i_glide_esite>
0

> <r_i_glide_emodel>
-41.8290626888904

> <r_i_glide_energy>
-32.7956240177155

> <r_i_glide_einternal>
6.27800464630127

> <i_i_glide_confnum>
1

> <i_i_glide_posenum>
163

> <r_i_glide_eff_state_penalty>
0

> <s_user_duplicate_titles>
CHEMBL4618_lig74

> <s_m_subgroup_title>
dock_pv

> <s_m_subgroupid>
dock_pv

> <b_m_subgroup_collapsed>
1

$$$$
CHEMBL4618_lig383
                    3D
 Schrodinger Suite 2021-1.
 40 42  0  0  1  0            999 V2000
    8.5470   36.7174   70.9987 N   0  0  0  0  0  0
    8.5052   35.5227   71.8218 C   0  0  0  0  0  0
    9.7125   35.6558   72.7396 C   0  0  0  0  0  0
    9.8424   37.1662   72.9482 C   0  0  0  0  0  0
    8.8947   37.7930   71.9170 C   0  0  0  0  0  0
    7.3269   36.9457   70.2274 C   0  0  0  0  0  0
    7.6137   37.7735   68.9641 C   0  0  0  0  0  0
    7.6617   39.1621   69.2919 O   0  0  0  0  0  0
    8.3341   40.0518   68.4805 C   0  0  0  0  0  0
    8.1566   41.4070   68.7572 C   0  0  0  0  0  0
    8.8687   42.3728   68.0515 C   0  0  0  0  0  0
    9.7821   42.0016   67.0655 C   0  0  0  0  0  0
    9.8972   40.6467   66.7398 C   0  0  0  0  0  0
    9.1774   39.6825   67.4287 C   0  0  0  0  0  0
   10.4829   43.0146   66.4347 O   0  0  0  0  0  0
   11.6695   42.8388   65.7461 C   0  0  0  0  0  0
   11.9330   43.8157   64.8377 N   0  0  0  0  0  0
   13.0962   43.7394   64.1406 C   0  0  0  0  0  0
   13.9911   42.6876   64.3350 C   0  0  0  0  0  0
   13.7508   41.7200   65.2527 N   0  0  0  0  0  0
   12.6066   41.8191   65.9755 C   0  0  0  0  0  0
    8.5561   34.6442   71.1773 H   0  0  0  0  0  0
    7.5602   35.4374   72.3503 H   0  0  0  0  0  0
   10.5936   35.2208   72.2699 H   0  0  0  0  0  0
    9.5594   35.1223   73.6780 H   0  0  0  0  0  0
    9.5218   37.4157   73.9549 H   0  0  0  0  0  0
   10.8683   37.5084   72.8211 H   0  0  0  0  0  0
    8.0129   38.2247   72.3953 H   0  0  0  0  0  0
    9.3549   38.6141   71.3655 H   0  0  0  0  0  0
    6.9211   35.9784   69.9396 H   0  0  0  0  0  0
    6.5576   37.4204   70.8380 H   0  0  0  0  0  0
    8.5330   37.3876   68.5265 H   0  0  0  0  0  0
    6.8234   37.6265   68.2273 H   0  0  0  0  0  0
    7.4745   41.7097   69.5384 H   0  0  0  0  0  0
    8.7206   43.4162   68.2850 H   0  0  0  0  0  0
   10.5370   40.3143   65.9399 H   0  0  0  0  0  0
    9.3220   38.6568   67.1327 H   0  0  0  0  0  0
   13.3017   44.5132   63.4154 H   0  0  0  0  0  0
   14.8987   42.6162   63.7517 H   0  0  0  0  0  0
   12.4678   41.0726   66.7388 H   0  0  0  0  0  0
  1  2  1  0  0  0
  1  5  1  0  0  0
  1  6  1  0  0  0
  2  3  1  0  0  0
  2 22  1  0  0  0
  2 23  1  0  0  0
  3  4  1  0  0  0
  3 24  1  0  0  0
  3 25  1  0  0  0
  4  5  1  0  0  0
  4 26  1  0  0  0
  4 27  1  0  0  0
  5 28  1  0  0  0
  5 29  1  0  0  0
  6  7  1  0  0  0
  6 30  1  0  0  0
  6 31  1  0  0  0
  7  8  1  0  0  0
  7 32  1  0  0  0
  7 33  1  0  0  0
  8  9  1  0  0  0
  9 10  1  0  0  0
  9 14  2  0  0  0
 10 11  2  0  0  0
 10 34  1  0  0  0
 11 12  1  0  0  0
 11 35  1  0  0  0
 12 13  2  0  0  0
 12 15  1  0  0  0
 13 14  1  0  0  0
 13 36  1  0  0  0
 14 37  1  0  0  0
 15 16  1  0  0  0
 16 17  1  0  0  0
 16 21  2  0  0  0
 17 18  2  0  0  0
 18 19  1  0  0  0
 18 38  1  0  0  0
 19 20  2  0  0  0
 19 39  1  0  0  0
 20 21  1  0  0  0
 21 40  1  0  0  0
M  END
> <s_m_entry_id>
7017

> <s_m_entry_name>
dock_pv.447

> <s_m_Source_Path>
/home/csk/Desktop/cluster/DUD-E-result/lkha4

> <s_m_Source_File>
dock_pv.maegz

> <i_m_Source_File_Index>
447

> <chembl_id>
CHEMBL1775097

> <chembl_pref_name>
None

> <i_lp_mmshare_version>
53161

> <i_f3d_flags>
0

> <r_lp_tautomer_probability>
1

> <s_lp_Force_Field>
OPLS_2005

> <r_lp_Energy>
44.204808

> <b_lp_Chiralities_Consistent>
1

> <s_lp_Variant>
CHEMBL4618_lig383-1

> <s_i_glide_gridfile>
glide-grid_3chp

> <i_i_glide_lignum>
444

> <i_i_glide_rotatable_bonds>
6

> <r_i_docking_score>
-7.87940285858057

> <r_i_glide_ligand_efficiency>
-0.375209659932408

> <r_i_glide_ligand_efficiency_sa>
-1.03517500094872

> <r_i_glide_ligand_efficiency_ln>
-1.9481664349514

> <r_i_glide_gscore>
-7.87940285858057

> <r_i_glide_lipo>
-4.59351179908743

> <r_i_glide_hbond>
0

> <r_i_glide_metal>
0

> <r_i_glide_rewards>
-1.83659168637611

> <r_i_glide_evdw>
-45.1899108886719

> <r_i_glide_ecoul>
-2.02607035636902

> <r_i_glide_erotb>
1.11410672477192

> <r_i_glide_esite>
0

> <r_i_glide_emodel>
-63.9466114850633

> <r_i_glide_energy>
-47.2159812450409

> <r_i_glide_einternal>
9.04838752746582

> <i_i_glide_confnum>
35

> <i_i_glide_posenum>
20

> <r_i_glide_eff_state_penalty>
0

> <s_user_duplicate_titles>
CHEMBL4618_lig383

> <s_m_subgroup_title>
dock_pv

> <s_m_subgroupid>
dock_pv

> <b_m_subgroup_collapsed>
1

$$$$
CHEMBL4618_lig504 
                    3D
 Schrodinger Suite 2021-1.
 50 52  0  0  1  0            999 V2000
    7.7220   36.7616   69.8248 C   0  0  0  0  0  0
    8.5211   36.8556   70.9592 C   0  0  0  0  0  0
    9.0936   38.0718   71.3056 C   0  0  0  0  0  0
    8.8344   39.1894   70.5189 C   0  0  0  0  0  0
    7.9799   39.1052   69.4224 C   0  0  0  0  0  0
    7.4396   37.8806   69.0553 C   0  0  0  0  0  0
    7.6150   40.2394   68.7402 O   0  0  0  0  0  0
    8.5202   40.9024   67.9407 C   0  0  0  0  0  0
    8.3005   42.2566   67.6953 C   0  0  0  0  0  0
    9.1800   42.9776   66.8919 C   0  0  0  0  0  0
   10.3014   42.3531   66.3416 C   0  0  0  0  0  0
   10.4834   40.9791   66.5469 C   0  0  0  0  0  0
    9.5953   40.2562   67.3326 C   0  0  0  0  0  0
   11.2814   43.1706   65.4884 C   0  0  0  0  0  0
   12.7319   42.6817   65.6095 C   0  0  0  0  0  0
   13.3321   42.2634   64.4848 N   0  0  0  0  0  0
   13.2602   42.6165   66.7169 O   0  0  0  0  0  0
   14.5647   41.4830   64.4270 C   0  0  0  0  0  0
   15.8068   42.2639   63.9637 C   0  0  0  0  0  0
   16.6319   42.9002   65.0852 C   0  0  0  0  0  0
   16.0673   43.8159   65.9714 C   0  0  0  0  0  0
   16.8421   44.4018   66.9694 C   0  0  0  0  0  0
   18.1976   44.0992   67.0826 C   0  0  0  0  0  0
   18.7726   43.2056   66.1693 C   0  0  0  0  0  0
   17.9906   42.6182   65.1836 C   0  0  0  0  0  0
   18.8949   44.7376   68.0889 O   0  0  0  0  0  0
   20.1895   44.2686   68.4577 C   0  0  0  0  0  0
   20.5458   44.9531   69.5399 F   0  0  0  0  0  0
   21.0914   44.5289   67.5096 F   0  0  0  0  0  0
   20.1901   42.9731   68.7781 F   0  0  0  0  0  0
    7.3210   35.8158   69.5408 H   0  0  0  0  0  0
    8.7175   35.9760   71.5510 H   0  0  0  0  0  0
    9.7274   38.1508   72.1759 H   0  0  0  0  0  0
    9.2487   40.1474   70.7648 H   0  0  0  0  0  0
    6.7906   37.8096   68.1952 H   0  0  0  0  0  0
    7.4442   42.7494   68.1334 H   0  0  0  0  0  0
    8.9923   44.0278   66.7207 H   0  0  0  0  0  0
   11.3060   40.4521   66.0881 H   0  0  0  0  0  0
    9.7375   39.1955   67.4678 H   0  0  0  0  0  0
   11.2582   44.2159   65.7918 H   0  0  0  0  0  0
   10.9447   43.1405   64.4511 H   0  0  0  0  0  0
   12.8643   42.4035   63.6033 H   0  0  0  0  0  0
   14.3939   40.6531   63.7390 H   0  0  0  0  0  0
   14.7643   40.9736   65.3711 H   0  0  0  0  0  0
   15.5067   43.0125   63.2356 H   0  0  0  0  0  0
   16.4441   41.6065   63.3718 H   0  0  0  0  0  0
   15.0358   44.1089   65.8722 H   0  0  0  0  0  0
   16.3874   45.0943   67.6616 H   0  0  0  0  0  0
   19.8233   42.9643   66.1888 H   0  0  0  0  0  0
   18.4656   41.9791   64.4601 H   0  0  0  0  0  0
  1  2  2  0  0  0
  1  6  1  0  0  0
  1 31  1  0  0  0
  2  3  1  0  0  0
  2 32  1  0  0  0
  3  4  2  0  0  0
  3 33  1  0  0  0
  4  5  1  0  0  0
  4 34  1  0  0  0
  5  6  2  0  0  0
  5  7  1  0  0  0
  6 35  1  0  0  0
  7  8  1  0  0  0
  8  9  2  0  0  0
  8 13  1  0  0  0
  9 10  1  0  0  0
  9 36  1  0  0  0
 10 11  2  0  0  0
 10 37  1  0  0  0
 11 12  1  0  0  0
 11 14  1  0  0  0
 12 13  2  0  0  0
 12 38  1  0  0  0
 13 39  1  0  0  0
 14 15  1  0  0  0
 14 40  1  0  0  0
 14 41  1  0  0  0
 15 16  1  0  0  0
 15 17  2  0  0  0
 16 18  1  0  0  0
 16 42  1  0  0  0
 18 19  1  0  0  0
 18 43  1  0  0  0
 18 44  1  0  0  0
 19 20  1  0  0  0
 19 45  1  0  0  0
 19 46  1  0  0  0
 20 21  2  0  0  0
 20 25  1  0  0  0
 21 22  1  0  0  0
 21 47  1  0  0  0
 22 23  2  0  0  0
 22 48  1  0  0  0
 23 24  1  0  0  0
 23 26  1  0  0  0
 24 25  2  0  0  0
 24 49  1  0  0  0
 25 50  1  0  0  0
 26 27  1  0  0  0
 27 28  1  0  0  0
 27 29  1  0  0  0
 27 30  1  0  0  0
M  END
> <s_m_entry_id>
7018

> <s_m_entry_name>
dock_pv.448

> <s_m_Source_Path>
/home/csk/Desktop/cluster/DUD-E-result/lkha4

> <s_m_Source_File>
dock_pv.maegz

> <i_m_Source_File_Index>
448

> <chembl_id>
CHEMBL4475844

> <chembl_pref_name>
None

> <i_lp_mmshare_version>
53161

> <i_f3d_flags>
0

> <r_lp_tautomer_probability>
1

> <s_lp_Force_Field>
OPLS_2005

> <r_lp_Energy>
18.076005

> <b_lp_Chiralities_Consistent>
1

> <s_lp_Variant>
CHEMBL4618_lig504 -1

> <s_i_glide_gridfile>
glide-grid_3chp

> <i_i_glide_lignum>
604

> <i_i_glide_rotatable_bonds>
10

> <r_i_docking_score>
-7.84529229481956

> <r_i_glide_ligand_efficiency>
-0.261509743160652

> <r_i_glide_ligand_efficiency_sa>
-0.812571573651184

> <r_i_glide_ligand_efficiency_ln>
-1.78253589068907

> <r_i_glide_gscore>
-7.84529229481956

> <r_i_glide_lipo>
-4.26073228954663

> <r_i_glide_hbond>
0

> <r_i_glide_metal>
0

> <r_i_glide_rewards>
-1.46179900325038

> <r_i_glide_evdw>
-51.6285629272461

> <r_i_glide_ecoul>
-3.13782215118408

> <r_i_glide_erotb>
1.02988380727413

> <r_i_glide_esite>
-0.100543340256754

> <r_i_glide_emodel>
-75.7635203712206

> <r_i_glide_energy>
-54.7663850784302

> <r_i_glide_einternal>
7.48790502548218

> <i_i_glide_confnum>
12

> <i_i_glide_posenum>
101

> <r_i_glide_eff_state_penalty>
0

> <s_user_duplicate_titles>
CHEMBL4618_lig504 

> <s_m_subgroup_title>
dock_pv

> <s_m_subgroupid>
dock_pv

> <b_m_subgroup_collapsed>
1

$$$$
CHEMBL4618_lig1
                    3D
 Schrodinger Suite 2021-1.
 24 25  0  0  1  0            999 V2000
    8.1212   37.1733   72.1557 O   0  0  0  0  0  0
    8.1776   37.6947   70.8797 C   0  0  0  0  0  0
    7.7210   36.9744   69.7756 C   0  0  0  0  0  0
    7.7210   37.5557   68.5088 C   0  0  0  0  0  0
    8.1380   38.8695   68.3442 C   0  0  0  0  0  0
    8.5548   39.6086   69.4415 C   0  0  0  0  0  0
    8.5971   39.0127   70.6993 C   0  0  0  0  0  0
    9.0401   36.2362   72.5848 C   0  0  0  0  0  0
    9.2221   35.0107   71.9401 C   0  0  0  0  0  0
   10.1210   34.0677   72.4371 C   0  0  0  0  0  0
   10.8178   34.3339   73.6139 C   0  0  0  0  0  0
   10.6152   35.5365   74.2872 C   0  0  0  0  0  0
    9.7392   36.4857   73.7642 C   0  0  0  0  0  0
   11.7008   33.4160   74.1236 O   0  0  0  0  0  0
    7.3359   35.9749   69.8996 H   0  0  0  0  0  0
    7.3540   37.0158   67.6537 H   0  0  0  0  0  0
    8.1211   39.3224   67.3635 H   0  0  0  0  0  0
    8.8553   40.6381   69.3145 H   0  0  0  0  0  0
    8.9205   39.5953   71.5401 H   0  0  0  0  0  0
    8.6395   34.7641   71.0712 H   0  0  0  0  0  0
   10.2519   33.1264   71.9251 H   0  0  0  0  0  0
   11.1421   35.7343   75.2096 H   0  0  0  0  0  0
    9.5862   37.4145   74.2849 H   0  0  0  0  0  0
   11.6023   32.5141   73.7905 H   0  0  0  0  0  0
  1  2  1  0  0  0
  1  8  1  0  0  0
  2  3  1  0  0  0
  2  7  2  0  0  0
  3  4  2  0  0  0
  3 15  1  0  0  0
  4  5  1  0  0  0
  4 16  1  0  0  0
  5  6  2  0  0  0
  5 17  1  0  0  0
  6  7  1  0  0  0
  6 18  1  0  0  0
  7 19  1  0  0  0
  8  9  1  0  0  0
  8 13  2  0  0  0
  9 10  2  0  0  0
  9 20  1  0  0  0
 10 11  1  0  0  0
 10 21  1  0  0  0
 11 12  2  0  0  0
 11 14  1  0  0  0
 12 13  1  0  0  0
 12 22  1  0  0  0
 13 23  1  0  0  0
 14 24  1  0  0  0
M  END
> <s_m_entry_id>
7019

> <s_m_entry_name>
dock_pv.449

> <s_m_Source_Path>
/home/csk/Desktop/cluster/DUD-E-result/lkha4

> <s_m_Source_File>
dock_pv.maegz

> <i_m_Source_File_Index>
449

> <chembl_id>
CHEMBL224318

> <chembl_pref_name>
None

> <i_lp_mmshare_version>
53161

> <i_f3d_flags>
0

> <r_lp_tautomer_probability>
1

> <s_lp_Force_Field>
OPLS_2005

> <r_lp_Energy>
11.736775

> <b_lp_Chiralities_Consistent>
1

> <s_lp_Variant>
CHEMBL4618_lig1-1

> <s_i_glide_gridfile>
glide-grid_3chp

> <i_i_glide_lignum>
1

> <i_i_glide_rotatable_bonds>
3

> <r_i_docking_score>
-7.83341163630514

> <r_i_glide_ligand_efficiency>
-0.559529402593224

> <r_i_glide_ligand_efficiency_sa>
-1.34854546005235

> <r_i_glide_ligand_efficiency_ln>
-2.15259363257499

> <r_i_glide_gscore>
-7.83341163630514

> <r_i_glide_lipo>
-3.68738498448708

> <r_i_glide_hbond>
-0.32

> <r_i_glide_metal>
0

> <r_i_glide_rewards>
-2.62283378787879

> <r_i_glide_evdw>
-29.2823715209961

> <r_i_glide_ecoul>
-4.39006662368774

> <r_i_glide_erotb>
0.919435705663696

> <r_i_glide_esite>
0

> <r_i_glide_emodel>
-52.7061036289195

> <r_i_glide_energy>
-33.6724381446838

> <r_i_glide_einternal>
2.42820024490356

> <i_i_glide_confnum>
1

> <i_i_glide_posenum>
384

> <r_i_glide_eff_state_penalty>
0

> <s_user_duplicate_titles>
CHEMBL4618_lig1

> <s_m_subgroup_title>
dock_pv

> <s_m_subgroupid>
dock_pv

> <b_m_subgroup_collapsed>
1

$$$$
CHEMBL4618_lig81
                    3D
 Schrodinger Suite 2021-1.
 41 43  0  0  1  0            999 V2000
    8.9184   38.9709   70.6192 S   0  0  0  0  0  0
    8.3282   38.8042   68.9964 C   0  0  0  0  0  0
    8.2661   37.4265   71.0686 C   0  0  0  0  0  0
    7.7348   37.5845   68.7814 C   0  0  0  0  0  0
    7.7209   36.8070   69.9401 C   0  0  0  0  0  0
    9.9588   42.2821   67.0613 N   0  0  0  0  0  0
    8.2982   36.9604   72.5106 C   0  0  0  0  0  0
    8.5223   39.7733   68.0462 O   0  0  0  0  0  0
    9.3324   35.8936   72.8507 C   0  0  0  0  0  0
    8.5246   42.0659   67.2782 C   0  0  0  0  0  0
    8.2296   41.1109   68.4462 C   0  0  0  0  0  0
   10.7216   41.1125   66.6390 C   0  0  0  0  0  0
   10.1912   43.2301   65.9876 C   0  0  0  0  0  0
   10.0685   36.0048   74.0356 C   0  0  0  0  0  0
    9.4802   34.7585   72.0459 C   0  0  0  0  0  0
   11.6773   43.1090   65.6670 C   0  0  0  0  0  0
   12.0169   41.6615   66.0315 C   0  0  0  0  0  0
   10.9198   34.9755   74.4290 C   0  0  0  0  0  0
   10.3329   33.7310   72.4352 C   0  0  0  0  0  0
   11.0269   33.8346   73.6364 C   0  0  0  0  0  0
    7.3330   37.2668   67.8310 H   0  0  0  0  0  0
    7.2943   35.8180   69.9665 H   0  0  0  0  0  0
    8.4211   37.8159   73.1743 H   0  0  0  0  0  0
    7.3221   36.5397   72.7536 H   0  0  0  0  0  0
    8.0506   43.0277   67.4825 H   0  0  0  0  0  0
    8.0671   41.6853   66.3614 H   0  0  0  0  0  0
    8.8087   41.4264   69.3152 H   0  0  0  0  0  0
    7.1757   41.1837   68.7209 H   0  0  0  0  0  0
   10.1680   40.4842   65.9403 H   0  0  0  0  0  0
   10.9172   40.4851   67.5083 H   0  0  0  0  0  0
    9.9037   44.2162   66.3398 H   0  0  0  0  0  0
    9.5429   43.0334   65.1387 H   0  0  0  0  0  0
    9.9528   36.8690   74.6723 H   0  0  0  0  0  0
    8.9061   34.6437   71.1423 H   0  0  0  0  0  0
   12.2577   43.8150   66.2591 H   0  0  0  0  0  0
   11.8737   43.3275   64.6162 H   0  0  0  0  0  0
   12.3159   41.0831   65.1589 H   0  0  0  0  0  0
   12.8426   41.6234   66.7399 H   0  0  0  0  0  0
   11.4634   35.0453   75.3594 H   0  0  0  0  0  0
   10.4289   32.8401   71.8315 H   0  0  0  0  0  0
   11.6617   33.0196   73.9548 H   0  0  0  0  0  0
  1  2  1  0  0  0
  1  3  1  0  0  0
  2  4  2  0  0  0
  2  8  1  0  0  0
  3  5  2  0  0  0
  3  7  1  0  0  0
  4  5  1  0  0  0
  4 21  1  0  0  0
  5 22  1  0  0  0
  6 10  1  0  0  0
  6 12  1  0  0  0
  6 13  1  0  0  0
  7  9  1  0  0  0
  7 23  1  0  0  0
  7 24  1  0  0  0
  8 11  1  0  0  0
  9 14  1  0  0  0
  9 15  2  0  0  0
 10 11  1  0  0  0
 10 25  1  0  0  0
 10 26  1  0  0  0
 11 27  1  0  0  0
 11 28  1  0  0  0
 12 17  1  0  0  0
 12 29  1  0  0  0
 12 30  1  0  0  0
 13 16  1  0  0  0
 13 31  1  0  0  0
 13 32  1  0  0  0
 14 18  2  0  0  0
 14 33  1  0  0  0
 15 19  1  0  0  0
 15 34  1  0  0  0
 16 17  1  0  0  0
 16 35  1  0  0  0
 16 36  1  0  0  0
 17 37  1  0  0  0
 17 38  1  0  0  0
 18 20  1  0  0  0
 18 39  1  0  0  0
 19 20  2  0  0  0
 19 40  1  0  0  0
 20 41  1  0  0  0
M  END
> <s_m_entry_id>
7020

> <s_m_entry_name>
dock_pv.450

> <s_m_Source_Path>
/home/csk/Desktop/cluster/DUD-E-result/lkha4

> <s_m_Source_File>
dock_pv.maegz

> <i_m_Source_File_Index>
450

> <chembl_id>
CHEMBL163567

> <chembl_pref_name>
None

> <i_lp_mmshare_version>
53161

> <i_f3d_flags>
0

> <r_lp_tautomer_probability>
1

> <s_lp_Force_Field>
OPLS_2005

> <r_lp_Energy>
30.286032

> <b_lp_Chiralities_Consistent>
1

> <s_lp_Variant>
CHEMBL4618_lig81-1

> <s_i_glide_gridfile>
glide-grid_3chp

> <i_i_glide_lignum>
102

> <i_i_glide_rotatable_bonds>
6

> <r_i_docking_score>
-7.81173471178354

> <r_i_glide_ligand_efficiency>
-0.390586735589177

> <r_i_glide_ligand_efficiency_sa>
-1.06021551483285

> <r_i_glide_ligand_efficiency_ln>
-1.955019550105

> <r_i_glide_gscore>
-7.81173471178354

> <r_i_glide_lipo>
-5.63783966509791

> <r_i_glide_hbond>
0

> <r_i_glide_metal>
0

> <r_i_glide_rewards>
-0.849404045454545

> <r_i_glide_evdw>
-43.9492607116699

> <r_i_glide_ecoul>
-1.51423633098602

> <r_i_glide_erotb>
1.10010748400031

> <r_i_glide_esite>
0

> <r_i_glide_emodel>
-63.7180805242702

> <r_i_glide_energy>
-45.4634970426559

> <r_i_glide_einternal>
8.15355968475342

> <i_i_glide_confnum>
181

> <i_i_glide_posenum>
259

> <r_i_glide_eff_state_penalty>
0

> <s_user_duplicate_titles>
CHEMBL4618_lig81,271449

> <s_m_subgroup_title>
dock_pv

> <s_m_subgroupid>
dock_pv

> <b_m_subgroup_collapsed>
1

$$$$
CHEMBL4618_lig277
                    3D
 Schrodinger Suite 2021-1.
 56 60  0  0  1  0            999 V2000
    9.7209   35.0156   72.9260 C   0  0  0  0  0  0
   10.2235   36.1461   73.5531 C   0  0  0  0  0  0
   10.0040   37.4159   73.0264 C   0  0  0  0  0  0
    8.9210   35.1142   71.7914 C   0  0  0  0  0  0
    8.6643   36.3902   71.2699 C   0  0  0  0  0  0
    9.2164   37.5490   71.8693 C   0  0  0  0  0  0
    8.9211   38.7175   71.2342 N   0  0  0  0  0  0
    8.1659   38.5152   70.1970 C   0  0  0  0  0  0
    7.7210   36.8753   69.8658 S   0  0  0  0  0  0
    7.6066   39.4788   69.3991 O   0  0  0  0  0  0
    8.3904   40.1997   68.5313 C   0  0  0  0  0  0
    8.2486   41.5893   68.4890 C   0  0  0  0  0  0
    9.0141   42.3425   67.5959 C   0  0  0  0  0  0
    9.9101   41.7053   66.7399 C   0  0  0  0  0  0
   10.0062   40.3157   66.7407 C   0  0  0  0  0  0
    9.2499   39.5638   67.6342 C   0  0  0  0  0  0
   10.6718   42.4278   65.8520 O   0  0  0  0  0  0
   12.0090   42.6913   66.2786 C   0  0  0  0  0  0
   13.0222   42.4474   65.1301 C   0  0  0  0  0  0
   14.4373   42.5411   65.5400 N   0  0  1  0  0  0
   15.3336   42.2476   64.4162 C   0  0  0  0  0  0
   16.8189   42.2479   64.8560 C   0  0  0  0  0  0
   17.2803   43.5462   65.5656 C   0  0  0  0  0  0
   16.2148   43.9750   66.6008 C   0  0  0  0  0  0
   14.7578   43.8453   66.1176 C   0  0  0  0  0  0
   18.6888   43.5596   66.0197 N   0  0  0  0  0  0
   19.2572   44.4924   66.8957 C   0  0  0  0  0  0
   20.5786   44.2210   66.9646 O   0  0  0  0  0  0
   20.9855   43.1195   66.1824 C   0  0  0  0  0  0
   19.7012   42.6382   65.5510 C   0  0  0  0  0  0
   18.7567   45.4161   67.5399 O   0  0  0  0  0  0
    9.9325   34.0410   73.3449 H   0  0  0  0  0  0
   10.8174   36.0329   74.4509 H   0  0  0  0  0  0
   10.4267   38.2602   73.5392 H   0  0  0  0  0  0
    8.5210   34.2266   71.3261 H   0  0  0  0  0  0
    7.5438   42.0832   69.1408 H   0  0  0  0  0  0
    8.9056   43.4157   67.5612 H   0  0  0  0  0  0
   10.6707   39.8189   66.0492 H   0  0  0  0  0  0
    9.3226   38.4861   67.6247 H   0  0  0  0  0  0
   12.3000   42.0885   67.1384 H   0  0  0  0  0  0
   12.0256   43.7324   66.6021 H   0  0  0  0  0  0
   12.8190   43.1402   64.3100 H   0  0  0  0  0  0
   12.8492   41.4428   64.7401 H   0  0  0  0  0  0
   15.1616   42.9614   63.6077 H   0  0  0  0  0  0
   15.0807   41.2671   64.0065 H   0  0  0  0  0  0
   17.4224   42.0903   63.9618 H   0  0  0  0  0  0
   16.9862   41.4046   65.5238 H   0  0  0  0  0  0
   17.2261   44.2952   64.7755 H   0  0  0  0  0  0
   16.3214   43.4085   67.5260 H   0  0  0  0  0  0
   16.3596   45.0178   66.8743 H   0  0  0  0  0  0
   14.5076   44.6148   65.3855 H   0  0  0  0  0  0
   14.1205   44.0060   66.9850 H   0  0  0  0  0  0
   21.4211   42.3339   66.8003 H   0  0  0  0  0  0
   21.6970   43.4216   65.4126 H   0  0  0  0  0  0
   19.7839   42.6246   64.4633 H   0  0  0  0  0  0
   19.4903   41.6097   65.8405 H   0  0  0  0  0  0
  1  4  1  0  0  0
  1  2  2  0  0  0
  1 32  1  0  0  0
  2  3  1  0  0  0
  2 33  1  0  0  0
  3  6  2  0  0  0
  3 34  1  0  0  0
  4  5  2  0  0  0
  4 35  1  0  0  0
  5  9  1  0  0  0
  5  6  1  0  0  0
  6  7  1  0  0  0
  7  8  2  0  0  0
  8  9  1  0  0  0
  8 10  1  0  0  0
 10 11  1  0  0  0
 11 16  1  0  0  0
 11 12  2  0  0  0
 12 13  1  0  0  0
 12 36  1  0  0  0
 13 14  2  0  0  0
 13 37  1  0  0  0
 14 15  1  0  0  0
 14 17  1  0  0  0
 15 16  2  0  0  0
 15 38  1  0  0  0
 16 39  1  0  0  0
 17 18  1  0  0  0
 18 19  1  0  0  0
 18 40  1  0  0  0
 18 41  1  0  0  0
 19 20  1  0  0  0
 19 42  1  0  0  0
 19 43  1  0  0  0
 20 21  1  0  0  0
 20 25  1  0  0  0
 21 22  1  0  0  0
 21 44  1  0  0  0
 21 45  1  0  0  0
 22 23  1  0  0  0
 22 46  1  0  0  0
 22 47  1  0  0  0
 23 24  1  0  0  0
 23 26  1  0  0  0
 23 48  1  0  0  0
 24 25  1  0  0  0
 24 49  1  0  0  0
 24 50  1  0  0  0
 25 51  1  0  0  0
 25 52  1  0  0  0
 26 27  1  0  0  0
 26 30  1  0  0  0
 27 28  1  0  0  0
 27 31  2  0  0  0
 28 29  1  0  0  0
 29 30  1  0  0  0
 29 53  1  0  0  0
 29 54  1  0  0  0
 30 55  1  0  0  0
 30 56  1  0  0  0
M  END
> <s_m_entry_id>
7021

> <s_m_entry_name>
dock_pv.451

> <s_m_Source_Path>
/home/csk/Desktop/cluster/DUD-E-result/lkha4

> <s_m_Source_File>
dock_pv.maegz

> <i_m_Source_File_Index>
451

> <chembl_id>
CHEMBL472138

> <chembl_pref_name>
None

> <i_lp_mmshare_version>
53161

> <i_f3d_flags>
0

> <r_lp_tautomer_probability>
1

> <s_lp_Force_Field>
OPLS_2005

> <r_lp_Energy>
40.498233

> <b_lp_Chiralities_Consistent>
1

> <s_lp_Variant>
CHEMBL4618_lig277-1

> <s_i_glide_gridfile>
glide-grid_3chp

> <i_i_glide_lignum>
315

> <i_i_glide_rotatable_bonds>
7

> <r_i_docking_score>
-7.81025815079769

> <r_i_glide_ligand_efficiency>
-0.251943811316055

> <r_i_glide_ligand_efficiency_sa>
-0.791451413452057

> <r_i_glide_ligand_efficiency_ln>
-1.76145256867167

> <r_i_glide_gscore>
-7.81025815079769

> <r_i_glide_lipo>
-5.3173429824177

> <r_i_glide_hbond>
-0.00690172841232078

> <r_i_glide_metal>
0

> <r_i_glide_rewards>
0.965583701394982

> <r_i_glide_evdw>
-57.7709350585938

> <r_i_glide_ecoul>
-8.03860473632812

> <r_i_glide_erotb>
0.723207716430483

> <r_i_glide_esite>
-0.0804673944142298

> <r_i_glide_emodel>
-81.490705939783

> <r_i_glide_energy>
-65.8095397949219

> <r_i_glide_einternal>
15.9038925170898

> <i_i_glide_confnum>
3

> <i_i_glide_posenum>
103

> <r_i_glide_eff_state_penalty>
0

> <s_user_duplicate_titles>
CHEMBL4618_lig277,466870

> <s_m_subgroup_title>
dock_pv

> <s_m_subgroupid>
dock_pv

> <b_m_subgroup_collapsed>
1

$$$$
CHEMBL4618_lig521
                    3D
 Schrodinger Suite 2021-1.
 49 52  0  0  1  0            999 V2000
    9.4726   41.5191   67.0948 N   0  0  0  0  0  0
   10.1659   42.4953   66.3400 C   0  0  0  0  0  0
    9.4163   43.5852   66.1479 C   0  0  0  0  0  0
    8.0156   43.6125   67.1400 S   0  0  0  0  0  0
    8.2537   41.9792   67.6327 C   0  0  0  0  0  0
    9.9639   40.1522   67.3791 C   0  0  0  0  0  0
    8.9007   39.0346   67.5238 C   0  0  0  0  0  0
    8.6037   38.5126   68.7475 N   0  0  0  0  0  0
    8.4100   38.6160   66.4812 O   0  0  0  0  0  0
    7.7704   37.3017   68.8374 C   0  0  0  0  0  0
    7.6735   36.7927   70.3096 C   0  0  0  0  0  0
    8.8061   37.1200   71.1889 N   0  0  0  0  0  0
    9.0861   38.5617   71.1857 C   0  0  0  0  0  0
    8.6230   39.3508   69.9515 C   0  0  0  0  0  0
   11.5392   42.4341   65.6967 C   0  0  0  0  0  0
   12.4993   41.4592   65.9857 C   0  0  0  0  0  0
   13.7210   41.4136   65.3206 C   0  0  0  0  0  0
   14.0586   42.3854   64.3913 C   0  0  0  0  0  0
   13.1675   43.4097   64.1279 C   0  0  0  0  0  0
   11.9294   43.4160   64.7596 C   0  0  0  0  0  0
    7.3657   41.4337   68.3404 N   0  0  0  0  0  0
    9.3214   36.2768   72.1757 C   0  0  0  0  0  0
    9.8899   36.8028   73.3442 C   0  0  0  0  0  0
   10.5210   35.9849   74.2752 C   0  0  0  0  0  0
   10.6752   34.6310   74.0017 C   0  0  0  0  0  0
   10.1210   34.0830   72.8523 C   0  0  0  0  0  0
    9.3918   34.8920   71.9821 C   0  0  0  0  0  0
    9.6331   44.4792   65.5946 H   0  0  0  0  0  0
   10.6520   40.1490   68.2179 H   0  0  0  0  0  0
   10.5210   39.8160   66.5068 H   0  0  0  0  0  0
    8.3219   36.5217   68.3143 H   0  0  0  0  0  0
    6.7670   37.4379   68.4328 H   0  0  0  0  0  0
    7.4341   35.7385   70.3359 H   0  0  0  0  0  0
    6.8284   37.2965   70.7815 H   0  0  0  0  0  0
    8.6100   39.0160   72.0555 H   0  0  0  0  0  0
   10.1733   38.6421   71.2211 H   0  0  0  0  0  0
    7.5639   39.5361   70.1277 H   0  0  0  0  0  0
    9.0450   40.3450   69.8621 H   0  0  0  0  0  0
   12.3347   40.7214   66.7400 H   0  0  0  0  0  0
   14.4111   40.6160   65.5400 H   0  0  0  0  0  0
   15.0044   42.3531   63.8685 H   0  0  0  0  0  0
   13.4212   44.1747   63.4083 H   0  0  0  0  0  0
   11.2795   44.2160   64.4773 H   0  0  0  0  0  0
    7.5655   40.4687   68.5547 H   0  0  0  0  0  0
    9.8526   37.8599   73.5400 H   0  0  0  0  0  0
   10.9345   36.4080   75.1792 H   0  0  0  0  0  0
   11.2030   33.9960   74.6999 H   0  0  0  0  0  0
   10.2098   33.0225   72.6640 H   0  0  0  0  0  0
    8.9210   34.4229   71.1400 H   0  0  0  0  0  0
  1  2  1  0  0  0
  1  5  1  0  0  0
  1  6  1  0  0  0
  2  3  2  0  0  0
  2 15  1  0  0  0
  3  4  1  0  0  0
  3 28  1  0  0  0
  4  5  1  0  0  0
  5 21  2  0  0  0
  6  7  1  0  0  0
  6 29  1  0  0  0
  6 30  1  0  0  0
  7  8  1  0  0  0
  7  9  2  0  0  0
  8 10  1  0  0  0
  8 14  1  0  0  0
 10 11  1  0  0  0
 10 31  1  0  0  0
 10 32  1  0  0  0
 11 12  1  0  0  0
 11 33  1  0  0  0
 11 34  1  0  0  0
 12 13  1  0  0  0
 12 22  1  0  0  0
 13 14  1  0  0  0
 13 35  1  0  0  0
 13 36  1  0  0  0
 14 37  1  0  0  0
 14 38  1  0  0  0
 15 16  2  0  0  0
 15 20  1  0  0  0
 16 17  1  0  0  0
 16 39  1  0  0  0
 17 18  2  0  0  0
 17 40  1  0  0  0
 18 19  1  0  0  0
 18 41  1  0  0  0
 19 20  2  0  0  0
 19 42  1  0  0  0
 20 43  1  0  0  0
 21 44  1  0  0  0
 22 23  2  0  0  0
 22 27  1  0  0  0
 23 24  1  0  0  0
 23 45  1  0  0  0
 24 25  2  0  0  0
 24 46  1  0  0  0
 25 26  1  0  0  0
 25 47  1  0  0  0
 26 27  2  0  0  0
 26 48  1  0  0  0
 27 49  1  0  0  0
M  END
> <s_m_entry_id>
7022

> <s_m_entry_name>
dock_pv.452

> <s_m_Source_Path>
/home/csk/Desktop/cluster/DUD-E-result/lkha4

> <s_m_Source_File>
dock_pv.maegz

> <i_m_Source_File_Index>
452

> <chembl_id>
CHEMBL2437293

> <chembl_pref_name>
None

> <i_lp_mmshare_version>
53161

> <i_f3d_flags>
0

> <r_lp_tautomer_probability>
1

> <s_lp_Force_Field>
OPLS_2005

> <r_lp_Energy>
47.181155

> <b_lp_Chiralities_Consistent>
1

> <s_lp_Variant>
CHEMBL4618_lig521-1

> <s_i_glide_gridfile>
glide-grid_3chp

> <i_i_glide_lignum>
621

> <i_i_glide_rotatable_bonds>
5

> <r_i_docking_score>
-7.80374540497486

> <r_i_glide_ligand_efficiency>
-0.289027607591662

> <r_i_glide_ligand_efficiency_sa>
-0.867082821822397

> <r_i_glide_ligand_efficiency_ln>
-1.81658327548023

> <r_i_glide_gscore>
-7.80374540497486

> <r_i_glide_lipo>
-5.0730254726754

> <r_i_glide_hbond>
0

> <r_i_glide_metal>
0

> <r_i_glide_rewards>
-1.51196419288086

> <r_i_glide_evdw>
-42.4638633728027

> <r_i_glide_ecoul>
1.52022910118103

> <r_i_glide_erotb>
0.676403064044378

> <r_i_glide_esite>
0

> <r_i_glide_emodel>
-31.95069453117

> <r_i_glide_energy>
-40.9436342716217

> <r_i_glide_einternal>
30.5155696868896

> <i_i_glide_confnum>
301

> <i_i_glide_posenum>
218

> <r_i_glide_eff_state_penalty>
0

> <s_user_duplicate_titles>
CHEMBL4618_lig521

> <s_m_subgroup_title>
dock_pv

> <s_m_subgroupid>
dock_pv

> <b_m_subgroup_collapsed>
1

$$$$
CHEMBL4618_lig192
                    3D
 Schrodinger Suite 2021-1.
 48 49  0  0  1  0            999 V2000
   10.0740   42.0121   66.7493 C   0  0  0  0  0  0
    9.0357   42.5651   67.5041 C   0  0  0  0  0  0
    8.2569   41.7587   68.3400 C   0  0  0  0  0  0
    8.4876   40.3805   68.3873 C   0  0  0  0  0  0
    9.4376   39.8160   67.5351 C   0  0  0  0  0  0
   10.2283   40.6235   66.7400 C   0  0  0  0  0  0
    7.8675   39.6147   69.3903 N   0  0  0  0  0  0
    7.7233   38.2725   69.4060 C   0  0  0  0  0  0
    7.7210   37.5631   68.3992 O   0  0  0  0  0  0
    7.5980   37.6073   70.7784 C   0  0  0  0  0  0
    8.8122   36.6748   71.0382 C   0  0  0  0  0  0
    8.7006   35.8131   72.3117 C   0  0  1  0  0  0
    9.7210   34.6391   72.3453 C   0  0  0  0  0  0
    8.8321   36.6160   73.5400 N   0  0  0  0  0  0
    9.3210   33.6094   71.5400 O   0  0  0  0  0  0
   10.7331   34.6297   73.0450 O   0  0  0  0  0  0
   10.9285   42.8570   66.0617 O   0  0  0  0  0  0
   12.2600   42.3784   65.8049 C   0  0  0  0  0  0
   13.1962   43.4848   65.2852 C   0  0  1  0  0  0
   14.6642   43.0568   65.2928 C   0  0  0  0  0  0
   12.7987   43.9105   63.9946 O   0  0  0  0  0  0
   15.5457   43.5709   66.2498 C   0  0  0  0  0  0
   16.9063   43.2785   66.1769 C   0  0  0  0  0  0
   17.3831   42.4798   65.1400 C   0  0  0  0  0  0
   16.5115   41.9477   64.1943 C   0  0  0  0  0  0
   15.1503   42.2124   64.2918 C   0  0  0  0  0  0
    8.8690   43.6310   67.4863 H   0  0  0  0  0  0
    7.5076   42.2162   68.9718 H   0  0  0  0  0  0
    9.6497   38.7578   67.5360 H   0  0  0  0  0  0
   10.9775   40.1444   66.1310 H   0  0  0  0  0  0
    7.5653   40.1244   70.2118 H   0  0  0  0  0  0
    6.6711   37.0403   70.7432 H   0  0  0  0  0  0
    7.5121   38.3649   71.5591 H   0  0  0  0  0  0
    9.7210   37.2778   71.1031 H   0  0  0  0  0  0
    8.9210   36.0114   70.1786 H   0  0  0  0  0  0
    7.7185   35.3502   72.3071 H   0  0  0  0  0  0
    9.7211   37.0947   73.5839 H   0  0  0  0  0  0
    8.1303   37.3399   73.5859 H   0  0  0  0  0  0
    8.4814   33.7738   71.0918 H   0  0  0  0  0  0
   12.6752   42.0000   66.7400 H   0  0  0  0  0  0
   12.2567   41.5418   65.1117 H   0  0  0  0  0  0
   13.0826   44.3396   65.9400 H   0  0  0  0  0  0
   13.5428   44.3834   63.6050 H   0  0  0  0  0  0
   15.1821   44.2160   67.0362 H   0  0  0  0  0  0
   17.5917   43.6951   66.9005 H   0  0  0  0  0  0
   18.4464   42.3083   65.0397 H   0  0  0  0  0  0
   16.8888   41.4160   63.3314 H   0  0  0  0  0  0
   14.4781   41.8258   63.5400 H   0  0  0  0  0  0
  1  2  2  0  0  0
  1 17  1  0  0  0
  1  6  1  0  0  0
  2  3  1  0  0  0
  2 27  1  0  0  0
  3  4  2  0  0  0
  3 28  1  0  0  0
  4  7  1  0  0  0
  4  5  1  0  0  0
  5  6  2  0  0  0
  5 29  1  0  0  0
  6 30  1  0  0  0
  7  8  1  0  0  0
  7 31  1  0  0  0
  8  9  2  0  0  0
  8 10  1  0  0  0
 10 11  1  0  0  0
 10 32  1  0  0  0
 10 33  1  0  0  0
 11 12  1  0  0  0
 11 34  1  0  0  0
 11 35  1  0  0  0
 12 13  1  0  0  0
 12 14  1  0  0  0
 12 36  1  0  0  0
 13 15  1  0  0  0
 13 16  2  0  0  0
 14 37  1  0  0  0
 14 38  1  0  0  0
 15 39  1  0  0  0
 17 18  1  0  0  0
 18 19  1  0  0  0
 18 40  1  0  0  0
 18 41  1  0  0  0
 19 20  1  0  0  0
 19 21  1  0  0  0
 19 42  1  0  0  0
 20 22  2  0  0  0
 20 26  1  0  0  0
 21 43  1  0  0  0
 22 23  1  0  0  0
 22 44  1  0  0  0
 23 24  2  0  0  0
 23 45  1  0  0  0
 24 25  1  0  0  0
 24 46  1  0  0  0
 25 26  2  0  0  0
 25 47  1  0  0  0
 26 48  1  0  0  0
M  END
> <s_m_entry_id>
7024

> <s_m_entry_name>
dock_pv.454

> <s_m_Source_Path>
/home/csk/Desktop/cluster/DUD-E-result/lkha4

> <s_m_Source_File>
dock_pv.maegz

> <i_m_Source_File_Index>
454

> <chembl_id>
CHEMBL477514

> <chembl_pref_name>
None

> <i_lp_mmshare_version>
53161

> <i_f3d_flags>
0

> <r_lp_tautomer_probability>
1

> <s_lp_Force_Field>
OPLS_2005

> <r_lp_Energy>
19.374333

> <b_lp_Chiralities_Consistent>
1

> <s_lp_Variant>
CHEMBL4618_lig192-2

> <s_i_glide_gridfile>
glide-grid_3chp

> <i_i_glide_lignum>
220

> <i_i_glide_rotatable_bonds>
12

> <r_i_docking_score>
-7.76113137435205

> <r_i_glide_ligand_efficiency>
-0.298505052859694

> <r_i_glide_ligand_efficiency_sa>
-0.884320044536179

> <r_i_glide_ligand_efficiency_ln>
-1.82267623691741

> <r_i_glide_gscore>
-7.76113137435205

> <r_i_glide_lipo>
-3.58235253945505

> <r_i_glide_hbond>
-0.295262028869369

> <r_i_glide_metal>
0

> <r_i_glide_rewards>
-0.838352363207371

> <r_i_glide_evdw>
-51.4851531982422

> <r_i_glide_ecoul>
-12.0874576568604

> <r_i_glide_erotb>
1.3422118656209

> <r_i_glide_esite>
0

> <r_i_glide_emodel>
-81.0944834399842

> <r_i_glide_energy>
-63.5726108551025

> <r_i_glide_einternal>
16.4970874786377

> <i_i_glide_confnum>
1

> <i_i_glide_posenum>
191

> <r_i_glide_eff_state_penalty>
0

> <s_user_duplicate_titles>
CHEMBL4618_lig192

> <s_m_subgroup_title>
dock_pv

> <s_m_subgroupid>
dock_pv

> <b_m_subgroup_collapsed>
1

$$$$
CHEMBL4618_lig481
                    3D
 Schrodinger Suite 2021-1.
 63 67  0  0  1  0            999 V2000
   19.7696   43.2289   71.7154 C   0  0  0  0  0  0
   18.2492   43.5450   71.7388 C   0  0  0  0  0  0
   17.3767   42.2712   71.7789 C   0  0  0  0  0  0
   18.0697   44.1100   73.0332 O   0  0  0  0  0  0
   17.7196   44.5583   70.6685 C   0  0  0  0  0  0
   16.9186   45.4166   71.0598 O   0  0  0  0  0  0
   18.2012   44.5886   69.3908 N   0  0  0  0  0  0
   17.7971   45.6970   68.4995 C   0  0  0  0  0  0
   16.9135   45.1052   67.3917 C   0  0  0  0  0  0
   17.6729   44.1419   66.6100 N   0  0  0  0  0  0
   17.0644   43.7760   65.3171 C   0  0  0  0  0  0
   15.7278   43.0165   65.3278 C   0  0  0  0  0  0
   15.6053   41.8195   64.6274 C   0  0  0  0  0  0
   14.4951   41.0373   64.6509 N   0  0  0  0  0  0
   13.4183   41.4585   65.3721 C   0  0  0  0  0  0
   12.3024   40.6160   65.5707 C   0  0  0  0  0  0
   11.1618   41.0343   66.2928 C   0  0  0  0  0  0
   10.0754   40.1867   66.2652 O   0  0  0  0  0  0
    9.1372   39.8678   67.2178 C   0  0  0  0  0  0
    8.5582   38.6150   67.0550 C   0  0  0  0  0  0
    8.0578   37.9577   68.1713 C   0  0  0  0  0  0
    8.1351   38.5890   69.4114 C   0  0  0  0  0  0
    8.4741   39.9469   69.4215 C   0  0  0  0  0  0
    8.9638   40.6066   68.3406 N   0  0  0  0  0  0
    8.1374   37.7534   70.6387 C   0  0  0  0  0  0
    8.1918   36.3786   70.7961 C   0  0  0  0  0  0
    8.4652   36.1497   72.1434 C   0  0  0  0  0  0
    8.5208   37.2631   72.8257 N   0  0  0  0  0  0
    8.2957   38.2171   71.9183 N   0  0  0  0  0  0
   11.0832   42.3513   66.7094 C   0  0  0  0  0  0
   12.1678   43.1928   66.4989 C   0  0  0  0  0  0
   13.3779   42.7521   65.9351 C   0  0  0  0  0  0
   14.5620   43.5291   65.9059 C   0  0  0  0  0  0
   18.0564   43.0159   67.4543 C   0  0  0  0  0  0
   18.8460   43.4303   68.7283 C   0  0  0  0  0  0
   20.0273   42.4173   71.0370 H   0  0  0  0  0  0
   20.1398   42.9037   72.6907 H   0  0  0  0  0  0
   20.3575   44.1001   71.4270 H   0  0  0  0  0  0
   17.6749   41.5529   71.0161 H   0  0  0  0  0  0
   17.4600   41.7646   72.7394 H   0  0  0  0  0  0
   16.3177   42.4812   71.6203 H   0  0  0  0  0  0
   17.1935   44.5024   73.0538 H   0  0  0  0  0  0
   17.2370   46.4756   69.0179 H   0  0  0  0  0  0
   18.6706   46.1698   68.0523 H   0  0  0  0  0  0
   16.5229   45.8806   66.7452 H   0  0  0  0  0  0
   16.0575   44.6138   67.8578 H   0  0  0  0  0  0
   16.9223   44.6857   64.7412 H   0  0  0  0  0  0
   17.8001   43.2030   64.7495 H   0  0  0  0  0  0
   16.4117   41.4840   63.9943 H   0  0  0  0  0  0
   12.3230   39.6250   65.1402 H   0  0  0  0  0  0
    8.6953   38.0904   66.1251 H   0  0  0  0  0  0
    7.7794   36.9185   68.0889 H   0  0  0  0  0  0
    8.5017   40.4963   70.3400 H   0  0  0  0  0  0
    8.1217   35.6329   70.0200 H   0  0  0  0  0  0
    8.6211   35.1877   72.6060 H   0  0  0  0  0  0
    8.2882   39.1946   72.1704 H   0  0  0  0  0  0
   10.1715   42.7383   67.1420 H   0  0  0  0  0  0
   12.0880   44.2158   66.7412 H   0  0  0  0  0  0
   14.5407   44.5068   66.3485 H   0  0  0  0  0  0
   18.6211   42.2846   66.8754 H   0  0  0  0  0  0
   17.1211   42.5626   67.7768 H   0  0  0  0  0  0
   19.8631   43.7050   68.4486 H   0  0  0  0  0  0
   18.8814   42.5400   69.3476 H   0  0  0  0  0  0
  1  2  1  0  0  0
  1 36  1  0  0  0
  1 37  1  0  0  0
  1 38  1  0  0  0
  2  3  1  0  0  0
  2  4  1  0  0  0
  2  5  1  0  0  0
  3 39  1  0  0  0
  3 40  1  0  0  0
  3 41  1  0  0  0
  4 42  1  0  0  0
  5  6  2  0  0  0
  5  7  1  0  0  0
  7  8  1  0  0  0
  7 35  1  0  0  0
  8  9  1  0  0  0
  8 43  1  0  0  0
  8 44  1  0  0  0
  9 10  1  0  0  0
  9 45  1  0  0  0
  9 46  1  0  0  0
 10 11  1  0  0  0
 10 34  1  0  0  0
 11 12  1  0  0  0
 11 47  1  0  0  0
 11 48  1  0  0  0
 12 13  2  0  0  0
 12 33  1  0  0  0
 13 14  1  0  0  0
 13 49  1  0  0  0
 14 15  2  0  0  0
 15 16  1  0  0  0
 15 32  1  0  0  0
 16 17  2  0  0  0
 16 50  1  0  0  0
 17 18  1  0  0  0
 17 30  1  0  0  0
 18 19  1  0  0  0
 19 20  2  0  0  0
 19 24  1  0  0  0
 20 21  1  0  0  0
 20 51  1  0  0  0
 21 22  2  0  0  0
 21 52  1  0  0  0
 22 23  1  0  0  0
 22 25  1  0  0  0
 23 24  2  0  0  0
 23 53  1  0  0  0
 25 26  2  0  0  0
 25 29  1  0  0  0
 26 27  1  0  0  0
 26 54  1  0  0  0
 27 28  2  0  0  0
 27 55  1  0  0  0
 28 29  1  0  0  0
 29 56  1  0  0  0
 30 31  2  0  0  0
 30 57  1  0  0  0
 31 32  1  0  0  0
 31 58  1  0  0  0
 32 33  2  0  0  0
 33 59  1  0  0  0
 34 35  1  0  0  0
 34 60  1  0  0  0
 34 61  1  0  0  0
 35 62  1  0  0  0
 35 63  1  0  0  0
M  END
> <s_m_entry_id>
7025

> <s_m_entry_name>
dock_pv.455

> <s_m_Source_Path>
/home/csk/Desktop/cluster/DUD-E-result/lkha4

> <s_m_Source_File>
dock_pv.maegz

> <i_m_Source_File_Index>
455

> <chembl_id>
CHEMBL3908055

> <chembl_pref_name>
None

> <i_lp_mmshare_version>
53161

> <i_f3d_flags>
0

> <r_lp_tautomer_probability>
0.5

> <s_lp_Force_Field>
OPLS_2005

> <r_lp_Energy>
57.343911

> <b_lp_Chiralities_Consistent>
1

> <s_lp_Variant>
CHEMBL4618_lig481-1

> <s_i_glide_gridfile>
glide-grid_3chp

> <i_i_glide_lignum>
577

> <i_i_glide_rotatable_bonds>
8

> <r_i_docking_score>
-7.7443094539823

> <r_i_glide_ligand_efficiency>
-0.221265984399494

> <r_i_glide_ligand_efficiency_sa>
-0.723775706302141

> <r_i_glide_ligand_efficiency_ln>
-1.70004780083703

> <r_i_glide_gscore>
-7.7443094539823

> <r_i_glide_lipo>
-4.64905209742739

> <r_i_glide_hbond>
-0.00918434546296901

> <r_i_glide_metal>
0

> <r_i_glide_rewards>
-0.925162169821917

> <r_i_glide_evdw>
-50.2019004821777

> <r_i_glide_ecoul>
-1.46575093269348

> <r_i_glide_erotb>
0.633901129431915

> <r_i_glide_esite>
-0.0648543066890293

> <r_i_glide_emodel>
-49.0732975963448

> <r_i_glide_energy>
-51.6676514148712

> <r_i_glide_einternal>
18.2723217010498

> <i_i_glide_confnum>
2

> <i_i_glide_posenum>
292

> <r_i_glide_eff_state_penalty>
0

> <s_user_duplicate_titles>
CHEMBL4618_lig481,CHEMBL4618_lig481

> <s_m_subgroup_title>
dock_pv

> <s_m_subgroupid>
dock_pv

> <b_m_subgroup_collapsed>
1

$$$$
CHEMBL4618_lig243
                    3D
 Schrodinger Suite 2021-1.
 65 67  0  0  1  0            999 V2000
   16.3970   43.2511   65.2852 C   0  0  0  0  0  0
   15.5063   43.8161   66.1961 C   0  0  0  0  0  0
   14.2182   43.3088   66.3208 C   0  0  0  0  0  0
   13.8165   42.2161   65.5400 C   0  0  0  0  0  0
   14.6901   41.6936   64.5810 C   0  0  0  0  0  0
   15.9773   42.2161   64.4472 C   0  0  0  0  0  0
   12.6191   41.5181   65.7826 N   0  0  0  0  0  0
   11.4792   41.9825   66.3400 C   0  0  0  0  0  0
   10.4857   40.8873   66.7911 C   0  0  0  0  0  0
   11.2451   43.1779   66.5067 O   0  0  0  0  0  0
    9.3226   41.3709   67.5353 N   0  0  1  0  0  0
   17.6689   43.7558   65.1586 O   0  0  0  0  0  0
   18.6640   43.4059   66.0493 C   0  0  0  0  0  0
   18.4501   43.2218   67.4235 C   0  0  0  0  0  0
   19.5157   42.8971   68.2605 C   0  0  0  0  0  0
   20.7965   42.7573   67.7298 C   0  0  0  0  0  0
   21.0208   42.9448   66.3685 C   0  0  0  0  0  0
   19.9547   43.2764   65.5378 C   0  0  0  0  0  0
    8.3248   42.1038   66.7591 C   0  0  0  0  0  0
    8.6665   40.3327   68.3412 C   0  0  0  0  0  0
    8.4437   38.9705   67.6281 C   0  0  0  0  0  0
    7.5130   37.9940   68.3644 C   0  0  0  0  0  0
    7.9119   37.8620   69.7699 N   0  0  2  0  0  0
    8.2194   36.4831   70.1118 C   0  0  0  0  0  0
    6.9212   38.4085   70.6844 C   0  0  0  0  0  0
    8.9204   36.2833   71.4481 C   0  0  0  0  0  0
    9.0274   34.9869   71.9400 C   0  0  0  0  0  0
    9.7214   34.7398   73.1100 C   0  0  0  0  0  0
   10.2388   35.8031   73.8426 C   0  0  0  0  0  0
   10.1387   37.1021   73.3483 C   0  0  0  0  0  0
    9.5144   37.3410   72.1394 C   0  0  0  0  0  0
   10.9210   35.5348   75.1400 C   0  0  0  0  0  0
   11.0697   36.6180   75.9400 O   0  0  0  0  0  0
   11.3212   34.4235   75.4579 O   0  0  0  0  0  0
   22.1149   42.3540   68.7672 Cl  0  0  0  0  0  0
   15.8204   44.6315   66.8270 H   0  0  0  0  0  0
   13.5719   43.7265   67.0776 H   0  0  0  0  0  0
   14.3776   40.8792   63.9411 H   0  0  0  0  0  0
   16.6428   41.8532   63.6759 H   0  0  0  0  0  0
   12.6439   40.5339   65.5597 H   0  0  0  0  0  0
   10.1870   40.2827   65.9400 H   0  0  0  0  0  0
   11.0403   40.2188   67.4443 H   0  0  0  0  0  0
   17.4689   43.3265   67.8581 H   0  0  0  0  0  0
   19.3463   42.7473   69.3169 H   0  0  0  0  0  0
   22.0130   42.8281   65.9560 H   0  0  0  0  0  0
   20.1208   43.4157   64.4776 H   0  0  0  0  0  0
    7.6548   42.6507   67.4243 H   0  0  0  0  0  0
    8.7727   42.8325   66.0840 H   0  0  0  0  0  0
    7.7212   41.4169   66.1737 H   0  0  0  0  0  0
    9.3132   40.1480   69.1964 H   0  0  0  0  0  0
    7.7439   40.7037   68.7915 H   0  0  0  0  0  0
    8.1212   39.1085   66.5961 H   0  0  0  0  0  0
    9.3951   38.4484   67.5443 H   0  0  0  0  0  0
    6.4994   38.3608   68.2776 H   0  0  0  0  0  0
    7.5165   37.0252   67.8578 H   0  0  0  0  0  0
    7.3330   35.8509   70.0369 H   0  0  0  0  0  0
    8.9204   36.1594   69.3579 H   0  0  0  0  0  0
    7.2947   38.5128   71.7010 H   0  0  0  0  0  0
    6.6855   39.4078   70.3396 H   0  0  0  0  0  0
    6.0109   37.8160   70.7393 H   0  0  0  0  0  0
    8.5872   34.1583   71.4058 H   0  0  0  0  0  0
    9.8072   33.7228   73.4664 H   0  0  0  0  0  0
   10.5679   37.9362   73.8828 H   0  0  0  0  0  0
    9.4890   38.3476   71.7512 H   0  0  0  0  0  0
   11.3210   36.2950   76.8218 H   0  0  0  0  0  0
  1 12  1  0  0  0
  1  6  1  0  0  0
  1  2  2  0  0  0
  2  3  1  0  0  0
  2 36  1  0  0  0
  3  4  2  0  0  0
  3 37  1  0  0  0
  4  5  1  0  0  0
  4  7  1  0  0  0
  5  6  2  0  0  0
  5 38  1  0  0  0
  6 39  1  0  0  0
  7  8  1  0  0  0
  7 40  1  0  0  0
  8  9  1  0  0  0
  8 10  2  0  0  0
  9 11  1  0  0  0
  9 41  1  0  0  0
  9 42  1  0  0  0
 11 19  1  0  0  0
 11 20  1  0  0  0
 12 13  1  0  0  0
 13 14  2  0  0  0
 13 18  1  0  0  0
 14 15  1  0  0  0
 14 43  1  0  0  0
 15 16  2  0  0  0
 15 44  1  0  0  0
 16 17  1  0  0  0
 16 35  1  0  0  0
 17 18  2  0  0  0
 17 45  1  0  0  0
 18 46  1  0  0  0
 19 47  1  0  0  0
 19 48  1  0  0  0
 19 49  1  0  0  0
 20 21  1  0  0  0
 20 50  1  0  0  0
 20 51  1  0  0  0
 21 22  1  0  0  0
 21 52  1  0  0  0
 21 53  1  0  0  0
 22 23  1  0  0  0
 22 54  1  0  0  0
 22 55  1  0  0  0
 23 24  1  0  0  0
 23 25  1  0  0  0
 24 26  1  0  0  0
 24 56  1  0  0  0
 24 57  1  0  0  0
 25 58  1  0  0  0
 25 59  1  0  0  0
 25 60  1  0  0  0
 26 27  2  0  0  0
 26 31  1  0  0  0
 27 28  1  0  0  0
 27 61  1  0  0  0
 28 29  2  0  0  0
 28 62  1  0  0  0
 29 30  1  0  0  0
 29 32  1  0  0  0
 30 31  2  0  0  0
 30 63  1  0  0  0
 31 64  1  0  0  0
 32 33  1  0  0  0
 32 34  2  0  0  0
 33 65  1  0  0  0
M  END
> <s_m_entry_id>
7026

> <s_m_entry_name>
dock_pv.456

> <s_m_Source_Path>
/home/csk/Desktop/cluster/DUD-E-result/lkha4

> <s_m_Source_File>
dock_pv.maegz

> <i_m_Source_File_Index>
456

> <chembl_id>
CHEMBL471781

> <chembl_pref_name>
None

> <i_lp_mmshare_version>
53161

> <i_f3d_flags>
0

> <r_lp_tautomer_probability>
1

> <s_lp_Force_Field>
OPLS_2005

> <r_lp_Energy>
40.563511

> <b_lp_Chiralities_Consistent>
1

> <s_lp_Variant>
CHEMBL4618_lig243-1

> <s_i_glide_gridfile>
glide-grid_3chp

> <i_i_glide_lignum>
279

> <i_i_glide_rotatable_bonds>
14

> <r_i_docking_score>
-7.7321997780725

> <r_i_glide_ligand_efficiency>
-0.220919993659214

> <r_i_glide_ligand_efficiency_sa>
-0.722643947649316

> <r_i_glide_ligand_efficiency_ln>
-1.69738945821505

> <r_i_glide_gscore>
-7.7321997780725

> <r_i_glide_lipo>
-4.15172761423799

> <r_i_glide_hbond>
0

> <r_i_glide_metal>
0

> <r_i_glide_rewards>
-0.757543828307581

> <r_i_glide_evdw>
-58.6553688049316

> <r_i_glide_ecoul>
-6.45054054260254

> <r_i_glide_erotb>
1.07742118611004

> <r_i_glide_esite>
0

> <r_i_glide_emodel>
-82.0304080978325

> <r_i_glide_energy>
-65.1059093475342

> <r_i_glide_einternal>
20.8858737945557

> <i_i_glide_confnum>
99

> <i_i_glide_posenum>
386

> <r_i_glide_eff_state_penalty>
0

> <s_user_duplicate_titles>
CHEMBL4618_lig243,466915

> <s_m_subgroup_title>
dock_pv

> <s_m_subgroupid>
dock_pv

> <b_m_subgroup_collapsed>
1

$$$$
CHEMBL4618_lig388
                    3D
 Schrodinger Suite 2021-1.
 42 44  0  0  1  0            999 V2000
   14.6364   42.6321   65.3799 N   0  0  0  0  0  0
   14.7197   42.3989   63.9403 C   0  0  0  0  0  0
   16.2037   42.1941   63.6272 C   0  0  0  0  0  0
   16.9290   42.7159   64.8714 C   0  0  0  0  0  0
   15.8290   43.4128   65.6672 C   0  0  0  0  0  0
   13.3993   43.3003   65.8070 C   0  0  0  0  0  0
   12.1489   42.4837   65.4331 C   0  0  0  0  0  0
   10.9969   42.9656   66.1318 O   0  0  0  0  0  0
   10.1050   42.0974   66.7399 C   0  0  0  0  0  0
    9.0331   42.6835   67.4138 C   0  0  0  0  0  0
    8.1415   41.9139   68.1559 C   0  0  0  0  0  0
    8.3129   40.5351   68.2237 C   0  0  0  0  0  0
    9.3214   39.9242   67.4772 C   0  0  0  0  0  0
   10.2083   40.6991   66.7401 C   0  0  0  0  0  0
    7.4331   39.8051   68.9826 O   0  0  0  0  0  0
    7.9075   38.7688   69.7468 C   0  0  0  0  0  0
    8.5209   39.0159   70.9732 C   0  0  0  0  0  0
    8.9062   37.9649   71.7995 C   0  0  0  0  0  0
    8.7001   36.6611   71.3738 C   0  0  0  0  0  0
    8.1211   36.4196   70.1331 C   0  0  0  0  0  0
    7.7211   37.4647   69.3137 C   0  0  0  0  0  0
    9.0877   35.6268   72.1530 F   0  0  0  0  0  0
   14.2932   43.2206   63.3624 H   0  0  0  0  0  0
   14.1249   41.5244   63.6725 H   0  0  0  0  0  0
   16.4858   42.7627   62.7403 H   0  0  0  0  0  0
   16.4313   41.1523   63.4168 H   0  0  0  0  0  0
   17.3895   41.9183   65.4542 H   0  0  0  0  0  0
   17.7247   43.4159   64.6139 H   0  0  0  0  0  0
   16.0092   43.4158   66.7428 H   0  0  0  0  0  0
   15.7082   44.4596   65.3903 H   0  0  0  0  0  0
   13.4240   43.4404   66.8889 H   0  0  0  0  0  0
   13.3312   44.2924   65.3583 H   0  0  0  0  0  0
   11.9535   42.6164   64.3697 H   0  0  0  0  0  0
   12.3823   41.4339   65.5837 H   0  0  0  0  0  0
    8.9000   43.7540   67.3740 H   0  0  0  0  0  0
    7.3241   42.3861   68.6856 H   0  0  0  0  0  0
    9.4292   38.8495   67.4760 H   0  0  0  0  0  0
   10.9654   40.1715   66.1891 H   0  0  0  0  0  0
    8.6149   40.0306   71.3069 H   0  0  0  0  0  0
    9.3447   38.1579   72.7669 H   0  0  0  0  0  0
    8.0227   35.4161   69.7855 H   0  0  0  0  0  0
    7.2716   37.2729   68.3517 H   0  0  0  0  0  0
  1  2  1  0  0  0
  1  5  1  0  0  0
  1  6  1  0  0  0
  2  3  1  0  0  0
  2 23  1  0  0  0
  2 24  1  0  0  0
  3  4  1  0  0  0
  3 25  1  0  0  0
  3 26  1  0  0  0
  4  5  1  0  0  0
  4 27  1  0  0  0
  4 28  1  0  0  0
  5 29  1  0  0  0
  5 30  1  0  0  0
  6  7  1  0  0  0
  6 31  1  0  0  0
  6 32  1  0  0  0
  7  8  1  0  0  0
  7 33  1  0  0  0
  7 34  1  0  0  0
  8  9  1  0  0  0
  9 10  1  0  0  0
  9 14  2  0  0  0
 10 11  2  0  0  0
 10 35  1  0  0  0
 11 12  1  0  0  0
 11 36  1  0  0  0
 12 13  2  0  0  0
 12 15  1  0  0  0
 13 14  1  0  0  0
 13 37  1  0  0  0
 14 38  1  0  0  0
 15 16  1  0  0  0
 16 17  1  0  0  0
 16 21  2  0  0  0
 17 18  2  0  0  0
 17 39  1  0  0  0
 18 19  1  0  0  0
 18 40  1  0  0  0
 19 20  2  0  0  0
 19 22  1  0  0  0
 20 21  1  0  0  0
 20 41  1  0  0  0
 21 42  1  0  0  0
M  END
> <s_m_entry_id>
7027

> <s_m_entry_name>
dock_pv.457

> <s_m_Source_Path>
/home/csk/Desktop/cluster/DUD-E-result/lkha4

> <s_m_Source_File>
dock_pv.maegz

> <i_m_Source_File_Index>
457

> <chembl_id>
CHEMBL1775102

> <chembl_pref_name>
None

> <i_lp_mmshare_version>
53161

> <i_f3d_flags>
0

> <r_lp_tautomer_probability>
1

> <s_lp_Force_Field>
OPLS_2005

> <r_lp_Energy>
39.234845

> <b_lp_Chiralities_Consistent>
1

> <s_lp_Variant>
CHEMBL4618_lig388-1

> <s_i_glide_gridfile>
glide-grid_3chp

> <i_i_glide_lignum>
449

> <i_i_glide_rotatable_bonds>
6

> <r_i_docking_score>
-7.719511313817

> <r_i_glide_ligand_efficiency>
-0.350886877900772

> <r_i_glide_ligand_efficiency_sa>
-0.983198831475803

> <r_i_glide_ligand_efficiency_ln>
-1.88693014111357

> <r_i_glide_gscore>
-7.719511313817

> <r_i_glide_lipo>
-4.20657496901628

> <r_i_glide_hbond>
-0.00278092009140154

> <r_i_glide_metal>
0

> <r_i_glide_rewards>
-1.87939545082435

> <r_i_glide_evdw>
-40.0861740112305

> <r_i_glide_ecoul>
-4.26174592971802

> <r_i_glide_erotb>
1.01281061613426

> <r_i_glide_esite>
0

> <r_i_glide_emodel>
-64.0279586710215

> <r_i_glide_energy>
-44.3479199409485

> <r_i_glide_einternal>
6.24152565002441

> <i_i_glide_confnum>
3

> <i_i_glide_posenum>
118

> <r_i_glide_eff_state_penalty>
0

> <s_user_duplicate_titles>
CHEMBL4618_lig388

> <s_m_subgroup_title>
dock_pv

> <s_m_subgroupid>
dock_pv

> <b_m_subgroup_collapsed>
1

$$$$
CHEMBL4618_lig111
                    3D
 Schrodinger Suite 2021-1.
 46 48  0  0  1  0            999 V2000
   10.8990   42.6899   65.6478 N   0  0  0  0  0  0
    7.8949   36.9190   70.5313 N   0  0  0  0  0  0
    8.1368   37.9819   69.6467 C   0  0  0  0  0  0
    7.9735   37.0135   71.9914 C   0  0  0  0  0  0
    8.5640   40.0330   67.7727 C   0  0  0  0  0  0
    8.3723   39.2897   70.0664 C   0  0  0  0  0  0
    8.1224   37.7082   68.2839 C   0  0  0  0  0  0
    8.3769   38.7150   67.3547 C   0  0  0  0  0  0
    8.5209   40.3147   69.1407 C   0  0  0  0  0  0
    8.7813   40.9834   66.7926 O   0  0  0  0  0  0
    9.0411   36.0991   72.5868 C   0  0  0  0  0  0
    9.5657   43.1742   66.0229 C   0  0  0  0  0  0
    8.9118   42.3612   67.1571 C   0  0  0  0  0  0
   11.8625   42.5689   66.7294 C   0  0  0  0  0  0
   11.5834   43.5426   64.6889 C   0  0  0  0  0  0
    9.3328   34.8506   72.0281 C   0  0  0  0  0  0
    9.6536   36.4700   73.7850 C   0  0  0  0  0  0
   13.0411   43.0828   64.6850 C   0  0  0  0  0  0
   13.2191   42.4047   66.0452 C   0  0  0  0  0  0
   10.2590   34.0073   72.6356 C   0  0  0  0  0  0
   10.5556   35.6191   74.4121 C   0  0  0  0  0  0
   10.8679   34.3945   73.8282 C   0  0  0  0  0  0
    7.7123   36.0029   70.1391 H   0  0  0  0  0  0
    8.1372   38.0267   72.3494 H   0  0  0  0  0  0
    7.0106   36.7171   72.4055 H   0  0  0  0  0  0
    8.3964   39.5612   71.1070 H   0  0  0  0  0  0
    7.9529   36.7022   67.9405 H   0  0  0  0  0  0
    8.4026   38.4820   66.2999 H   0  0  0  0  0  0
    8.6335   41.3123   69.5363 H   0  0  0  0  0  0
    9.6236   44.2158   66.3401 H   0  0  0  0  0  0
    8.9218   43.1469   65.1405 H   0  0  0  0  0  0
    9.5218   42.4976   68.0501 H   0  0  0  0  0  0
    7.9243   42.7670   67.3841 H   0  0  0  0  0  0
   11.5939   41.6903   67.3178 H   0  0  0  0  0  0
   11.8277   43.4155   67.4207 H   0  0  0  0  0  0
   11.4866   44.5995   64.9426 H   0  0  0  0  0  0
   11.1078   43.4204   63.7170 H   0  0  0  0  0  0
    8.8236   34.5167   71.1401 H   0  0  0  0  0  0
    9.4173   37.4158   74.2409 H   0  0  0  0  0  0
   13.7156   43.9325   64.5629 H   0  0  0  0  0  0
   13.2379   42.3909   63.8629 H   0  0  0  0  0  0
   13.4702   41.3479   65.9323 H   0  0  0  0  0  0
   14.0087   42.8727   66.6323 H   0  0  0  0  0  0
   10.4780   33.0415   72.2032 H   0  0  0  0  0  0
   11.0171   35.9060   75.3490 H   0  0  0  0  0  0
   11.5675   33.7256   74.3123 H   0  0  0  0  0  0
  1 12  1  0  0  0
  1 14  1  0  0  0
  1 15  1  0  0  0
  2  3  1  0  0  0
  2  4  1  0  0  0
  2 23  1  0  0  0
  3  6  1  0  0  0
  3  7  2  0  0  0
  4 11  1  0  0  0
  4 24  1  0  0  0
  4 25  1  0  0  0
  5 10  1  0  0  0
  5  8  2  0  0  0
  5  9  1  0  0  0
  6  9  2  0  0  0
  6 26  1  0  0  0
  7  8  1  0  0  0
  7 27  1  0  0  0
  8 28  1  0  0  0
  9 29  1  0  0  0
 10 13  1  0  0  0
 11 16  2  0  0  0
 11 17  1  0  0  0
 12 13  1  0  0  0
 12 30  1  0  0  0
 12 31  1  0  0  0
 13 32  1  0  0  0
 13 33  1  0  0  0
 14 19  1  0  0  0
 14 34  1  0  0  0
 14 35  1  0  0  0
 15 18  1  0  0  0
 15 36  1  0  0  0
 15 37  1  0  0  0
 16 20  1  0  0  0
 16 38  1  0  0  0
 17 21  2  0  0  0
 17 39  1  0  0  0
 18 19  1  0  0  0
 18 40  1  0  0  0
 18 41  1  0  0  0
 19 42  1  0  0  0
 19 43  1  0  0  0
 20 22  2  0  0  0
 20 44  1  0  0  0
 21 22  1  0  0  0
 21 45  1  0  0  0
 22 46  1  0  0  0
M  END
> <s_m_entry_id>
7028

> <s_m_entry_name>
dock_pv.458

> <s_m_Source_Path>
/home/csk/Desktop/cluster/DUD-E-result/lkha4

> <s_m_Source_File>
dock_pv.maegz

> <i_m_Source_File_Index>
458

> <chembl_id>
CHEMBL162439

> <chembl_pref_name>
None

> <i_lp_mmshare_version>
53161

> <i_f3d_flags>
0

> <r_lp_tautomer_probability>
1

> <s_lp_Force_Field>
OPLS_2005

> <r_lp_Energy>
38.640132

> <b_lp_Chiralities_Consistent>
1

> <s_lp_Variant>
CHEMBL4618_lig111-1

> <s_i_glide_gridfile>
glide-grid_3chp

> <i_i_glide_lignum>
137

> <i_i_glide_rotatable_bonds>
7

> <r_i_docking_score>
-7.70713257641888

> <r_i_glide_ligand_efficiency>
-0.35032420801904

> <r_i_glide_ligand_efficiency_sa>
-0.981622208338638

> <r_i_glide_ligand_efficiency_ln>
-1.88390432616805

> <r_i_glide_gscore>
-7.70713257641888

> <r_i_glide_lipo>
-5.70182478094082

> <r_i_glide_hbond>
0

> <r_i_glide_metal>
0

> <r_i_glide_rewards>
-1.88811601086266

> <r_i_glide_evdw>
-43.4379920959473

> <r_i_glide_ecoul>
-2.98314332962036

> <r_i_glide_erotb>
2.50217931962501

> <r_i_glide_esite>
0

> <r_i_glide_emodel>
-66.2876119031208

> <r_i_glide_energy>
-46.4211354255676

> <r_i_glide_einternal>
3.59198307991028

> <i_i_glide_confnum>
43

> <i_i_glide_posenum>
348

> <r_i_glide_eff_state_penalty>
0

> <s_user_duplicate_titles>
CHEMBL4618_lig111,271257

> <s_m_subgroup_title>
dock_pv

> <s_m_subgroupid>
dock_pv

> <b_m_subgroup_collapsed>
1

$$$$
CHEMBL4618_lig97
                    3D
 Schrodinger Suite 2021-1.
 52 53  0  0  1  0            999 V2000
   13.6432   42.5935   65.4963 N   0  0  0  0  0  0
   13.5990   41.4131   64.6328 C   0  0  0  0  0  0
   14.3131   43.7179   64.8489 C   0  0  0  0  0  0
    8.2171   39.4755   68.2899 C   0  0  0  0  0  0
    7.6030   38.1635   68.7705 C   0  0  0  0  0  0
    9.4282   41.8206   67.2987 C   0  0  0  0  0  0
    9.0958   39.4147   67.2248 C   0  0  0  0  0  0
    7.8570   40.7309   68.7923 C   0  0  0  0  0  0
    8.4848   41.8923   68.3261 C   0  0  0  0  0  0
    9.6707   40.5691   66.7400 C   0  0  0  0  0  0
    8.0983   37.5988   70.1045 C   0  0  0  0  0  0
   10.0420   42.9889   66.8682 O   0  0  0  0  0  0
   12.4920   42.9017   66.3958 C   0  0  0  0  0  0
   11.0393   42.9850   65.8261 C   0  0  0  0  0  0
   15.3803   44.2092   65.8473 C   0  0  0  0  0  0
   13.0486   40.2406   65.4302 C   0  0  0  0  0  0
   13.2908   44.6458   64.1837 C   0  0  0  0  0  0
   15.0087   41.0058   64.1153 C   0  0  0  0  0  0
    8.5349   38.4049   71.1557 C   0  0  0  0  0  0
    8.1210   36.2163   70.2677 C   0  0  0  0  0  0
    8.9754   37.8160   72.3393 C   0  0  0  0  0  0
    8.5301   35.6304   71.4627 C   0  0  0  0  0  0
    8.9660   36.4380   72.5002 C   0  0  0  0  0  0
   12.9552   41.6508   63.7888 H   0  0  0  0  0  0
   14.8899   43.4160   63.9896 H   0  0  0  0  0  0
    6.5221   38.2159   68.7464 H   0  0  0  0  0  0
    7.8077   37.4066   68.0102 H   0  0  0  0  0  0
    9.3210   38.4729   66.7455 H   0  0  0  0  0  0
    7.0916   40.8100   69.5400 H   0  0  0  0  0  0
    8.2185   42.8529   68.7428 H   0  0  0  0  0  0
   10.2260   40.4469   65.8442 H   0  0  0  0  0  0
   12.4873   42.1229   67.1400 H   0  0  0  0  0  0
   12.7088   43.8118   66.9545 H   0  0  0  0  0  0
   10.8774   43.9235   65.3052 H   0  0  0  0  0  0
   10.8544   42.2347   65.0680 H   0  0  0  0  0  0
   16.1210   44.8877   65.4125 H   0  0  0  0  0  0
   14.9230   44.6160   66.7411 H   0  0  0  0  0  0
   15.9758   43.3638   66.1935 H   0  0  0  0  0  0
   12.9019   39.3793   64.7895 H   0  0  0  0  0  0
   12.1220   40.4359   65.9147 H   0  0  0  0  0  0
   13.7210   40.0152   66.2555 H   0  0  0  0  0  0
   13.7209   45.4876   63.6556 H   0  0  0  0  0  0
   12.7138   44.0922   63.4443 H   0  0  0  0  0  0
   12.5839   45.0160   64.9000 H   0  0  0  0  0  0
   14.9276   40.0826   63.5400 H   0  0  0  0  0  0
   15.4917   41.6903   63.4242 H   0  0  0  0  0  0
   15.6896   40.8616   64.9516 H   0  0  0  0  0  0
    8.5340   39.4805   71.0717 H   0  0  0  0  0  0
    7.7927   35.6012   69.4486 H   0  0  0  0  0  0
    9.3209   38.4381   73.1400 H   0  0  0  0  0  0
    8.5198   34.5555   71.5696 H   0  0  0  0  0  0
    9.2981   35.9975   73.4289 H   0  0  0  0  0  0
  1  2  1  0  0  0
  1  3  1  0  0  0
  1 13  1  0  0  0
  2 16  1  0  0  0
  2 18  1  0  0  0
  2 24  1  0  0  0
  3 15  1  0  0  0
  3 17  1  0  0  0
  3 25  1  0  0  0
  4  7  1  0  0  0
  4  5  1  0  0  0
  4  8  2  0  0  0
  5 11  1  0  0  0
  5 26  1  0  0  0
  5 27  1  0  0  0
  6 12  1  0  0  0
  6  9  2  0  0  0
  6 10  1  0  0  0
  7 10  2  0  0  0
  7 28  1  0  0  0
  8  9  1  0  0  0
  8 29  1  0  0  0
  9 30  1  0  0  0
 10 31  1  0  0  0
 11 19  2  0  0  0
 11 20  1  0  0  0
 12 14  1  0  0  0
 13 14  1  0  0  0
 13 32  1  0  0  0
 13 33  1  0  0  0
 14 34  1  0  0  0
 14 35  1  0  0  0
 15 36  1  0  0  0
 15 37  1  0  0  0
 15 38  1  0  0  0
 16 39  1  0  0  0
 16 40  1  0  0  0
 16 41  1  0  0  0
 17 42  1  0  0  0
 17 43  1  0  0  0
 17 44  1  0  0  0
 18 45  1  0  0  0
 18 46  1  0  0  0
 18 47  1  0  0  0
 19 21  1  0  0  0
 19 48  1  0  0  0
 20 22  2  0  0  0
 20 49  1  0  0  0
 21 23  2  0  0  0
 21 50  1  0  0  0
 22 23  1  0  0  0
 22 51  1  0  0  0
 23 52  1  0  0  0
M  END
> <s_m_entry_id>
7029

> <s_m_entry_name>
dock_pv.459

> <s_m_Source_Path>
/home/csk/Desktop/cluster/DUD-E-result/lkha4

> <s_m_Source_File>
dock_pv.maegz

> <i_m_Source_File_Index>
459

> <chembl_id>
CHEMBL164168

> <chembl_pref_name>
None

> <i_lp_mmshare_version>
53161

> <i_f3d_flags>
0

> <r_lp_tautomer_probability>
1

> <s_lp_Force_Field>
OPLS_2005

> <r_lp_Energy>
29.999265

> <b_lp_Chiralities_Consistent>
1

> <s_lp_Variant>
CHEMBL4618_lig97-1

> <s_i_glide_gridfile>
glide-grid_3chp

> <i_i_glide_lignum>
120

> <i_i_glide_rotatable_bonds>
8

> <r_i_docking_score>
-7.70266137609799

> <r_i_glide_ligand_efficiency>
-0.334898320699913

> <r_i_glide_ligand_efficiency_sa>
-0.9524062748508

> <r_i_glide_ligand_efficiency_ln>
-1.86257336461233

> <r_i_glide_gscore>
-7.70266137609799

> <r_i_glide_lipo>
-4.85157440740051

> <r_i_glide_hbond>
0

> <r_i_glide_metal>
0

> <r_i_glide_rewards>
-2.18548742248966

> <r_i_glide_evdw>
-31.4536075592041

> <r_i_glide_ecoul>
-1.59983825683594

> <r_i_glide_erotb>
1.14705657027778

> <r_i_glide_esite>
0

> <r_i_glide_emodel>
-28.5506440062907

> <r_i_glide_energy>
-33.05344581604

> <r_i_glide_einternal>
9.13335037231445

> <i_i_glide_confnum>
129

> <i_i_glide_posenum>
111

> <r_i_glide_eff_state_penalty>
0

> <s_user_duplicate_titles>
CHEMBL4618_lig97,272035

> <s_m_subgroup_title>
dock_pv

> <s_m_subgroupid>
dock_pv

> <b_m_subgroup_collapsed>
1

$$$$
CHEMBL4618_lig82
                    3D
 Schrodinger Suite 2021-1.
 40 42  0  0  1  0            999 V2000
    8.2402   38.7807   69.6582 C   0  0  0  0  0  0
    8.9213   39.1181   70.7197 N   0  0  0  0  0  0
    7.7211   37.1350   69.6358 S   0  0  0  0  0  0
    8.5517   36.8665   71.1562 C   0  0  0  0  0  0
    9.1137   38.0871   71.5142 C   0  0  0  0  0  0
    9.4698   42.1268   67.2391 N   0  0  0  0  0  0
    8.5811   35.5214   71.8551 C   0  0  0  0  0  0
    7.9234   39.5581   68.5676 O   0  0  0  0  0  0
    9.6275   35.3287   72.9569 C   0  0  0  0  0  0
    8.0726   41.7574   67.4727 C   0  0  0  0  0  0
    7.8515   40.9725   68.7809 C   0  0  0  0  0  0
    9.6100   42.9955   66.0789 C   0  0  0  0  0  0
   10.3471   41.0050   66.9334 C   0  0  0  0  0  0
   10.4762   34.2171   72.9082 C   0  0  0  0  0  0
    9.6493   36.1677   74.0783 C   0  0  0  0  0  0
   11.5914   41.6416   66.3072 C   0  0  0  0  0  0
   11.0975   42.9710   65.7325 C   0  0  0  0  0  0
   11.3205   33.9328   73.9782 C   0  0  0  0  0  0
   10.5098   35.8960   75.1391 C   0  0  0  0  0  0
   11.3210   34.7660   75.0942 C   0  0  0  0  0  0
    9.7058   38.2163   72.4050 H   0  0  0  0  0  0
    7.6179   35.4141   72.3402 H   0  0  0  0  0  0
    8.6413   34.7035   71.1398 H   0  0  0  0  0  0
    7.4659   42.6650   67.5054 H   0  0  0  0  0  0
    7.7210   41.1744   66.6224 H   0  0  0  0  0  0
    8.5413   41.3401   69.5400 H   0  0  0  0  0  0
    6.8468   41.1920   69.1405 H   0  0  0  0  0  0
    9.2569   43.9942   66.3404 H   0  0  0  0  0  0
    8.9819   42.6790   65.2453 H   0  0  0  0  0  0
    9.8772   40.2686   66.2785 H   0  0  0  0  0  0
   10.5709   40.4681   67.8559 H   0  0  0  0  0  0
   10.4506   33.5437   72.0637 H   0  0  0  0  0  0
    8.9748   37.0093   74.1522 H   0  0  0  0  0  0
   12.0192   40.9947   65.5403 H   0  0  0  0  0  0
   12.3630   41.8174   67.0535 H   0  0  0  0  0  0
   11.6162   43.8159   66.1870 H   0  0  0  0  0  0
   11.2535   43.0295   64.6556 H   0  0  0  0  0  0
   11.9498   33.0540   73.9564 H   0  0  0  0  0  0
   10.5148   36.5343   76.0106 H   0  0  0  0  0  0
   11.9537   34.5328   75.9380 H   0  0  0  0  0  0
  1  2  2  0  0  0
  1  3  1  0  0  0
  1  8  1  0  0  0
  2  5  1  0  0  0
  3  4  1  0  0  0
  4  7  1  0  0  0
  4  5  2  0  0  0
  5 21  1  0  0  0
  6 10  1  0  0  0
  6 12  1  0  0  0
  6 13  1  0  0  0
  7  9  1  0  0  0
  7 22  1  0  0  0
  7 23  1  0  0  0
  8 11  1  0  0  0
  9 14  1  0  0  0
  9 15  2  0  0  0
 10 11  1  0  0  0
 10 24  1  0  0  0
 10 25  1  0  0  0
 11 26  1  0  0  0
 11 27  1  0  0  0
 12 17  1  0  0  0
 12 28  1  0  0  0
 12 29  1  0  0  0
 13 16  1  0  0  0
 13 30  1  0  0  0
 13 31  1  0  0  0
 14 18  2  0  0  0
 14 32  1  0  0  0
 15 19  1  0  0  0
 15 33  1  0  0  0
 16 17  1  0  0  0
 16 34  1  0  0  0
 16 35  1  0  0  0
 17 36  1  0  0  0
 17 37  1  0  0  0
 18 20  1  0  0  0
 18 38  1  0  0  0
 19 20  2  0  0  0
 19 39  1  0  0  0
 20 40  1  0  0  0
M  END
> <s_m_entry_id>
7030

> <s_m_entry_name>
dock_pv.460

> <s_m_Source_Path>
/home/csk/Desktop/cluster/DUD-E-result/lkha4

> <s_m_Source_File>
dock_pv.maegz

> <i_m_Source_File_Index>
460

> <chembl_id>
CHEMBL163630

> <chembl_pref_name>
None

> <i_lp_mmshare_version>
53161

> <i_f3d_flags>
0

> <r_lp_tautomer_probability>
1

> <s_lp_Force_Field>
OPLS_2005

> <r_lp_Energy>
29.497431

> <b_lp_Chiralities_Consistent>
1

> <s_lp_Variant>
CHEMBL4618_lig82-1

> <s_i_glide_gridfile>
glide-grid_3chp

> <i_i_glide_lignum>
103

> <i_i_glide_rotatable_bonds>
6

> <r_i_docking_score>
-7.67951206974541

> <r_i_glide_ligand_efficiency>
-0.383975603487271

> <r_i_glide_ligand_efficiency_sa>
-1.04227014140772

> <r_i_glide_ligand_efficiency_ln>
-1.92192858379746

> <r_i_glide_gscore>
-7.67951206974541

> <r_i_glide_lipo>
-4.85183869634534

> <r_i_glide_hbond>
0

> <r_i_glide_metal>
0

> <r_i_glide_rewards>
-1.44266727272727

> <r_i_glide_evdw>
-45.18603515625

> <r_i_glide_ecoul>
-1.46169352531433

> <r_i_glide_erotb>
1.09354968593685

> <r_i_glide_esite>
0

> <r_i_glide_emodel>
-64.6429627451759

> <r_i_glide_energy>
-46.6477286815643

> <r_i_glide_einternal>
6.28733396530151

> <i_i_glide_confnum>
72

> <i_i_glide_posenum>
116

> <r_i_glide_eff_state_penalty>
0

> <s_user_duplicate_titles>
CHEMBL4618_lig82

> <s_m_subgroup_title>
dock_pv

> <s_m_subgroupid>
dock_pv

> <b_m_subgroup_collapsed>
1

$$$$
CHEMBL4618_lig255
                    3D
 Schrodinger Suite 2021-1.
 65 67  0  0  1  0            999 V2000
   19.6104   44.1642   67.7435 C   0  0  0  0  0  0
   18.3744   44.5584   68.2563 C   0  0  0  0  0  0
   17.2149   44.3449   67.5155 C   0  0  0  0  0  0
   17.2921   43.7280   66.2662 C   0  0  0  0  0  0
   18.5380   43.3888   65.7255 C   0  0  0  0  0  0
   19.6953   43.6060   66.4664 C   0  0  0  0  0  0
   16.0900   43.4817   65.5892 N   0  0  0  0  0  0
   15.7574   42.3731   64.8933 C   0  0  0  0  0  0
   14.3540   42.3025   64.2567 C   0  0  0  0  0  0
   16.5210   41.4161   64.7393 O   0  0  0  0  0  0
   13.3663   43.0992   65.0040 N   0  0  1  0  0  0
   20.7351   44.3095   68.5199 O   0  0  0  0  0  0
   21.3416   43.1472   68.9375 C   0  0  0  0  0  0
   22.5735   42.7833   68.3925 C   0  0  0  0  0  0
   23.1777   41.5884   68.7778 C   0  0  0  0  0  0
   22.5507   40.7685   69.7144 C   0  0  0  0  0  0
   21.3283   41.1334   70.2726 C   0  0  0  0  0  0
   20.7217   42.3258   69.8836 C   0  0  0  0  0  0
   13.1484   44.3901   64.3427 C   0  0  0  0  0  0
   12.0730   42.4227   65.1405 C   0  0  0  0  0  0
   11.2268   42.8218   66.3616 C   0  0  0  0  0  0
    9.7093   42.6993   66.0809 C   0  0  0  0  0  0
    8.9676   41.9820   67.1214 N   0  0  2  0  0  0
    8.6576   40.5620   66.8179 C   0  0  0  0  0  0
    7.7561   42.7443   67.4550 C   0  0  0  0  0  0
    8.4911   39.5922   68.0032 C   0  0  0  0  0  0
    8.2657   38.2239   67.7975 C   0  0  0  0  0  0
    8.1552   37.3382   68.8818 C   0  0  0  0  0  0
    8.3692   37.7895   70.1965 C   0  0  0  0  0  0
    8.5210   39.1635   70.3868 C   0  0  0  0  0  0
    8.5201   40.0433   69.3120 C   0  0  0  0  0  0
    8.5211   41.3585   69.5400 F   0  0  0  0  0  0
    8.4794   36.8731   71.3987 C   0  0  0  0  0  0
    8.5205   35.5357   71.1398 O   0  0  0  0  0  0
    8.5900   37.3158   72.5406 O   0  0  0  0  0  0
   18.3105   44.9891   69.2437 H   0  0  0  0  0  0
   16.2579   44.6169   67.9375 H   0  0  0  0  0  0
   18.6143   42.9500   64.7403 H   0  0  0  0  0  0
   20.6538   43.3154   66.0612 H   0  0  0  0  0  0
   15.3459   44.1537   65.7072 H   0  0  0  0  0  0
   14.4519   42.6160   63.2142 H   0  0  0  0  0  0
   14.0845   41.2459   64.1934 H   0  0  0  0  0  0
   23.0483   43.4124   67.6546 H   0  0  0  0  0  0
   24.1206   41.2901   68.3411 H   0  0  0  0  0  0
   23.0129   39.8372   70.0111 H   0  0  0  0  0  0
   20.8535   40.4862   70.9957 H   0  0  0  0  0  0
   19.7660   42.6050   70.3016 H   0  0  0  0  0  0
   12.3516   44.9606   64.8127 H   0  0  0  0  0  0
   14.0482   44.9988   64.3631 H   0  0  0  0  0  0
   12.8746   44.2580   63.2948 H   0  0  0  0  0  0
   11.4965   42.6161   64.2423 H   0  0  0  0  0  0
   12.2147   41.3417   65.1882 H   0  0  0  0  0  0
   11.4878   42.1693   67.1950 H   0  0  0  0  0  0
   11.4918   43.8150   66.7270 H   0  0  0  0  0  0
    9.3339   43.7209   65.9799 H   0  0  0  0  0  0
    9.5121   42.2293   65.1267 H   0  0  0  0  0  0
    7.7212   40.5197   66.2737 H   0  0  0  0  0  0
    9.4518   40.1379   66.2011 H   0  0  0  0  0  0
    7.0382   42.1805   68.0516 H   0  0  0  0  0  0
    8.0244   43.6349   68.0238 H   0  0  0  0  0  0
    7.2281   43.0808   66.5748 H   0  0  0  0  0  0
    8.1955   37.8385   66.7914 H   0  0  0  0  0  0
    8.0061   36.2910   68.6671 H   0  0  0  0  0  0
    8.5955   39.5783   71.3820 H   0  0  0  0  0  0
    8.1621   35.2833   70.2872 H   0  0  0  0  0  0
  1  2  2  0  0  0
  1  6  1  0  0  0
  1 12  1  0  0  0
  2  3  1  0  0  0
  2 36  1  0  0  0
  3  4  2  0  0  0
  3 37  1  0  0  0
  4  5  1  0  0  0
  4  7  1  0  0  0
  5  6  2  0  0  0
  5 38  1  0  0  0
  6 39  1  0  0  0
  7  8  1  0  0  0
  7 40  1  0  0  0
  8  9  1  0  0  0
  8 10  2  0  0  0
  9 11  1  0  0  0
  9 41  1  0  0  0
  9 42  1  0  0  0
 11 19  1  0  0  0
 11 20  1  0  0  0
 12 13  1  0  0  0
 13 14  2  0  0  0
 13 18  1  0  0  0
 14 15  1  0  0  0
 14 43  1  0  0  0
 15 16  2  0  0  0
 15 44  1  0  0  0
 16 17  1  0  0  0
 16 45  1  0  0  0
 17 18  2  0  0  0
 17 46  1  0  0  0
 18 47  1  0  0  0
 19 48  1  0  0  0
 19 49  1  0  0  0
 19 50  1  0  0  0
 20 21  1  0  0  0
 20 51  1  0  0  0
 20 52  1  0  0  0
 21 22  1  0  0  0
 21 53  1  0  0  0
 21 54  1  0  0  0
 22 23  1  0  0  0
 22 55  1  0  0  0
 22 56  1  0  0  0
 23 24  1  0  0  0
 23 25  1  0  0  0
 24 26  1  0  0  0
 24 57  1  0  0  0
 24 58  1  0  0  0
 25 59  1  0  0  0
 25 60  1  0  0  0
 25 61  1  0  0  0
 26 27  2  0  0  0
 26 31  1  0  0  0
 27 28  1  0  0  0
 27 62  1  0  0  0
 28 29  2  0  0  0
 28 63  1  0  0  0
 29 30  1  0  0  0
 29 33  1  0  0  0
 30 31  2  0  0  0
 30 64  1  0  0  0
 31 32  1  0  0  0
 33 34  1  0  0  0
 33 35  2  0  0  0
 34 65  1  0  0  0
M  END
> <s_m_entry_id>
7031

> <s_m_entry_name>
dock_pv.461

> <s_m_Source_Path>
/home/csk/Desktop/cluster/DUD-E-result/lkha4

> <s_m_Source_File>
dock_pv.maegz

> <i_m_Source_File_Index>
461

> <chembl_id>
CHEMBL479402

> <chembl_pref_name>
None

> <i_lp_mmshare_version>
53161

> <i_f3d_flags>
0

> <r_lp_tautomer_probability>
1

> <s_lp_Force_Field>
OPLS_2005

> <r_lp_Energy>
35.916804

> <b_lp_Chiralities_Consistent>
1

> <s_lp_Variant>
CHEMBL4618_lig255-1

> <s_i_glide_gridfile>
glide-grid_3chp

> <i_i_glide_lignum>
292

> <i_i_glide_rotatable_bonds>
14

> <r_i_docking_score>
-7.67054873021881

> <r_i_glide_ligand_efficiency>
-0.219158535149109

> <r_i_glide_ligand_efficiency_sa>
-0.716882100066944

> <r_i_glide_ligand_efficiency_ln>
-1.68385568493988

> <r_i_glide_gscore>
-7.67054873021881

> <r_i_glide_lipo>
-3.11972647439461

> <r_i_glide_hbond>
-0.16389304843614

> <r_i_glide_metal>
0

> <r_i_glide_rewards>
-0.742821781983858

> <r_i_glide_evdw>
-58.7637901306152

> <r_i_glide_ecoul>
-11.0563097000122

> <r_i_glide_erotb>
1.1460297197543

> <r_i_glide_esite>
-0.193501183625907

> <r_i_glide_emodel>
-81.2323567335936

> <r_i_glide_energy>
-69.8200998306274

> <r_i_glide_einternal>
36.8031806945801

> <i_i_glide_confnum>
86

> <i_i_glide_posenum>
350

> <r_i_glide_eff_state_penalty>
0

> <s_user_duplicate_titles>
CHEMBL4618_lig255,467628

> <s_m_subgroup_title>
dock_pv

> <s_m_subgroupid>
dock_pv

> <b_m_subgroup_collapsed>
1

$$$$
CHEMBL4618_lig18
                    3D
 Schrodinger Suite 2021-1.
 54 57  0  0  1  0            999 V2000
   13.0422   41.6518   65.9374 N   0  0  1  0  0  0
   14.0756   43.5660   64.9412 C   0  0  2  0  0  0
   15.5012   42.9595   64.8545 C   0  0  2  0  0  0
   13.6504   41.4435   64.6072 C   0  0  2  0  0  0
   15.1912   41.4530   64.7284 C   0  0  0  0  0  0
   13.2529   43.0936   66.1740 C   0  0  0  0  0  0
   16.4883   43.3767   65.9565 C   0  0  0  0  0  0
   13.3815   42.7568   63.8682 C   0  0  0  0  0  0
   16.2610   44.3003   66.7395 O   0  0  0  0  0  0
    8.0160   38.0837   69.5973 C   0  0  0  0  0  0
   17.6022   42.6150   65.9411 O   0  0  0  0  0  0
   11.6284   41.2377   65.8797 C   0  0  0  0  0  0
    7.5676   37.0763   70.6591 C   0  0  0  0  0  0
    8.8849   39.9292   67.6836 C   0  0  0  0  0  0
    8.2342   39.4156   69.9395 C   0  0  0  0  0  0
    8.1215   37.7093   68.2556 C   0  0  0  0  0  0
    8.5679   38.6269   67.3025 C   0  0  0  0  0  0
    8.6188   40.3441   68.9830 C   0  0  0  0  0  0
    8.6090   36.5904   71.6799 C   0  0  0  0  0  0
    9.4866   40.7821   66.7877 O   0  0  0  0  0  0
   10.7913   41.2594   67.1563 C   0  0  0  0  0  0
   18.6755   42.8805   66.8337 C   0  0  0  0  0  0
    9.2008   37.4778   72.5814 C   0  0  0  0  0  0
    8.9240   35.2316   71.7817 C   0  0  0  0  0  0
   10.1081   37.0157   73.5382 C   0  0  0  0  0  0
    9.8334   34.7675   72.7296 C   0  0  0  0  0  0
   10.4146   35.6626   73.6175 C   0  0  0  0  0  0
   14.0607   44.6359   64.7543 H   0  0  0  0  0  0
   15.9961   43.2748   63.9400 H   0  0  0  0  0  0
   13.3221   40.5398   64.0934 H   0  0  0  0  0  0
   15.6209   41.0775   63.7968 H   0  0  0  0  0  0
   15.5384   40.8242   65.5400 H   0  0  0  0  0  0
   13.8213   43.2557   67.0894 H   0  0  0  0  0  0
   12.3161   43.6503   66.2245 H   0  0  0  0  0  0
   12.3288   43.0154   63.7451 H   0  0  0  0  0  0
   13.8596   42.8149   62.8894 H   0  0  0  0  0  0
   11.0932   41.8283   65.1400 H   0  0  0  0  0  0
   11.6034   40.2019   65.5393 H   0  0  0  0  0  0
    6.7292   37.5052   71.2106 H   0  0  0  0  0  0
    7.1607   36.2151   70.1321 H   0  0  0  0  0  0
    8.1213   39.7463   70.9555 H   0  0  0  0  0  0
    7.9184   36.6959   67.9435 H   0  0  0  0  0  0
    8.7354   38.3110   66.2831 H   0  0  0  0  0  0
    8.8106   41.3667   69.2699 H   0  0  0  0  0  0
   11.2657   40.6173   67.9009 H   0  0  0  0  0  0
   10.7154   42.2676   67.5672 H   0  0  0  0  0  0
   19.4763   42.1576   66.6698 H   0  0  0  0  0  0
   18.3502   42.8015   67.8731 H   0  0  0  0  0  0
   19.0794   43.8810   66.6676 H   0  0  0  0  0  0
    8.9394   38.5257   72.5602 H   0  0  0  0  0  0
    8.4752   34.5011   71.1396 H   0  0  0  0  0  0
   10.5676   37.7084   74.2272 H   0  0  0  0  0  0
   10.0705   33.7152   72.7890 H   0  0  0  0  0  0
   11.1082   35.3084   74.3661 H   0  0  0  0  0  0
  1  4  1  0  0  0
  1  6  1  0  0  0
  1 12  1  0  0  0
  2  6  1  0  0  0
  2  3  1  0  0  0
  2  8  1  0  0  0
  2 28  1  0  0  0
  3  7  1  0  0  0
  3  5  1  0  0  0
  3 29  1  0  0  0
  4  5  1  0  0  0
  4  8  1  0  0  0
  4 30  1  0  0  0
  5 31  1  0  0  0
  5 32  1  0  0  0
  6 33  1  0  0  0
  6 34  1  0  0  0
  7  9  2  0  0  0
  7 11  1  0  0  0
  8 35  1  0  0  0
  8 36  1  0  0  0
 10 15  1  0  0  0
 10 13  1  0  0  0
 10 16  2  0  0  0
 11 22  1  0  0  0
 12 21  1  0  0  0
 12 37  1  0  0  0
 12 38  1  0  0  0
 13 19  1  0  0  0
 13 39  1  0  0  0
 13 40  1  0  0  0
 14 20  1  0  0  0
 14 17  2  0  0  0
 14 18  1  0  0  0
 15 18  2  0  0  0
 15 41  1  0  0  0
 16 17  1  0  0  0
 16 42  1  0  0  0
 17 43  1  0  0  0
 18 44  1  0  0  0
 19 23  2  0  0  0
 19 24  1  0  0  0
 20 21  1  0  0  0
 21 45  1  0  0  0
 21 46  1  0  0  0
 22 47  1  0  0  0
 22 48  1  0  0  0
 22 49  1  0  0  0
 23 25  1  0  0  0
 23 50  1  0  0  0
 24 26  2  0  0  0
 24 51  1  0  0  0
 25 27  2  0  0  0
 25 52  1  0  0  0
 26 27  1  0  0  0
 26 53  1  0  0  0
 27 54  1  0  0  0
M  END
> <s_m_entry_id>
7032

> <s_m_entry_name>
dock_pv.462

> <s_m_Source_Path>
/home/csk/Desktop/cluster/DUD-E-result/lkha4

> <s_m_Source_File>
dock_pv.maegz

> <i_m_Source_File_Index>
462

> <chembl_id>
CHEMBL114591

> <chembl_pref_name>
None

> <i_lp_mmshare_version>
53161

> <i_f3d_flags>
0

> <r_lp_tautomer_probability>
1

> <s_lp_Force_Field>
OPLS_2005

> <r_lp_Energy>
67.42796

> <b_lp_Chiralities_Consistent>
1

> <s_lp_Variant>
CHEMBL4618_lig18-2

> <s_i_glide_gridfile>
glide-grid_3chp

> <i_i_glide_lignum>
23

> <i_i_glide_rotatable_bonds>
8

> <r_i_docking_score>
-7.65610459554949

> <r_i_glide_ligand_efficiency>
-0.283559429464796

> <r_i_glide_ligand_efficiency_sa>
-0.850678287459822

> <r_i_glide_ligand_efficiency_ln>
-1.78221492909498

> <r_i_glide_gscore>
-7.65610459554949

> <r_i_glide_lipo>
-5.20724066538015

> <r_i_glide_hbond>
-0.0874353156521825

> <r_i_glide_metal>
0

> <r_i_glide_rewards>
-0.591648632789297

> <r_i_glide_evdw>
-46.3053665161133

> <r_i_glide_ecoul>
-2.59959769248962

> <r_i_glide_erotb>
1.00816240035832

> <r_i_glide_esite>
-0.0727344024070654

> <r_i_glide_emodel>
-53.5612784528976

> <r_i_glide_energy>
-48.9049642086029

> <r_i_glide_einternal>
11.4953231811523

> <i_i_glide_confnum>
66

> <i_i_glide_posenum>
273

> <r_i_glide_eff_state_penalty>
0

> <s_user_duplicate_titles>
CHEMBL4618_lig18

> <s_m_subgroup_title>
dock_pv

> <s_m_subgroupid>
dock_pv

> <b_m_subgroup_collapsed>
1

$$$$
CHEMBL4618_lig107
                    3D
 Schrodinger Suite 2021-1.
 53 55  0  0  1  0            999 V2000
   14.7648   42.6910   65.8100 N   0  0  2  0  0  0
   16.0436   43.0693   66.4709 C   0  0  1  0  0  0
   14.7925   42.7563   64.3405 C   0  0  1  0  0  0
   13.5181   43.2129   66.4059 C   0  0  0  0  0  0
    8.4422   39.9330   68.3811 C   0  0  0  0  0  0
    7.5762   38.8999   69.0831 C   0  0  0  0  0  0
   10.1634   41.7988   67.2330 C   0  0  0  0  0  0
    9.2684   39.5497   67.3311 C   0  0  0  0  0  0
    8.3546   41.2824   68.7400 C   0  0  0  0  0  0
    9.2092   42.2130   68.1586 C   0  0  0  0  0  0
   10.1211   40.4821   66.7525 C   0  0  0  0  0  0
    8.2263   38.0057   70.1329 C   0  0  0  0  0  0
   11.1578   42.7032   66.9135 O   0  0  0  0  0  0
   12.3505   42.1937   66.3198 C   0  0  0  0  0  0
   17.3468   42.4415   64.4399 C   0  0  0  0  0  0
   16.0549   42.1780   63.6724 C   0  0  0  0  0  0
   17.1692   42.1752   65.9084 C   0  0  0  0  0  0
   16.4467   44.5406   66.5079 C   0  0  0  0  0  0
   13.5617   42.4425   63.4992 C   0  0  0  0  0  0
    8.0873   36.6163   70.0768 C   0  0  0  0  0  0
    8.8510   38.5866   71.2343 C   0  0  0  0  0  0
    8.5211   35.8241   71.1407 C   0  0  0  0  0  0
    9.3213   37.7882   72.2761 C   0  0  0  0  0  0
    9.1428   36.4128   72.2329 C   0  0  0  0  0  0
   15.9969   42.8558   67.5307 H   0  0  0  0  0  0
   14.9208   43.8162   64.3399 H   0  0  0  0  0  0
   13.6719   43.4567   67.4545 H   0  0  0  0  0  0
   13.2340   44.1506   65.9263 H   0  0  0  0  0  0
    6.8760   39.4762   69.6666 H   0  0  0  0  0  0
    7.0068   38.3213   68.3533 H   0  0  0  0  0  0
    9.2978   38.5206   67.0028 H   0  0  0  0  0  0
    7.6681   41.6074   69.5091 H   0  0  0  0  0  0
    9.1918   43.2368   68.4969 H   0  0  0  0  0  0
   10.8024   40.1368   65.9897 H   0  0  0  0  0  0
   12.0483   41.9361   65.3168 H   0  0  0  0  0  0
   12.6797   41.2467   66.7420 H   0  0  0  0  0  0
   17.6747   43.4759   64.3400 H   0  0  0  0  0  0
   18.1211   41.8161   64.0222 H   0  0  0  0  0  0
   16.1771   42.6297   62.6883 H   0  0  0  0  0  0
   15.9161   41.1095   63.5181 H   0  0  0  0  0  0
   18.0988   42.2986   66.4664 H   0  0  0  0  0  0
   16.9207   41.1185   65.9400 H   0  0  0  0  0  0
   17.4203   44.6721   66.9811 H   0  0  0  0  0  0
   15.7211   45.0300   67.1404 H   0  0  0  0  0  0
   16.4912   45.0126   65.5275 H   0  0  0  0  0  0
   13.7398   42.6161   62.4458 H   0  0  0  0  0  0
   13.3210   41.3853   63.5905 H   0  0  0  0  0  0
   12.7105   43.0772   63.7379 H   0  0  0  0  0  0
    7.6152   36.1488   69.2287 H   0  0  0  0  0  0
    8.9210   39.6617   71.2962 H   0  0  0  0  0  0
    8.3957   34.7526   71.1401 H   0  0  0  0  0  0
    9.7999   38.2160   73.1400 H   0  0  0  0  0  0
    9.4863   35.7978   73.0519 H   0  0  0  0  0  0
  1  2  1  0  0  0
  1  3  1  0  0  0
  1  4  1  0  0  0
  2 17  1  0  0  0
  2 18  1  0  0  0
  2 25  1  0  0  0
  3 16  1  0  0  0
  3 19  1  0  0  0
  3 26  1  0  0  0
  4 14  1  0  0  0
  4 27  1  0  0  0
  4 28  1  0  0  0
  5  8  2  0  0  0
  5  6  1  0  0  0
  5  9  1  0  0  0
  6 12  1  0  0  0
  6 29  1  0  0  0
  6 30  1  0  0  0
  7 13  1  0  0  0
  7 10  1  0  0  0
  7 11  2  0  0  0
  8 11  1  0  0  0
  8 31  1  0  0  0
  9 10  2  0  0  0
  9 32  1  0  0  0
 10 33  1  0  0  0
 11 34  1  0  0  0
 12 20  1  0  0  0
 12 21  2  0  0  0
 13 14  1  0  0  0
 14 35  1  0  0  0
 14 36  1  0  0  0
 15 16  1  0  0  0
 15 17  1  0  0  0
 15 37  1  0  0  0
 15 38  1  0  0  0
 16 39  1  0  0  0
 16 40  1  0  0  0
 17 41  1  0  0  0
 17 42  1  0  0  0
 18 43  1  0  0  0
 18 44  1  0  0  0
 18 45  1  0  0  0
 19 46  1  0  0  0
 19 47  1  0  0  0
 19 48  1  0  0  0
 20 22  2  0  0  0
 20 49  1  0  0  0
 21 23  1  0  0  0
 21 50  1  0  0  0
 22 24  1  0  0  0
 22 51  1  0  0  0
 23 24  2  0  0  0
 23 52  1  0  0  0
 24 53  1  0  0  0
M  END
> <s_m_entry_id>
7033

> <s_m_entry_name>
dock_pv.463

> <s_m_Source_Path>
/home/csk/Desktop/cluster/DUD-E-result/lkha4

> <s_m_Source_File>
dock_pv.maegz

> <i_m_Source_File_Index>
463

> <chembl_id>
CHEMBL162788

> <chembl_pref_name>
None

> <i_lp_mmshare_version>
53161

> <i_f3d_flags>
0

> <r_lp_tautomer_probability>
1

> <s_lp_Force_Field>
OPLS_2005

> <r_lp_Energy>
35.944767

> <b_lp_Chiralities_Consistent>
1

> <s_lp_Variant>
CHEMBL4618_lig107-3

> <s_i_glide_gridfile>
glide-grid_3chp

> <i_i_glide_lignum>
133

> <i_i_glide_rotatable_bonds>
6

> <r_i_docking_score>
-7.65142620374693

> <r_i_glide_ligand_efficiency>
-0.318809425156122

> <r_i_glide_ligand_efficiency_sa>
-0.919605511908553

> <r_i_glide_ligand_efficiency_ln>
-1.83133739162708

> <r_i_glide_gscore>
-7.65142620374693

> <r_i_glide_lipo>
-4.61362366951974

> <r_i_glide_hbond>
-0.0587897483943159

> <r_i_glide_metal>
0

> <r_i_glide_rewards>
-2.08695861047894

> <r_i_glide_evdw>
-30.9740085601807

> <r_i_glide_ecoul>
-2.77662706375122

> <r_i_glide_erotb>
1.07314031221778

> <r_i_glide_esite>
0

> <r_i_glide_emodel>
-37.9790471046111

> <r_i_glide_energy>
-33.7506356239319

> <r_i_glide_einternal>
5.91228437423706

> <i_i_glide_confnum>
146

> <i_i_glide_posenum>
144

> <r_i_glide_eff_state_penalty>
0

> <s_user_duplicate_titles>
CHEMBL4618_lig107,270950

> <s_m_subgroup_title>
dock_pv

> <s_m_subgroupid>
dock_pv

> <b_m_subgroup_collapsed>
1

$$$$
CHEMBL4618_lig91
                    3D
 Schrodinger Suite 2021-1.
 47 49  0  0  1  0            999 V2000
    9.7229   41.4936   67.3555 N   0  0  0  0  0  0
    8.8192   36.5204   72.3034 C   0  0  1  0  0  0
    9.7210   35.5350   73.0551 C   0  0  0  0  0  0
    9.5056   37.8854   72.1397 C   0  0  0  0  0  0
    8.2955   36.0056   70.9537 C   0  0  0  0  0  0
    8.6238   38.8689   71.3402 C   0  0  0  0  0  0
    7.4736   37.0116   70.1383 C   0  0  0  0  0  0
    8.2472   38.3106   69.9599 C   0  0  1  0  0  0
    9.1316   40.2195   67.7467 C   0  0  0  0  0  0
    7.4301   39.1780   69.1809 O   0  0  0  0  0  0
    7.9889   40.4162   68.7642 C   0  0  0  0  0  0
   10.8633   41.3281   66.4665 C   0  0  0  0  0  0
    8.8087   42.3547   66.6234 C   0  0  0  0  0  0
   10.2226   35.8711   74.3195 C   0  0  0  0  0  0
   10.0662   34.3030   72.4867 C   0  0  0  0  0  0
    9.7097   43.3695   65.9399 C   0  0  0  0  0  0
   11.0773   42.6983   65.8259 C   0  0  0  0  0  0
   10.9210   33.4415   73.1428 C   0  0  0  0  0  0
   11.1028   35.0141   74.9715 C   0  0  0  0  0  0
   11.4696   33.8160   74.3624 C   0  0  0  0  0  0
    7.9879   36.6935   72.9907 H   0  0  0  0  0  0
   10.4733   37.7823   71.6461 H   0  0  0  0  0  0
    9.6750   38.2739   73.1394 H   0  0  0  0  0  0
    7.7210   35.1008   71.1400 H   0  0  0  0  0  0
    9.1619   35.8014   70.3400 H   0  0  0  0  0  0
    9.1335   39.8159   71.1915 H   0  0  0  0  0  0
    7.7210   39.0160   71.9291 H   0  0  0  0  0  0
    6.5210   37.2048   70.6278 H   0  0  0  0  0  0
    7.3210   36.5813   69.1513 H   0  0  0  0  0  0
    9.1573   38.0798   69.4061 H   0  0  0  0  0  0
    8.7670   39.6750   66.8735 H   0  0  0  0  0  0
    9.9229   39.6135   68.1855 H   0  0  0  0  0  0
    8.3124   41.0168   69.6111 H   0  0  0  0  0  0
    7.1720   40.9840   68.3208 H   0  0  0  0  0  0
   10.7186   40.5354   65.7333 H   0  0  0  0  0  0
   11.7211   41.0160   67.0608 H   0  0  0  0  0  0
    8.1358   42.8403   67.3327 H   0  0  0  0  0  0
    8.1588   41.8160   65.9400 H   0  0  0  0  0  0
    9.9479   36.8011   74.7957 H   0  0  0  0  0  0
    9.6736   33.9763   71.5400 H   0  0  0  0  0  0
    9.7627   44.2160   66.6004 H   0  0  0  0  0  0
    9.3145   43.7219   64.9899 H   0  0  0  0  0  0
   11.4056   42.6160   64.7902 H   0  0  0  0  0  0
   11.8394   43.2635   66.3649 H   0  0  0  0  0  0
   11.1859   32.5102   72.6749 H   0  0  0  0  0  0
   11.5043   35.2754   75.9400 H   0  0  0  0  0  0
   12.1573   33.1475   74.8578 H   0  0  0  0  0  0
  1  9  1  0  0  0
  1 12  1  0  0  0
  1 13  1  0  0  0
  2  5  1  0  0  0
  2  3  1  0  0  0
  2  4  1  0  0  0
  2 21  1  0  0  0
  3 14  1  0  0  0
  3 15  2  0  0  0
  4  6  1  0  0  0
  4 22  1  0  0  0
  4 23  1  0  0  0
  5  7  1  0  0  0
  5 24  1  0  0  0
  5 25  1  0  0  0
  6  8  1  0  0  0
  6 26  1  0  0  0
  6 27  1  0  0  0
  7  8  1  0  0  0
  7 28  1  0  0  0
  7 29  1  0  0  0
  8 10  1  0  0  0
  8 30  1  0  0  0
  9 11  1  0  0  0
  9 31  1  0  0  0
  9 32  1  0  0  0
 10 11  1  0  0  0
 11 33  1  0  0  0
 11 34  1  0  0  0
 12 17  1  0  0  0
 12 35  1  0  0  0
 12 36  1  0  0  0
 13 16  1  0  0  0
 13 37  1  0  0  0
 13 38  1  0  0  0
 14 19  2  0  0  0
 14 39  1  0  0  0
 15 18  1  0  0  0
 15 40  1  0  0  0
 16 17  1  0  0  0
 16 41  1  0  0  0
 16 42  1  0  0  0
 17 43  1  0  0  0
 17 44  1  0  0  0
 18 20  2  0  0  0
 18 45  1  0  0  0
 19 20  1  0  0  0
 19 46  1  0  0  0
 20 47  1  0  0  0
M  END
> <s_m_entry_id>
7034

> <s_m_entry_name>
dock_pv.464

> <s_m_Source_Path>
/home/csk/Desktop/cluster/DUD-E-result/lkha4

> <s_m_Source_File>
dock_pv.maegz

> <i_m_Source_File_Index>
464

> <chembl_id>
CHEMBL3084970

> <chembl_pref_name>
None

> <i_lp_mmshare_version>
53161

> <i_f3d_flags>
0

> <r_lp_tautomer_probability>
1

> <s_lp_Force_Field>
OPLS_2005

> <r_lp_Energy>
49.307219

> <b_lp_Chiralities_Consistent>
1

> <s_lp_Variant>
CHEMBL4618_lig91-1

> <s_i_glide_gridfile>
glide-grid_3chp

> <i_i_glide_lignum>
114

> <i_i_glide_rotatable_bonds>
5

> <r_i_docking_score>
-7.65011084982125

> <r_i_glide_ligand_efficiency>
-0.382505542491063

> <r_i_glide_ligand_efficiency_sa>
-1.03827978194613

> <r_i_glide_ligand_efficiency_ln>
-1.91457042816757

> <r_i_glide_gscore>
-7.65011084982125

> <r_i_glide_lipo>
-5.06089442866942

> <r_i_glide_hbond>
0

> <r_i_glide_metal>
0

> <r_i_glide_rewards>
-1.54491081818182

> <r_i_glide_evdw>
-33.7722930908203

> <r_i_glide_ecoul>
-2.10381102561951

> <r_i_glide_erotb>
0.959880705413928

> <r_i_glide_esite>
0

> <r_i_glide_emodel>
-43.5986604944682

> <r_i_glide_energy>
-35.8761041164398

> <r_i_glide_einternal>
9.62462711334229

> <i_i_glide_confnum>
21

> <i_i_glide_posenum>
136

> <r_i_glide_eff_state_penalty>
0

> <s_user_duplicate_titles>
CHEMBL4618_lig91

> <s_m_subgroup_title>
dock_pv

> <s_m_subgroupid>
dock_pv

> <b_m_subgroup_collapsed>
1

$$$$
CHEMBL4618_lig18
                    3D
 Schrodinger Suite 2021-1.
 54 57  0  0  1  0            999 V2000
   12.3225   42.3606   65.4555 N   0  0  1  0  0  0
   14.5966   41.8684   64.9451 C   0  0  1  0  0  0
   15.2529   43.2548   65.0771 C   0  0  1  0  0  0
   12.9191   43.2067   64.4217 C   0  0  1  0  0  0
   13.9940   44.1660   65.0112 C   0  0  0  0  0  0
   13.4549   41.5910   65.9725 C   0  0  0  0  0  0
   16.2388   43.4454   66.2369 C   0  0  0  0  0  0
   13.7893   42.1813   63.6998 C   0  0  0  0  0  0
   16.0735   44.2813   67.1235 O   0  0  0  0  0  0
    8.1610   38.2781   69.1235 C   0  0  0  0  0  0
   17.3206   42.6420   66.1131 O   0  0  0  0  0  0
   11.4279   43.0260   66.4049 C   0  0  0  0  0  0
    7.7382   37.1424   70.0712 C   0  0  0  0  0  0
    8.9868   40.3732   67.4372 C   0  0  0  0  0  0
    8.1241   39.5987   69.5447 C   0  0  0  0  0  0
    8.5181   38.0291   67.8007 C   0  0  0  0  0  0
    8.9202   39.0653   66.9552 C   0  0  0  0  0  0
    8.5198   40.6443   68.7233 C   0  0  0  0  0  0
    8.6679   36.7713   71.2427 C   0  0  0  0  0  0
    9.5607   41.3625   66.6619 O   0  0  0  0  0  0
   10.6370   42.0547   67.3027 C   0  0  0  0  0  0
   18.4265   42.7967   66.9935 C   0  0  0  0  0  0
    9.2494   37.7483   72.0549 C   0  0  0  0  0  0
    8.9196   35.4241   71.5399 C   0  0  0  0  0  0
   10.0495   37.3860   73.1378 C   0  0  0  0  0  0
    9.6974   35.0579   72.6356 C   0  0  0  0  0  0
   10.2309   36.0440   73.4538 C   0  0  0  0  0  0
   15.2987   41.0483   64.8143 H   0  0  0  0  0  0
   15.8894   43.4162   64.2086 H   0  0  0  0  0  0
   12.1813   43.6921   63.7823 H   0  0  0  0  0  0
   13.7125   44.5990   65.9601 H   0  0  0  0  0  0
   14.1181   45.0080   64.3406 H   0  0  0  0  0  0
   13.2081   40.5299   65.9500 H   0  0  0  0  0  0
   13.7210   41.9176   66.9752 H   0  0  0  0  0  0
   14.3516   42.6218   62.8718 H   0  0  0  0  0  0
   13.3165   41.2873   63.3125 H   0  0  0  0  0  0
   12.0066   43.7000   67.0354 H   0  0  0  0  0  0
   10.7175   43.6460   65.8556 H   0  0  0  0  0  0
    6.7710   37.4125   70.4990 H   0  0  0  0  0  0
    7.5524   36.2462   69.4785 H   0  0  0  0  0  0
    7.8139   39.8109   70.5406 H   0  0  0  0  0  0
    8.5315   37.0165   67.4462 H   0  0  0  0  0  0
    9.2581   38.8405   65.9530 H   0  0  0  0  0  0
    8.5040   41.6536   69.1054 H   0  0  0  0  0  0
   11.3137   41.3053   67.7059 H   0  0  0  0  0  0
   10.2507   42.6332   68.1428 H   0  0  0  0  0  0
   19.2244   42.1050   66.7192 H   0  0  0  0  0  0
   18.1407   42.5999   68.0274 H   0  0  0  0  0  0
   18.8301   43.8080   66.9397 H   0  0  0  0  0  0
    9.0758   38.7914   71.8663 H   0  0  0  0  0  0
    8.5210   34.6370   70.9258 H   0  0  0  0  0  0
   10.5215   38.1424   73.7464 H   0  0  0  0  0  0
    9.8690   34.0139   72.8559 H   0  0  0  0  0  0
   10.8316   35.7713   74.3089 H   0  0  0  0  0  0
  1  4  1  0  0  0
  1  6  1  0  0  0
  1 12  1  0  0  0
  2  6  1  0  0  0
  2  3  1  0  0  0
  2  8  1  0  0  0
  2 28  1  0  0  0
  3  7  1  0  0  0
  3  5  1  0  0  0
  3 29  1  0  0  0
  4  5  1  0  0  0
  4  8  1  0  0  0
  4 30  1  0  0  0
  5 31  1  0  0  0
  5 32  1  0  0  0
  6 33  1  0  0  0
  6 34  1  0  0  0
  7  9  2  0  0  0
  7 11  1  0  0  0
  8 35  1  0  0  0
  8 36  1  0  0  0
 10 15  1  0  0  0
 10 13  1  0  0  0
 10 16  2  0  0  0
 11 22  1  0  0  0
 12 21  1  0  0  0
 12 37  1  0  0  0
 12 38  1  0  0  0
 13 19  1  0  0  0
 13 39  1  0  0  0
 13 40  1  0  0  0
 14 20  1  0  0  0
 14 17  2  0  0  0
 14 18  1  0  0  0
 15 18  2  0  0  0
 15 41  1  0  0  0
 16 17  1  0  0  0
 16 42  1  0  0  0
 17 43  1  0  0  0
 18 44  1  0  0  0
 19 23  2  0  0  0
 19 24  1  0  0  0
 20 21  1  0  0  0
 21 45  1  0  0  0
 21 46  1  0  0  0
 22 47  1  0  0  0
 22 48  1  0  0  0
 22 49  1  0  0  0
 23 25  1  0  0  0
 23 50  1  0  0  0
 24 26  2  0  0  0
 24 51  1  0  0  0
 25 27  2  0  0  0
 25 52  1  0  0  0
 26 27  1  0  0  0
 26 53  1  0  0  0
 27 54  1  0  0  0
M  END
> <s_m_entry_id>
7035

> <s_m_entry_name>
dock_pv.465

> <s_m_Source_Path>
/home/csk/Desktop/cluster/DUD-E-result/lkha4

> <s_m_Source_File>
dock_pv.maegz

> <i_m_Source_File_Index>
465

> <chembl_id>
CHEMBL114591

> <chembl_pref_name>
None

> <i_lp_mmshare_version>
53161

> <i_f3d_flags>
0

> <r_lp_tautomer_probability>
1

> <s_lp_Force_Field>
OPLS_2005

> <r_lp_Energy>
67.252686

> <b_lp_Chiralities_Consistent>
1

> <s_lp_Variant>
CHEMBL4618_lig18-3

> <s_i_glide_gridfile>
glide-grid_3chp

> <i_i_glide_lignum>
24

> <i_i_glide_rotatable_bonds>
8

> <r_i_docking_score>
-7.6163364359608

> <r_i_glide_ligand_efficiency>
-0.282086534665215

> <r_i_glide_ligand_efficiency_sa>
-0.846259603065933

> <r_i_glide_ligand_efficiency_ln>
-1.77295755717208

> <r_i_glide_gscore>
-7.6163364359608

> <r_i_glide_lipo>
-5.07770536951764

> <r_i_glide_hbond>
-0.280341252960385

> <r_i_glide_metal>
0

> <r_i_glide_rewards>
-0.880699571045659

> <r_i_glide_evdw>
-37.7209053039551

> <r_i_glide_ecoul>
-3.07501864433289

> <r_i_glide_erotb>
1.00816240035832

> <r_i_glide_esite>
-0.0384545809477464

> <r_i_glide_emodel>
-40.3297372608829

> <r_i_glide_energy>
-40.795923948288

> <r_i_glide_einternal>
8.74135398864746

> <i_i_glide_confnum>
97

> <i_i_glide_posenum>
165

> <r_i_glide_eff_state_penalty>
0

> <s_user_duplicate_titles>
CHEMBL4618_lig18

> <s_m_subgroup_title>
dock_pv

> <s_m_subgroupid>
dock_pv

> <b_m_subgroup_collapsed>
1

$$$$
CHEMBL4618_lig3
                    3D
 Schrodinger Suite 2021-1.
 28 29  0  0  1  0            999 V2000
    9.9989   42.4817   66.5255 O   0  0  0  0  0  0
    9.4294   41.4069   67.1921 C   0  0  0  0  0  0
    9.5156   40.0873   66.7400 C   0  0  0  0  0  0
    8.9210   39.0387   67.4270 C   0  0  0  0  0  0
    8.2632   39.2767   68.6218 C   0  0  0  0  0  0
    8.1210   40.6021   69.0540 C   0  0  0  0  0  0
    8.6828   41.6600   68.3394 C   0  0  0  0  0  0
   11.2685   42.4671   65.9633 C   0  0  0  0  0  0
   11.6510   43.5598   65.1846 C   0  0  0  0  0  0
   12.9210   43.6257   64.6026 C   0  0  0  0  0  0
   13.8153   42.5730   64.7879 C   0  0  0  0  0  0
   13.4388   41.4691   65.5400 C   0  0  0  0  0  0
   12.1948   41.4407   66.1556 C   0  0  0  0  0  0
    7.8116   38.1576   69.2914 O   0  0  0  0  0  0
    7.5267   38.2435   70.6814 C   0  0  0  0  0  0
   15.0839   42.6160   64.2712 O   0  0  0  0  0  0
   10.0702   39.8502   65.8535 H   0  0  0  0  0  0
    9.0216   38.0279   67.0604 H   0  0  0  0  0  0
    7.5793   40.8359   69.9399 H   0  0  0  0  0  0
    8.5604   42.6751   68.6888 H   0  0  0  0  0  0
   10.9593   44.3775   65.0741 H   0  0  0  0  0  0
   13.2123   44.4924   64.0274 H   0  0  0  0  0  0
   14.1210   40.6459   65.6849 H   0  0  0  0  0  0
   11.9552   40.6160   66.7919 H   0  0  0  0  0  0
    7.5718   37.2439   71.1134 H   0  0  0  0  0  0
    6.5210   38.6160   70.8489 H   0  0  0  0  0  0
    8.2399   38.8661   71.2249 H   0  0  0  0  0  0
   15.2430   43.3604   63.6750 H   0  0  0  0  0  0
  1  2  1  0  0  0
  1  8  1  0  0  0
  2  7  2  0  0  0
  2  3  1  0  0  0
  3  4  2  0  0  0
  3 17  1  0  0  0
  4  5  1  0  0  0
  4 18  1  0  0  0
  5  6  2  0  0  0
  5 14  1  0  0  0
  6  7  1  0  0  0
  6 19  1  0  0  0
  7 20  1  0  0  0
  8  9  1  0  0  0
  8 13  2  0  0  0
  9 10  2  0  0  0
  9 21  1  0  0  0
 10 11  1  0  0  0
 10 22  1  0  0  0
 11 12  2  0  0  0
 11 16  1  0  0  0
 12 13  1  0  0  0
 12 23  1  0  0  0
 13 24  1  0  0  0
 14 15  1  0  0  0
 15 25  1  0  0  0
 15 26  1  0  0  0
 15 27  1  0  0  0
 16 28  1  0  0  0
M  END
> <s_m_entry_id>
7036

> <s_m_entry_name>
dock_pv.466

> <s_m_Source_Path>
/home/csk/Desktop/cluster/DUD-E-result/lkha4

> <s_m_Source_File>
dock_pv.maegz

> <i_m_Source_File_Index>
466

> <chembl_id>
CHEMBL444161

> <chembl_pref_name>
None

> <i_lp_mmshare_version>
53161

> <i_f3d_flags>
0

> <r_lp_tautomer_probability>
1

> <s_lp_Force_Field>
OPLS_2005

> <r_lp_Energy>
14.704898

> <b_lp_Chiralities_Consistent>
1

> <s_lp_Variant>
CHEMBL4618_lig3-1

> <s_i_glide_gridfile>
glide-grid_3chp

> <i_i_glide_lignum>
3

> <i_i_glide_rotatable_bonds>
4

> <r_i_docking_score>
-7.61313428566489

> <r_i_glide_ligand_efficiency>
-0.475820892854056

> <r_i_glide_ligand_efficiency_sa>
-1.19899351666509

> <r_i_glide_ligand_efficiency_ln>
-2.01801331822489

> <r_i_glide_gscore>
-7.61313428566489

> <r_i_glide_lipo>
-3.72661686279514

> <r_i_glide_hbond>
-0.32

> <r_i_glide_metal>
0

> <r_i_glide_rewards>
-1.90624524449611

> <r_i_glide_evdw>
-30.6629180908203

> <r_i_glide_ecoul>
-5.62474870681763

> <r_i_glide_erotb>
0.716586032190014

> <r_i_glide_esite>
0

> <r_i_glide_emodel>
-56.1187746798688

> <r_i_glide_energy>
-36.2876667976379

> <r_i_glide_einternal>
2.30624938011169

> <i_i_glide_confnum>
1

> <i_i_glide_posenum>
148

> <r_i_glide_eff_state_penalty>
0

> <s_user_duplicate_titles>
CHEMBL4618_lig3

> <s_m_subgroup_title>
dock_pv

> <s_m_subgroupid>
dock_pv

> <b_m_subgroup_collapsed>
1

$$$$
CHEMBL4618_lig256
                    3D
 Schrodinger Suite 2021-1.
 71 73  0  0  1  0            999 V2000
   19.8253   43.8288   67.5488 C   0  0  0  0  0  0
   19.8710   43.2187   66.2949 C   0  0  0  0  0  0
   18.7086   43.0963   65.5401 C   0  0  0  0  0  0
   17.4953   43.5828   66.0285 C   0  0  0  0  0  0
   17.4642   44.2302   67.2746 C   0  0  0  0  0  0
   18.6256   44.3491   68.0301 C   0  0  0  0  0  0
   16.3656   43.4164   65.2028 N   0  0  0  0  0  0
   15.0643   43.4125   65.5691 C   0  0  0  0  0  0
   14.0100   43.2850   64.4432 C   0  0  0  0  0  0
   14.6959   43.4919   66.7379 O   0  0  0  0  0  0
   12.9419   42.3400   64.7791 N   0  0  1  0  0  0
   20.9528   43.9152   68.3273 O   0  0  0  0  0  0
   21.4018   42.7371   68.8732 C   0  0  0  0  0  0
   20.7741   42.2049   70.0027 C   0  0  0  0  0  0
   21.2119   40.9954   70.5345 C   0  0  0  0  0  0
   22.2741   40.3260   69.9323 C   0  0  0  0  0  0
   22.9059   40.8530   68.8101 C   0  0  0  0  0  0
   22.4730   42.0668   68.2822 C   0  0  0  0  0  0
   13.3778   40.9491   64.9457 C   0  0  0  0  0  0
   11.8584   42.8416   65.6429 C   0  0  0  0  0  0
   10.9099   41.7800   66.2474 C   0  0  0  0  0  0
    9.5245   42.3312   66.6256 C   0  0  0  0  0  0
    8.8349   41.5479   67.6573 N   0  0  2  0  0  0
    8.6637   40.1112   67.3520 C   0  0  0  0  0  0
    7.5693   42.2152   67.9732 C   0  0  0  0  0  0
    8.0607   39.2887   68.5347 C   0  0  2  0  0  0
    8.8699   39.5069   69.8255 C   0  0  0  0  0  0
    8.3383   38.7126   71.0213 C   0  0  0  0  0  0
    8.5136   37.2401   70.6461 C   0  0  2  0  0  0
    7.5820   36.8864   69.4638 C   0  0  0  0  0  0
    7.9452   37.7683   68.2307 C   0  0  0  0  0  0
    8.3649   36.3224   71.8731 C   0  0  0  0  0  0
    8.5210   35.0153   71.5403 O   0  0  0  0  0  0
    8.2105   36.7210   73.0248 O   0  0  0  0  0  0
   20.8000   42.8232   65.9132 H   0  0  0  0  0  0
   18.7633   42.6152   64.5752 H   0  0  0  0  0  0
   16.5526   44.6430   67.6788 H   0  0  0  0  0  0
   18.5929   44.8196   68.9998 H   0  0  0  0  0  0
   16.5575   43.3465   64.2104 H   0  0  0  0  0  0
   13.5960   44.2761   64.2514 H   0  0  0  0  0  0
   14.4888   42.9756   63.5119 H   0  0  0  0  0  0
   19.9420   42.7217   70.4572 H   0  0  0  0  0  0
   20.7318   40.5695   71.4049 H   0  0  0  0  0  0
   22.6064   39.3828   70.3387 H   0  0  0  0  0  0
   23.7217   40.3210   68.3404 H   0  0  0  0  0  0
   22.9580   42.4719   67.4067 H   0  0  0  0  0  0
   12.5781   40.2291   64.7832 H   0  0  0  0  0  0
   14.1526   40.7032   64.2193 H   0  0  0  0  0  0
   13.7812   40.7768   65.9400 H   0  0  0  0  0  0
   12.2782   43.4093   66.4706 H   0  0  0  0  0  0
   11.2776   43.5666   65.0722 H   0  0  0  0  0  0
   10.7688   40.9686   65.5401 H   0  0  0  0  0  0
   11.3670   41.3242   67.1256 H   0  0  0  0  0  0
    9.6349   43.3647   66.9604 H   0  0  0  0  0  0
    8.9037   42.3754   65.7282 H   0  0  0  0  0  0
    8.0783   39.9913   66.4429 H   0  0  0  0  0  0
    9.6375   39.6779   67.1215 H   0  0  0  0  0  0
    7.0875   41.7875   68.8521 H   0  0  0  0  0  0
    7.7242   43.2718   68.2017 H   0  0  0  0  0  0
    6.8716   42.1586   67.1403 H   0  0  0  0  0  0
    7.0414   39.6148   68.7392 H   0  0  0  0  0  0
    9.8913   39.1955   69.6157 H   0  0  0  0  0  0
    8.9094   40.5697   70.0425 H   0  0  0  0  0  0
    8.9217   39.0120   71.8903 H   0  0  0  0  0  0
    7.2915   38.9601   71.1506 H   0  0  0  0  0  0
    9.5455   37.0673   70.3902 H   0  0  0  0  0  0
    6.5388   37.0926   69.7086 H   0  0  0  0  0  0
    7.7210   35.8560   69.1377 H   0  0  0  0  0  0
    7.2577   37.6108   67.4019 H   0  0  0  0  0  0
    8.9143   37.4216   67.8708 H   0  0  0  0  0  0
    8.3132   34.8193   70.6229 H   0  0  0  0  0  0
  1 12  1  0  0  0
  1  6  1  0  0  0
  1  2  2  0  0  0
  2  3  1  0  0  0
  2 35  1  0  0  0
  3  4  2  0  0  0
  3 36  1  0  0  0
  4  5  1  0  0  0
  4  7  1  0  0  0
  5  6  2  0  0  0
  5 37  1  0  0  0
  6 38  1  0  0  0
  7  8  1  0  0  0
  7 39  1  0  0  0
  8  9  1  0  0  0
  8 10  2  0  0  0
  9 11  1  0  0  0
  9 40  1  0  0  0
  9 41  1  0  0  0
 11 19  1  0  0  0
 11 20  1  0  0  0
 12 13  1  0  0  0
 13 18  1  0  0  0
 13 14  2  0  0  0
 14 15  1  0  0  0
 14 42  1  0  0  0
 15 16  2  0  0  0
 15 43  1  0  0  0
 16 17  1  0  0  0
 16 44  1  0  0  0
 17 18  2  0  0  0
 17 45  1  0  0  0
 18 46  1  0  0  0
 19 47  1  0  0  0
 19 48  1  0  0  0
 19 49  1  0  0  0
 20 21  1  0  0  0
 20 50  1  0  0  0
 20 51  1  0  0  0
 21 22  1  0  0  0
 21 52  1  0  0  0
 21 53  1  0  0  0
 22 23  1  0  0  0
 22 54  1  0  0  0
 22 55  1  0  0  0
 23 24  1  0  0  0
 23 25  1  0  0  0
 24 26  1  0  0  0
 24 56  1  0  0  0
 24 57  1  0  0  0
 25 58  1  0  0  0
 25 59  1  0  0  0
 25 60  1  0  0  0
 26 27  1  0  0  0
 26 31  1  0  0  0
 26 61  1  0  0  0
 27 28  1  0  0  0
 27 62  1  0  0  0
 27 63  1  0  0  0
 28 29  1  0  0  0
 28 64  1  0  0  0
 28 65  1  0  0  0
 29 30  1  0  0  0
 29 32  1  0  0  0
 29 66  1  0  0  0
 30 31  1  0  0  0
 30 67  1  0  0  0
 30 68  1  0  0  0
 31 69  1  0  0  0
 31 70  1  0  0  0
 32 33  1  0  0  0
 32 34  2  0  0  0
 33 71  1  0  0  0
M  END
> <s_m_entry_id>
7037

> <s_m_entry_name>
dock_pv.467

> <s_m_Source_Path>
/home/csk/Desktop/cluster/DUD-E-result/lkha4

> <s_m_Source_File>
dock_pv.maegz

> <i_m_Source_File_Index>
467

> <chembl_id>
CHEMBL479401

> <chembl_pref_name>
None

> <i_lp_mmshare_version>
53161

> <i_f3d_flags>
0

> <r_lp_tautomer_probability>
1

> <s_lp_Force_Field>
OPLS_2005

> <r_lp_Energy>
47.199573

> <b_lp_Chiralities_Consistent>
1

> <s_lp_Variant>
CHEMBL4618_lig256-1

> <s_i_glide_gridfile>
glide-grid_3chp

> <i_i_glide_lignum>
293

> <i_i_glide_rotatable_bonds>
14

> <r_i_docking_score>
-7.58899928779948

> <r_i_glide_ligand_efficiency>
-0.223205861405867

> <r_i_glide_ligand_efficiency_sa>
-0.723100341874782

> <r_i_glide_ligand_efficiency_ln>
-1.67662280689474

> <r_i_glide_gscore>
-7.58899928779948

> <r_i_glide_lipo>
-3.46304044054227

> <r_i_glide_hbond>
-0.0468118881322469

> <r_i_glide_metal>
0

> <r_i_glide_rewards>
-1.0304028484565

> <r_i_glide_evdw>
-54.5301551818848

> <r_i_glide_ecoul>
-9.25209331512451

> <r_i_glide_erotb>
1.20002944856678

> <r_i_glide_esite>
-0.134451802872327

> <r_i_glide_emodel>
-81.5836230033807

> <r_i_glide_energy>
-63.7822484970093

> <r_i_glide_einternal>
14.3310852050781

> <i_i_glide_confnum>
19

> <i_i_glide_posenum>
391

> <r_i_glide_eff_state_penalty>
0

> <s_user_duplicate_titles>
CHEMBL4618_lig256,467627

> <s_m_subgroup_title>
dock_pv

> <s_m_subgroupid>
dock_pv

> <b_m_subgroup_collapsed>
1

$$$$
CHEMBL4618_lig251
                    3D
 Schrodinger Suite 2021-1.
 62 64  0  0  1  0            999 V2000
    8.6258   36.6763   71.1549 C   0  0  0  0  0  0
    9.2810   37.8592   71.4935 C   0  0  0  0  0  0
    9.0695   39.0043   70.7399 C   0  0  0  0  0  0
    8.2502   38.9964   69.6178 C   0  0  0  0  0  0
    7.6049   37.8192   69.2523 C   0  0  0  0  0  0
    7.7973   36.6789   70.0284 C   0  0  0  0  0  0
    8.1071   40.1798   68.8809 N   0  0  0  0  0  0
    8.5922   40.3515   67.6350 C   0  0  0  0  0  0
    8.6159   41.7995   67.0804 C   0  0  0  0  0  0
    9.0455   39.4254   66.9630 O   0  0  0  0  0  0
    9.8658   42.1527   66.3660 N   0  0  1  0  0  0
    8.7831   35.4835   71.8419 O   0  0  0  0  0  0
    9.6556   35.3040   72.9016 C   0  0  0  0  0  0
    9.6413   36.1112   74.0475 C   0  0  0  0  0  0
   10.4890   35.8224   75.1167 C   0  0  0  0  0  0
   11.3178   34.7065   75.0614 C   0  0  0  0  0  0
   11.3172   33.8826   73.9410 C   0  0  0  0  0  0
   10.4875   34.1847   72.8631 C   0  0  0  0  0  0
    9.6753   43.4871   65.7974 C   0  0  0  0  0  0
   11.0685   42.1902   67.2100 C   0  0  0  0  0  0
   12.4579   41.8804   66.5723 C   0  0  0  0  0  0
   12.8704   42.4683   65.2067 C   0  0  0  0  0  0
   14.3288   42.5403   65.0488 N   0  0  2  0  0  0
   14.8862   43.7276   65.7091 C   0  0  0  0  0  0
   14.5839   42.6224   63.6130 C   0  0  0  0  0  0
   16.3817   43.6222   65.9561 C   0  0  0  0  0  0
   17.4307   42.9003   65.4024 C   0  0  0  0  0  0
   18.5962   43.2692   66.0677 C   0  0  0  0  0  0
   18.2193   44.2308   66.9969 C   0  0  0  0  0  0
   16.8772   44.4460   66.9133 O   0  0  0  0  0  0
   18.9706   45.0335   67.9119 C   0  0  0  0  0  0
   20.2433   44.5708   68.1001 O   0  0  0  0  0  0
   18.5339   46.0779   68.3969 O   0  0  0  0  0  0
    9.9645   37.9205   72.3239 H   0  0  0  0  0  0
    9.5808   39.8787   71.0575 H   0  0  0  0  0  0
    6.9725   37.7867   68.3771 H   0  0  0  0  0  0
    7.3208   35.7796   69.7266 H   0  0  0  0  0  0
    7.7801   40.9933   69.3832 H   0  0  0  0  0  0
    7.7713   41.8701   66.3920 H   0  0  0  0  0  0
    8.4144   42.5059   67.8889 H   0  0  0  0  0  0
    8.9628   36.9489   74.1217 H   0  0  0  0  0  0
   10.4764   36.4477   75.9985 H   0  0  0  0  0  0
   11.9489   34.4697   75.9043 H   0  0  0  0  0  0
   11.9529   33.0113   73.9116 H   0  0  0  0  0  0
   10.4687   33.5338   72.0029 H   0  0  0  0  0  0
   10.5622   43.9041   65.3353 H   0  0  0  0  0  0
    8.9191   43.4507   65.0284 H   0  0  0  0  0  0
    9.3322   44.2023   66.5463 H   0  0  0  0  0  0
   11.1024   43.1008   67.8141 H   0  0  0  0  0  0
   10.9291   41.3979   67.9382 H   0  0  0  0  0  0
   13.2350   42.2172   67.2512 H   0  0  0  0  0  0
   12.5488   40.7790   66.4975 H   0  0  0  0  0  0
   12.5245   41.7655   64.4553 H   0  0  0  0  0  0
   12.4199   43.4336   64.9765 H   0  0  0  0  0  0
   14.6466   44.6258   65.1363 H   0  0  0  0  0  0
   14.4071   43.8755   66.6766 H   0  0  0  0  0  0
   15.6414   42.6650   63.3528 H   0  0  0  0  0  0
   14.1744   41.7376   63.1402 H   0  0  0  0  0  0
   14.0938   43.4785   63.1526 H   0  0  0  0  0  0
   17.3808   42.2164   64.5720 H   0  0  0  0  0  0
   19.5891   42.9056   65.8471 H   0  0  0  0  0  0
   20.4033   43.7400   67.6476 H   0  0  0  0  0  0
  1 12  1  0  0  0
  1  6  1  0  0  0
  1  2  2  0  0  0
  2  3  1  0  0  0
  2 34  1  0  0  0
  3  4  2  0  0  0
  3 35  1  0  0  0
  4  5  1  0  0  0
  4  7  1  0  0  0
  5  6  2  0  0  0
  5 36  1  0  0  0
  6 37  1  0  0  0
  7  8  1  0  0  0
  7 38  1  0  0  0
  8  9  1  0  0  0
  8 10  2  0  0  0
  9 11  1  0  0  0
  9 39  1  0  0  0
  9 40  1  0  0  0
 11 19  1  0  0  0
 11 20  1  0  0  0
 12 13  1  0  0  0
 13 18  1  0  0  0
 13 14  2  0  0  0
 14 15  1  0  0  0
 14 41  1  0  0  0
 15 16  2  0  0  0
 15 42  1  0  0  0
 16 17  1  0  0  0
 16 43  1  0  0  0
 17 18  2  0  0  0
 17 44  1  0  0  0
 18 45  1  0  0  0
 19 46  1  0  0  0
 19 47  1  0  0  0
 19 48  1  0  0  0
 20 21  1  0  0  0
 20 49  1  0  0  0
 20 50  1  0  0  0
 21 22  1  0  0  0
 21 51  1  0  0  0
 21 52  1  0  0  0
 22 23  1  0  0  0
 22 53  1  0  0  0
 22 54  1  0  0  0
 23 24  1  0  0  0
 23 25  1  0  0  0
 24 26  1  0  0  0
 24 55  1  0  0  0
 24 56  1  0  0  0
 25 57  1  0  0  0
 25 58  1  0  0  0
 25 59  1  0  0  0
 26 27  2  0  0  0
 26 30  1  0  0  0
 27 28  1  0  0  0
 27 60  1  0  0  0
 28 29  2  0  0  0
 28 61  1  0  0  0
 29 30  1  0  0  0
 29 31  1  0  0  0
 31 32  1  0  0  0
 31 33  2  0  0  0
 32 62  1  0  0  0
M  END
> <s_m_entry_id>
7038

> <s_m_entry_name>
dock_pv.468

> <s_m_Source_Path>
/home/csk/Desktop/cluster/DUD-E-result/lkha4

> <s_m_Source_File>
dock_pv.maegz

> <i_m_Source_File_Index>
468

> <chembl_id>
CHEMBL519094

> <chembl_pref_name>
None

> <i_lp_mmshare_version>
53161

> <i_f3d_flags>
0

> <r_lp_tautomer_probability>
1

> <s_lp_Force_Field>
OPLS_2005

> <r_lp_Energy>
31.151515

> <b_lp_Chiralities_Consistent>
1

> <s_lp_Variant>
CHEMBL4618_lig251-1

> <s_i_glide_gridfile>
glide-grid_3chp

> <i_i_glide_lignum>
288

> <i_i_glide_rotatable_bonds>
14

> <r_i_docking_score>
-7.57681337711734

> <r_i_glide_ligand_efficiency>
-0.229600405367192

> <r_i_glide_ligand_efficiency_sa>
-0.736451181537891

> <r_i_glide_ligand_efficiency_ln>
-1.68504406443081

> <r_i_glide_gscore>
-7.57681337711734

> <r_i_glide_lipo>
-4.92601051314489

> <r_i_glide_hbond>
-0.123265631105494

> <r_i_glide_metal>
0

> <r_i_glide_rewards>
0.514901820410283

> <r_i_glide_evdw>
-61.6199150085449

> <r_i_glide_ecoul>
-7.86109590530396

> <r_i_glide_erotb>
1.27902834748376

> <r_i_glide_esite>
-0.061307264538161

> <r_i_glide_emodel>
-81.2144358931295

> <r_i_glide_energy>
-69.4810109138489

> <r_i_glide_einternal>
23.0757808685303

> <i_i_glide_confnum>
51

> <i_i_glide_posenum>
362

> <r_i_glide_eff_state_penalty>
0

> <s_user_duplicate_titles>
CHEMBL4618_lig251,466723

> <s_m_subgroup_title>
dock_pv

> <s_m_subgroupid>
dock_pv

> <b_m_subgroup_collapsed>
1

$$$$
CHEMBL4618_lig516
                    3D
 Schrodinger Suite 2021-1.
 38 39  0  0  1  0            999 V2000
    9.7210   41.1595   66.4045 O   0  0  0  0  0  0
    9.1334   40.3349   67.3418 C   0  0  0  0  0  0
    8.1282   38.4532   69.1806 C   0  0  0  0  0  0
   10.1210   37.0160   73.5399 S   0  0  0  0  0  0
   10.3497   42.3798   66.7903 C   0  0  0  0  0  0
    7.6112   37.4158   70.1890 C   0  0  0  0  0  0
    8.5209   35.4180   71.3765 N   0  0  0  0  0  0
    8.9117   39.0159   66.9571 C   0  0  0  0  0  0
    8.7724   40.7309   68.6324 C   0  0  0  0  0  0
    8.4121   38.0848   67.8665 C   0  0  0  0  0  0
    8.3106   39.7853   69.5456 C   0  0  0  0  0  0
   11.5978   42.5485   65.9364 C   0  0  0  0  0  0
    8.6827   36.8549   71.1719 C   0  0  2  0  0  0
    8.6874   37.5412   72.5535 C   0  0  0  0  0  0
   12.5514   41.5284   65.9127 C   0  0  0  0  0  0
   11.7833   43.6872   65.1473 C   0  0  0  0  0  0
   12.9210   43.8138   64.3545 C   0  0  0  0  0  0
   13.6821   41.6473   65.1124 C   0  0  0  0  0  0
   13.8660   42.7907   64.3397 C   0  0  0  0  0  0
    9.9055   37.9038   74.5261 H   0  0  0  0  0  0
    9.6521   43.2054   66.6428 H   0  0  0  0  0  0
   10.6697   42.4009   67.8329 H   0  0  0  0  0  0
    7.1731   36.6082   69.6051 H   0  0  0  0  0  0
    6.7664   37.8335   70.7380 H   0  0  0  0  0  0
    7.7681   35.2426   72.0266 H   0  0  0  0  0  0
    8.2478   34.9382   70.5232 H   0  0  0  0  0  0
    9.1680   38.6975   65.9571 H   0  0  0  0  0  0
    8.8912   41.7534   68.9567 H   0  0  0  0  0  0
    8.2868   37.0623   67.5477 H   0  0  0  0  0  0
    8.1211   40.0899   70.5581 H   0  0  0  0  0  0
    9.6659   37.0157   70.7398 H   0  0  0  0  0  0
    7.7857   37.3258   73.1294 H   0  0  0  0  0  0
    8.7375   38.6204   72.4295 H   0  0  0  0  0  0
   12.3886   40.6187   66.4672 H   0  0  0  0  0  0
   11.0460   44.4740   65.1424 H   0  0  0  0  0  0
   13.0770   44.6939   63.7476 H   0  0  0  0  0  0
   14.3971   40.8409   65.0718 H   0  0  0  0  0  0
   14.7371   42.8800   63.7049 H   0  0  0  0  0  0
  1  2  1  0  0  0
  1  5  1  0  0  0
  2  8  1  0  0  0
  2  9  2  0  0  0
  3 11  2  0  0  0
  3  6  1  0  0  0
  3 10  1  0  0  0
  4 14  1  0  0  0
  4 20  1  0  0  0
  5 12  1  0  0  0
  5 21  1  0  0  0
  5 22  1  0  0  0
  6 13  1  0  0  0
  6 23  1  0  0  0
  6 24  1  0  0  0
  7 13  1  0  0  0
  7 25  1  0  0  0
  7 26  1  0  0  0
  8 10  2  0  0  0
  8 27  1  0  0  0
  9 11  1  0  0  0
  9 28  1  0  0  0
 10 29  1  0  0  0
 11 30  1  0  0  0
 12 15  2  0  0  0
 12 16  1  0  0  0
 13 14  1  0  0  0
 13 31  1  0  0  0
 14 32  1  0  0  0
 14 33  1  0  0  0
 15 18  1  0  0  0
 15 34  1  0  0  0
 16 17  2  0  0  0
 16 35  1  0  0  0
 17 19  1  0  0  0
 17 36  1  0  0  0
 18 19  2  0  0  0
 18 37  1  0  0  0
 19 38  1  0  0  0
M  END
> <s_m_entry_id>
7039

> <s_m_entry_name>
dock_pv.469

> <s_m_Source_Path>
/home/csk/Desktop/cluster/DUD-E-result/lkha4

> <s_m_Source_File>
dock_pv.maegz

> <i_m_Source_File_Index>
469

> <chembl_id>
CHEMBL444791

> <chembl_pref_name>
None

> <i_lp_mmshare_version>
53161

> <i_f3d_flags>
0

> <r_lp_tautomer_probability>
1

> <s_lp_Force_Field>
OPLS_2005

> <r_lp_Energy>
19.365165

> <b_lp_Chiralities_Consistent>
1

> <s_lp_Variant>
CHEMBL4618_lig516-1

> <s_i_glide_gridfile>
glide-grid_3chp

> <i_i_glide_lignum>
616

> <i_i_glide_rotatable_bonds>
7

> <r_i_docking_score>
-7.57643807140045

> <r_i_glide_ligand_efficiency>
-0.398759898494761

> <r_i_glide_ligand_efficiency_sa>
-1.06405156954327

> <r_i_glide_ligand_efficiency_ln>
-1.92078977806916

> <r_i_glide_gscore>
-7.57643807140045

> <r_i_glide_lipo>
-4.79294420601484

> <r_i_glide_hbond>
-0.587639253783425

> <r_i_glide_metal>
0

> <r_i_glide_rewards>
-2.42449722876391

> <r_i_glide_evdw>
-35.3428382873535

> <r_i_glide_ecoul>
-5.8946852684021

> <r_i_glide_erotb>
2.87998732178971

> <r_i_glide_esite>
0

> <r_i_glide_emodel>
-55.8774846617422

> <r_i_glide_energy>
-41.2375235557556

> <r_i_glide_einternal>
7.32191324234009

> <i_i_glide_confnum>
81

> <i_i_glide_posenum>
28

> <r_i_glide_eff_state_penalty>
0

> <s_user_duplicate_titles>
CHEMBL4618_lig516,110371

> <s_m_subgroup_title>
dock_pv

> <s_m_subgroupid>
dock_pv

> <b_m_subgroup_collapsed>
1

$$$$
CHEMBL4618_lig365
                    3D
 Schrodinger Suite 2021-1.
 54 56  0  0  1  0            999 V2000
   10.1213   34.2261   72.4801 C   0  0  0  0  0  0
   10.7268   34.6147   73.6727 C   0  0  0  0  0  0
   10.3232   35.7682   74.3382 C   0  0  0  0  0  0
    9.3104   36.5459   73.7909 C   0  0  0  0  0  0
    8.7213   36.1887   72.5831 C   0  0  0  0  0  0
    9.1128   35.0160   71.9401 C   0  0  0  0  0  0
    7.7210   36.9706   72.0681 O   0  0  0  0  0  0
    7.9778   37.6301   70.8945 C   0  0  0  0  0  0
    7.7252   37.0313   69.6614 C   0  0  0  0  0  0
    7.9777   37.7370   68.4858 C   0  0  0  0  0  0
    8.4565   39.0444   68.5397 C   0  0  0  0  0  0
    8.6274   39.6532   69.7755 C   0  0  0  0  0  0
    8.4506   38.9338   70.9485 C   0  0  0  0  0  0
    8.7277   39.7416   67.3867 O   0  0  0  0  0  0
   10.0927   40.1483   67.2173 C   0  0  0  0  0  0
   10.2235   41.4426   66.4361 C   0  0  1  0  0  0
    9.3333   42.5813   66.9848 C   0  0  0  0  0  0
    9.4015   43.8154   66.0835 C   0  0  0  0  0  0
   10.8518   44.1321   65.7438 C   0  0  0  0  0  0
   11.4740   43.0152   64.9957 C   0  0  0  0  0  0
   11.5520   41.9075   65.9400 N   0  0  2  0  0  0
   11.9822   33.6510   74.3401 Cl  0  0  0  0  0  0
   12.5620   40.9585   65.4794 C   0  0  0  0  0  0
   13.9792   41.5046   65.6634 C   0  0  0  0  0  0
   14.6712   42.1938   64.4537 C   0  0  0  0  0  0
   16.1515   41.8160   64.3626 C   0  0  0  0  0  0
   16.5211   41.3578   63.1406 O   0  0  0  0  0  0
   16.8858   41.7359   65.3455 O   0  0  0  0  0  0
   10.4219   33.3133   71.9866 H   0  0  0  0  0  0
   10.7791   36.0490   75.2771 H   0  0  0  0  0  0
    8.9625   37.4160   74.3124 H   0  0  0  0  0  0
    8.6061   34.7076   71.0425 H   0  0  0  0  0  0
    7.3442   36.0234   69.6238 H   0  0  0  0  0  0
    7.8055   37.2642   67.5388 H   0  0  0  0  0  0
    8.9209   40.6875   69.8169 H   0  0  0  0  0  0
    8.5684   39.4153   71.9064 H   0  0  0  0  0  0
   10.5207   39.4157   66.5600 H   0  0  0  0  0  0
   10.6845   40.1988   68.1272 H   0  0  0  0  0  0
    9.7249   41.2275   65.5168 H   0  0  0  0  0  0
    9.6217   42.8340   68.0056 H   0  0  0  0  0  0
    8.2864   42.2713   66.9953 H   0  0  0  0  0  0
    8.8563   44.6456   66.5197 H   0  0  0  0  0  0
    8.9209   43.5959   65.1398 H   0  0  0  0  0  0
   11.4512   44.2160   66.6483 H   0  0  0  0  0  0
   10.9446   45.0160   65.1400 H   0  0  0  0  0  0
   12.4400   43.3665   64.6462 H   0  0  0  0  0  0
   10.8865   42.7645   64.1226 H   0  0  0  0  0  0
   12.5210   40.7439   64.4256 H   0  0  0  0  0  0
   12.4454   39.9941   65.9400 H   0  0  0  0  0  0
   14.5210   40.6159   65.9400 H   0  0  0  0  0  0
   14.0065   42.2157   66.4937 H   0  0  0  0  0  0
   14.5984   43.2799   64.5145 H   0  0  0  0  0  0
   14.1672   41.9107   63.5313 H   0  0  0  0  0  0
   15.8510   41.4160   62.4294 H   0  0  0  0  0  0
  1  2  2  0  0  0
  1  6  1  0  0  0
  1 29  1  0  0  0
  2  3  1  0  0  0
  2 22  1  0  0  0
  3  4  2  0  0  0
  3 30  1  0  0  0
  4  5  1  0  0  0
  4 31  1  0  0  0
  5  7  1  0  0  0
  5  6  2  0  0  0
  6 32  1  0  0  0
  7  8  1  0  0  0
  8  9  2  0  0  0
  8 13  1  0  0  0
  9 10  1  0  0  0
  9 33  1  0  0  0
 10 11  2  0  0  0
 10 34  1  0  0  0
 11 14  1  0  0  0
 11 12  1  0  0  0
 12 13  2  0  0  0
 12 35  1  0  0  0
 13 36  1  0  0  0
 14 15  1  0  0  0
 15 16  1  0  0  0
 15 37  1  0  0  0
 15 38  1  0  0  0
 16 17  1  0  0  0
 16 21  1  0  0  0
 16 39  1  0  0  0
 17 18  1  0  0  0
 17 40  1  0  0  0
 17 41  1  0  0  0
 18 19  1  0  0  0
 18 42  1  0  0  0
 18 43  1  0  0  0
 19 20  1  0  0  0
 19 44  1  0  0  0
 19 45  1  0  0  0
 20 21  1  0  0  0
 20 46  1  0  0  0
 20 47  1  0  0  0
 21 23  1  0  0  0
 23 24  1  0  0  0
 23 48  1  0  0  0
 23 49  1  0  0  0
 24 25  1  0  0  0
 24 50  1  0  0  0
 24 51  1  0  0  0
 25 26  1  0  0  0
 25 52  1  0  0  0
 25 53  1  0  0  0
 26 27  1  0  0  0
 26 28  2  0  0  0
 27 54  1  0  0  0
M  END
> <s_m_entry_id>
7040

> <s_m_entry_name>
dock_pv.470

> <s_m_Source_Path>
/home/csk/Desktop/cluster/DUD-E-result/lkha4

> <s_m_Source_File>
dock_pv.maegz

> <i_m_Source_File_Index>
470

> <chembl_id>
CHEMBL1098504

> <chembl_pref_name>
None

> <i_lp_mmshare_version>
53161

> <i_f3d_flags>
0

> <r_lp_tautomer_probability>
1

> <s_lp_Force_Field>
OPLS_2005

> <r_lp_Energy>
37.421704

> <b_lp_Chiralities_Consistent>
1

> <s_lp_Variant>
CHEMBL4618_lig365-1

> <s_i_glide_gridfile>
glide-grid_3chp

> <i_i_glide_lignum>
411

> <i_i_glide_rotatable_bonds>
10

> <r_i_docking_score>
-7.57600474349178

> <r_i_glide_ligand_efficiency>
-0.270571597981849

> <r_i_glide_ligand_efficiency_sa>
-0.821614729621863

> <r_i_glide_ligand_efficiency_ln>
-1.74876433596284

> <r_i_glide_gscore>
-7.57600474349178

> <r_i_glide_lipo>
-5.13656476690697

> <r_i_glide_hbond>
-0.304

> <r_i_glide_metal>
0

> <r_i_glide_rewards>
-0.0906430553116948

> <r_i_glide_evdw>
-23.6973667144775

> <r_i_glide_ecoul>
-12.2889204025269

> <r_i_glide_erotb>
1.08340947482979

> <r_i_glide_esite>
-0.1

> <r_i_glide_emodel>
-30.5830335830972

> <r_i_glide_energy>
-35.9862871170044

> <r_i_glide_einternal>
17.2792320251465

> <i_i_glide_confnum>
65

> <i_i_glide_posenum>
363

> <r_i_glide_eff_state_penalty>
0

> <s_user_duplicate_titles>
CHEMBL4618_lig365,627542

> <s_m_subgroup_title>
dock_pv

> <s_m_subgroupid>
dock_pv

> <b_m_subgroup_collapsed>
1

$$$$
CHEMBL4618_lig102
                    3D
 Schrodinger Suite 2021-1.
 47 49  0  0  1  0            999 V2000
   17.7326   42.6159   66.1853 N   0  0  0  0  0  0
   11.2091   42.5594   65.9166 C   0  0  0  0  0  0
   13.8775   42.0785   65.1358 C   0  0  0  0  0  0
    9.7475   42.8476   66.2879 C   0  0  0  0  0  0
    9.2346   42.3725   67.6712 C   0  0  0  0  0  0
   11.8806   43.4521   65.0787 C   0  0  0  0  0  0
   11.8834   41.4160   66.3404 C   0  0  0  0  0  0
   13.1940   41.1749   65.9395 C   0  0  0  0  0  0
   13.1978   43.2211   64.6860 C   0  0  0  0  0  0
   15.2109   41.7920   64.8849 O   0  0  0  0  0  0
    8.7867   40.9152   67.8382 C   0  0  0  0  0  0
   17.5017   42.7110   64.7403 C   0  0  0  0  0  0
   16.0226   42.8371   64.3575 C   0  0  0  0  0  0
   19.1556   42.5958   66.5001 C   0  0  0  0  0  0
   17.2409   43.7357   66.9778 C   0  0  0  0  0  0
    8.1210   40.5657   69.0165 C   0  0  0  0  0  0
    9.0167   39.9281   66.8718 C   0  0  0  0  0  0
   17.9351   43.5865   68.3318 C   0  0  0  0  0  0
   19.2451   42.8656   68.0035 C   0  0  0  0  0  0
    7.7229   39.2505   69.2439 C   0  0  0  0  0  0
    8.6176   38.6161   67.0956 C   0  0  0  0  0  0
    7.9799   38.2751   68.2849 C   0  0  0  0  0  0
    9.0879   42.4831   65.5026 H   0  0  0  0  0  0
    9.6236   43.9317   66.2742 H   0  0  0  0  0  0
    8.3624   42.9852   67.9114 H   0  0  0  0  0  0
    9.9722   42.6168   68.4357 H   0  0  0  0  0  0
   11.3799   44.3435   64.7391 H   0  0  0  0  0  0
   11.4168   40.7091   67.0047 H   0  0  0  0  0  0
   13.7205   40.2971   66.2899 H   0  0  0  0  0  0
   13.6806   43.9390   64.0385 H   0  0  0  0  0  0
   17.9262   41.8431   64.2398 H   0  0  0  0  0  0
   18.0236   43.5860   64.3494 H   0  0  0  0  0  0
   15.9239   42.8443   63.2714 H   0  0  0  0  0  0
   15.7076   43.8065   64.7408 H   0  0  0  0  0  0
   19.5740   41.6259   66.2266 H   0  0  0  0  0  0
   19.7222   43.3217   65.9122 H   0  0  0  0  0  0
   17.4369   44.6979   66.4999 H   0  0  0  0  0  0
   16.1560   43.6625   67.0634 H   0  0  0  0  0  0
    7.9128   41.3162   69.7653 H   0  0  0  0  0  0
    9.5260   40.1474   65.9440 H   0  0  0  0  0  0
   18.1015   44.5578   68.7977 H   0  0  0  0  0  0
   17.3215   42.9997   69.0171 H   0  0  0  0  0  0
   19.3379   41.9329   68.5625 H   0  0  0  0  0  0
   20.1146   43.4787   68.2382 H   0  0  0  0  0  0
    7.2241   38.9915   70.1659 H   0  0  0  0  0  0
    8.8477   37.8667   66.3491 H   0  0  0  0  0  0
    7.6836   37.2521   68.4640 H   0  0  0  0  0  0
  1 12  1  0  0  0
  1 14  1  0  0  0
  1 15  1  0  0  0
  2  6  1  0  0  0
  2  4  1  0  0  0
  2  7  2  0  0  0
  3 10  1  0  0  0
  3  8  2  0  0  0
  3  9  1  0  0  0
  4  5  1  0  0  0
  4 23  1  0  0  0
  4 24  1  0  0  0
  5 11  1  0  0  0
  5 25  1  0  0  0
  5 26  1  0  0  0
  6  9  2  0  0  0
  6 27  1  0  0  0
  7  8  1  0  0  0
  7 28  1  0  0  0
  8 29  1  0  0  0
  9 30  1  0  0  0
 10 13  1  0  0  0
 11 16  2  0  0  0
 11 17  1  0  0  0
 12 13  1  0  0  0
 12 31  1  0  0  0
 12 32  1  0  0  0
 13 33  1  0  0  0
 13 34  1  0  0  0
 14 19  1  0  0  0
 14 35  1  0  0  0
 14 36  1  0  0  0
 15 18  1  0  0  0
 15 37  1  0  0  0
 15 38  1  0  0  0
 16 20  1  0  0  0
 16 39  1  0  0  0
 17 21  2  0  0  0
 17 40  1  0  0  0
 18 19  1  0  0  0
 18 41  1  0  0  0
 18 42  1  0  0  0
 19 43  1  0  0  0
 19 44  1  0  0  0
 20 22  2  0  0  0
 20 45  1  0  0  0
 21 22  1  0  0  0
 21 46  1  0  0  0
 22 47  1  0  0  0
M  END
> <s_m_entry_id>
7041

> <s_m_entry_name>
dock_pv.471

> <s_m_Source_Path>
/home/csk/Desktop/cluster/DUD-E-result/lkha4

> <s_m_Source_File>
dock_pv.maegz

> <i_m_Source_File_Index>
471

> <chembl_id>
CHEMBL351207

> <chembl_pref_name>
None

> <i_lp_mmshare_version>
53161

> <i_f3d_flags>
0

> <r_lp_tautomer_probability>
1

> <s_lp_Force_Field>
OPLS_2005

> <r_lp_Energy>
36.702786

> <b_lp_Chiralities_Consistent>
1

> <s_lp_Variant>
CHEMBL4618_lig102-1

> <s_i_glide_gridfile>
glide-grid_3chp

> <i_i_glide_lignum>
126

> <i_i_glide_rotatable_bonds>
7

> <r_i_docking_score>
-7.57524703398103

> <r_i_glide_ligand_efficiency>
-0.344329410635501

> <r_i_glide_ligand_efficiency_sa>
-0.964824550307959

> <r_i_glide_ligand_efficiency_ln>
-1.85166668895419

> <r_i_glide_gscore>
-7.57524703398103

> <r_i_glide_lipo>
-4.50976085851824

> <r_i_glide_hbond>
-0.190072665064347

> <r_i_glide_metal>
0

> <r_i_glide_rewards>
-2.2874116699288

> <r_i_glide_evdw>
-37.047908782959

> <r_i_glide_ecoul>
-8.34951877593994

> <r_i_glide_erotb>
2.51682141506931

> <r_i_glide_esite>
0

> <r_i_glide_emodel>
-64.5937348202229

> <r_i_glide_energy>
-45.3974275588989

> <r_i_glide_einternal>
5.38084125518799

> <i_i_glide_confnum>
2

> <i_i_glide_posenum>
371

> <r_i_glide_eff_state_penalty>
0

> <s_user_duplicate_titles>
CHEMBL4618_lig102,271348

> <s_m_subgroup_title>
dock_pv

> <s_m_subgroupid>
dock_pv

> <b_m_subgroup_collapsed>
1

$$$$
CHEMBL4618_lig227
                    3D
 Schrodinger Suite 2021-1.
 66 69  0  0  1  0            999 V2000
    8.8637   40.7934   67.6666 C   0  0  0  0  0  0
    9.7610   40.0407   66.9116 C   0  0  0  0  0  0
   10.8911   40.6372   66.3401 C   0  0  0  0  0  0
   11.1170   42.0087   66.4883 C   0  0  0  0  0  0
   10.1390   42.7603   67.1325 C   0  0  0  0  0  0
    9.0241   42.1717   67.7248 C   0  0  0  0  0  0
   12.2842   42.7073   66.0840 N   0  0  0  0  0  0
   13.4413   42.2560   65.5396 C   0  0  0  0  0  0
   14.5853   43.3175   65.4486 C   0  0  0  0  0  0
   13.6099   41.0995   65.1563 O   0  0  0  0  0  0
    7.8084   40.2183   68.3400 O   0  0  0  0  0  0
    8.0307   39.0993   69.1075 C   0  0  0  0  0  0
    8.5275   39.2374   70.3990 C   0  0  0  0  0  0
    8.7031   38.1351   71.2277 C   0  0  0  0  0  0
    8.3943   36.8719   70.7414 C   0  0  0  0  0  0
    7.9191   36.7220   69.4428 C   0  0  0  0  0  0
    7.7208   37.8310   68.6239 C   0  0  0  0  0  0
   15.9533   42.8284   65.1404 N   0  0  2  0  0  0
   18.1486   43.5330   67.5029 N   0  0  1  0  0  0
   17.9281   44.8310   68.1654 C   0  0  0  0  0  0
   17.4812   44.8119   69.6307 C   0  0  0  0  0  0
   18.0415   43.9561   70.5878 C   0  0  0  0  0  0
   17.6289   44.0102   71.9152 C   0  0  0  0  0  0
   16.6585   44.9381   72.3171 C   0  0  0  0  0  0
   16.1207   45.8107   71.3637 C   0  0  0  0  0  0
   16.5265   45.7487   70.0347 C   0  0  0  0  0  0
   16.1864   45.0039   73.7497 C   0  0  0  0  0  0
   16.7499   44.0934   74.5909 O   0  0  0  0  0  0
   15.3531   45.8216   74.1350 O   0  0  0  0  0  0
   18.2424   43.7194   66.0518 C   0  0  1  0  0  0
   19.1397   42.6234   65.5107 C   0  0  0  0  0  0
   20.0475   42.2425   66.6682 C   0  0  0  0  0  0
   19.4076   42.8891   67.8994 C   0  0  0  0  0  0
   16.9471   43.9389   65.2205 C   0  0  0  0  0  0
   16.0581   42.2163   63.8049 C   0  0  0  0  0  0
    9.6190   38.9768   66.8061 H   0  0  0  0  0  0
   11.5810   40.0078   65.8008 H   0  0  0  0  0  0
   10.2617   43.8159   67.2100 H   0  0  0  0  0  0
    8.3061   42.7794   68.2585 H   0  0  0  0  0  0
   12.2770   43.6866   66.3239 H   0  0  0  0  0  0
   14.2699   44.0855   64.7402 H   0  0  0  0  0  0
   14.6124   43.8161   66.4207 H   0  0  0  0  0  0
    8.7459   40.2158   70.7695 H   0  0  0  0  0  0
    9.0703   38.2555   72.2366 H   0  0  0  0  0  0
    8.5307   36.0009   71.3660 H   0  0  0  0  0  0
    7.7210   35.7380   69.0636 H   0  0  0  0  0  0
    7.3361   37.7122   67.6214 H   0  0  0  0  0  0
   18.8394   45.4282   68.1193 H   0  0  0  0  0  0
   17.1649   45.3763   67.6081 H   0  0  0  0  0  0
   18.7994   43.2370   70.3332 H   0  0  0  0  0  0
   18.0756   43.3213   72.6193 H   0  0  0  0  0  0
   15.3697   46.5393   71.6420 H   0  0  0  0  0  0
   16.0885   46.4318   69.3229 H   0  0  0  0  0  0
   16.4028   44.2208   75.4754 H   0  0  0  0  0  0
   18.7945   44.6399   65.8434 H   0  0  0  0  0  0
   18.5307   41.8159   65.1418 H   0  0  0  0  0  0
   19.7498   42.9867   64.6836 H   0  0  0  0  0  0
   20.1194   41.1584   66.7631 H   0  0  0  0  0  0
   21.0545   42.6311   66.5114 H   0  0  0  0  0  0
   19.2033   42.0916   68.6142 H   0  0  0  0  0  0
   20.1209   43.5846   68.3471 H   0  0  0  0  0  0
   17.3194   44.2158   64.2300 H   0  0  0  0  0  0
   16.4700   44.8443   65.5908 H   0  0  0  0  0  0
   17.0864   41.9763   63.5416 H   0  0  0  0  0  0
   15.4941   41.2899   63.7213 H   0  0  0  0  0  0
   15.6788   42.8809   63.0279 H   0  0  0  0  0  0
  1 11  1  0  0  0
  1  6  1  0  0  0
  1  2  2  0  0  0
  2  3  1  0  0  0
  2 36  1  0  0  0
  3  4  2  0  0  0
  3 37  1  0  0  0
  4  5  1  0  0  0
  4  7  1  0  0  0
  5  6  2  0  0  0
  5 38  1  0  0  0
  6 39  1  0  0  0
  7  8  1  0  0  0
  7 40  1  0  0  0
  8  9  1  0  0  0
  8 10  2  0  0  0
  9 18  1  0  0  0
  9 41  1  0  0  0
  9 42  1  0  0  0
 11 12  1  0  0  0
 12 17  1  0  0  0
 12 13  2  0  0  0
 13 14  1  0  0  0
 13 43  1  0  0  0
 14 15  2  0  0  0
 14 44  1  0  0  0
 15 16  1  0  0  0
 15 45  1  0  0  0
 16 17  2  0  0  0
 16 46  1  0  0  0
 17 47  1  0  0  0
 18 34  1  0  0  0
 18 35  1  0  0  0
 19 20  1  0  0  0
 19 30  1  0  0  0
 19 33  1  0  0  0
 20 21  1  0  0  0
 20 48  1  0  0  0
 20 49  1  0  0  0
 21 26  1  0  0  0
 21 22  2  0  0  0
 22 23  1  0  0  0
 22 50  1  0  0  0
 23 24  2  0  0  0
 23 51  1  0  0  0
 24 25  1  0  0  0
 24 27  1  0  0  0
 25 26  2  0  0  0
 25 52  1  0  0  0
 26 53  1  0  0  0
 27 28  1  0  0  0
 27 29  2  0  0  0
 28 54  1  0  0  0
 30 31  1  0  0  0
 30 34  1  0  0  0
 30 55  1  0  0  0
 31 32  1  0  0  0
 31 56  1  0  0  0
 31 57  1  0  0  0
 32 33  1  0  0  0
 32 58  1  0  0  0
 32 59  1  0  0  0
 33 60  1  0  0  0
 33 61  1  0  0  0
 34 62  1  0  0  0
 34 63  1  0  0  0
 35 64  1  0  0  0
 35 65  1  0  0  0
 35 66  1  0  0  0
M  END
> <s_m_entry_id>
7042

> <s_m_entry_name>
dock_pv.472

> <s_m_Source_Path>
/home/csk/Desktop/cluster/DUD-E-result/lkha4

> <s_m_Source_File>
dock_pv.maegz

> <i_m_Source_File_Index>
472

> <chembl_id>
CHEMBL520098

> <chembl_pref_name>
None

> <i_lp_mmshare_version>
53161

> <i_f3d_flags>
0

> <r_lp_tautomer_probability>
1

> <s_lp_Force_Field>
OPLS_2005

> <r_lp_Energy>
69.706763

> <b_lp_Chiralities_Consistent>
1

> <s_lp_Variant>
CHEMBL4618_lig227-1

> <s_i_glide_gridfile>
glide-grid_3chp

> <i_i_glide_lignum>
258

> <i_i_glide_rotatable_bonds>
12

> <r_i_docking_score>
-7.56832034300325

> <r_i_glide_ligand_efficiency>
-0.216237724085807

> <r_i_glide_ligand_efficiency_sa>
-0.707327933410674

> <r_i_glide_ligand_efficiency_ln>
-1.66141428510925

> <r_i_glide_gscore>
-7.56832034300325

> <r_i_glide_lipo>
-4.18946326202536

> <r_i_glide_hbond>
-0.0556751635972465

> <r_i_glide_metal>
0

> <r_i_glide_rewards>
-0.73959547638321

> <r_i_glide_evdw>
-57.8351745605469

> <r_i_glide_ecoul>
-4.56018352508545

> <r_i_glide_erotb>
0.992199815792719

> <r_i_glide_esite>
0

> <r_i_glide_emodel>
-77.7139797025872

> <r_i_glide_energy>
-62.3953580856323

> <r_i_glide_einternal>
15.417594909668

> <i_i_glide_confnum>
23

> <i_i_glide_posenum>
34

> <r_i_glide_eff_state_penalty>
0

> <s_user_duplicate_titles>
CHEMBL4618_lig227,467181

> <s_m_subgroup_title>
dock_pv

> <s_m_subgroupid>
dock_pv

> <b_m_subgroup_collapsed>
1

$$$$
CHEMBL4618_lig339
                    3D
 Schrodinger Suite 2021-1.
 47 50  0  0  1  0            999 V2000
   12.9206   44.1918   63.8005 O   0  0  0  0  0  0
   13.1537   43.4299   64.7389 C   0  0  0  0  0  0
   14.5645   43.1857   65.1527 C   0  0  0  0  0  0
   14.9850   43.7394   66.3540 C   0  0  0  0  0  0
   16.3190   43.6974   66.7396 C   0  0  0  0  0  0
   17.2615   43.0565   65.9352 C   0  0  0  0  0  0
   18.6912   43.0290   66.3766 C   0  0  0  0  0  0
   19.7910   43.0211   65.5238 C   0  0  0  0  0  0
   21.3204   43.0085   66.3399 S   0  0  0  0  0  0
   20.5050   42.9859   67.8628 C   0  0  0  0  0  0
   19.1243   43.0157   67.7179 C   0  0  0  0  0  0
   16.8406   42.4728   64.7355 C   0  0  0  0  0  0
   15.5001   42.5398   64.3391 C   0  0  0  0  0  0
   12.0255   42.8394   65.5249 C   0  0  0  0  0  0
   12.1993   41.6683   66.2595 C   0  0  0  0  0  0
   11.1067   41.0863   66.8860 C   0  0  0  0  0  0
    9.8315   41.6379   66.8001 C   0  0  0  0  0  0
    9.6638   42.8348   66.1165 C   0  0  0  0  0  0
   10.7494   43.4152   65.4687 C   0  0  0  0  0  0
    8.7333   41.0490   67.3873 O   0  0  0  0  0  0
    8.6300   39.6236   67.2931 C   0  0  0  0  0  0
    7.8818   39.0371   68.5022 C   0  0  2  0  0  0
    8.5176   39.1763   69.8012 N   0  0  2  0  0  0
    7.8332   38.2093   70.6450 C   0  0  0  0  0  0
    7.5230   37.0071   69.7517 C   0  0  0  0  0  0
    7.6203   37.5448   68.3287 C   0  0  0  0  0  0
   14.2769   44.2158   67.0099 H   0  0  0  0  0  0
   16.6034   44.1594   67.6744 H   0  0  0  0  0  0
   19.7740   43.0348   64.4409 H   0  0  0  0  0  0
   21.0755   42.9501   68.7785 H   0  0  0  0  0  0
   18.4504   43.0054   68.5607 H   0  0  0  0  0  0
   17.5632   42.0273   64.0654 H   0  0  0  0  0  0
   15.2085   42.1583   63.3699 H   0  0  0  0  0  0
   13.1657   41.1864   66.3378 H   0  0  0  0  0  0
   11.2640   40.2160   67.4902 H   0  0  0  0  0  0
    8.6876   43.2940   66.0644 H   0  0  0  0  0  0
   10.5930   44.3258   64.9260 H   0  0  0  0  0  0
    8.1157   39.3933   66.3595 H   0  0  0  0  0  0
    9.5760   39.0929   67.2126 H   0  0  0  0  0  0
    6.9214   39.5519   68.5173 H   0  0  0  0  0  0
    8.3623   40.1158   70.1447 H   0  0  0  0  0  0
    6.9174   38.6163   71.0746 H   0  0  0  0  0  0
    8.4852   37.9273   71.4736 H   0  0  0  0  0  0
    6.5245   36.6174   69.9401 H   0  0  0  0  0  0
    8.2356   36.1990   69.9202 H   0  0  0  0  0  0
    6.6657   37.4159   67.8186 H   0  0  0  0  0  0
    8.3996   37.0422   67.7535 H   0  0  0  0  0  0
  1  2  2  0  0  0
  2 14  1  0  0  0
  2  3  1  0  0  0
  3 13  2  0  0  0
  3  4  1  0  0  0
  4  5  2  0  0  0
  4 27  1  0  0  0
  5  6  1  0  0  0
  5 28  1  0  0  0
  6 12  2  0  0  0
  6  7  1  0  0  0
  7 11  1  0  0  0
  7  8  2  0  0  0
  8  9  1  0  0  0
  8 29  1  0  0  0
  9 10  1  0  0  0
 10 11  2  0  0  0
 10 30  1  0  0  0
 11 31  1  0  0  0
 12 13  1  0  0  0
 12 32  1  0  0  0
 13 33  1  0  0  0
 14 15  2  0  0  0
 14 19  1  0  0  0
 15 16  1  0  0  0
 15 34  1  0  0  0
 16 17  2  0  0  0
 16 35  1  0  0  0
 17 20  1  0  0  0
 17 18  1  0  0  0
 18 19  2  0  0  0
 18 36  1  0  0  0
 19 37  1  0  0  0
 20 21  1  0  0  0
 21 22  1  0  0  0
 21 38  1  0  0  0
 21 39  1  0  0  0
 22 23  1  0  0  0
 22 26  1  0  0  0
 22 40  1  0  0  0
 23 24  1  0  0  0
 23 41  1  0  0  0
 24 25  1  0  0  0
 24 42  1  0  0  0
 24 43  1  0  0  0
 25 26  1  0  0  0
 25 44  1  0  0  0
 25 45  1  0  0  0
 26 46  1  0  0  0
 26 47  1  0  0  0
M  END
> <s_m_entry_id>
7043

> <s_m_entry_name>
dock_pv.473

> <s_m_Source_Path>
/home/csk/Desktop/cluster/DUD-E-result/lkha4

> <s_m_Source_File>
dock_pv.maegz

> <i_m_Source_File_Index>
473

> <chembl_id>
CHEMBL561639

> <chembl_pref_name>
None

> <i_lp_mmshare_version>
53161

> <i_f3d_flags>
0

> <r_lp_tautomer_probability>
1

> <s_lp_Force_Field>
OPLS_2005

> <r_lp_Energy>
44.988833

> <b_lp_Chiralities_Consistent>
1

> <s_lp_Variant>
CHEMBL4618_lig339-1

> <s_i_glide_gridfile>
glide-grid_3chp

> <i_i_glide_lignum>
383

> <i_i_glide_rotatable_bonds>
6

> <r_i_docking_score>
-7.56369680931278

> <r_i_glide_ligand_efficiency>
-0.290911415742799

> <r_i_glide_ligand_efficiency_sa>
-0.861823924456896

> <r_i_glide_ligand_efficiency_ln>
-1.77630937715359

> <r_i_glide_gscore>
-7.56369680931278

> <r_i_glide_lipo>
-3.60301284555874

> <r_i_glide_hbond>
-0.157013347902266

> <r_i_glide_metal>
0

> <r_i_glide_rewards>
-1.62244034220237

> <r_i_glide_evdw>
-49.4425239562988

> <r_i_glide_ecoul>
-3.87808299064636

> <r_i_glide_erotb>
0.872608372762497

> <r_i_glide_esite>
0

> <r_i_glide_emodel>
-67.157091690211

> <r_i_glide_energy>
-53.3206069469452

> <r_i_glide_einternal>
10.6605310440063

> <i_i_glide_confnum>
26

> <i_i_glide_posenum>
277

> <r_i_glide_eff_state_penalty>
0

> <s_user_duplicate_titles>
CHEMBL4618_lig339

> <s_m_subgroup_title>
dock_pv

> <s_m_subgroupid>
dock_pv

> <b_m_subgroup_collapsed>
1

$$$$
CHEMBL4618_lig7
                    3D
 Schrodinger Suite 2021-1.
 33 34  0  0  1  0            999 V2000
    7.8765   36.6854   71.0612 O   0  0  0  0  0  0
    8.1429   37.6671   70.1322 C   0  0  0  0  0  0
    8.1215   37.3445   68.7757 C   0  0  0  0  0  0
    8.3580   38.3248   67.8094 C   0  0  0  0  0  0
    8.5582   39.6538   68.1815 C   0  0  0  0  0  0
    8.5029   39.9790   69.5399 C   0  0  0  0  0  0
    8.3262   38.9953   70.5035 C   0  0  0  0  0  0
    8.8221   36.2727   71.9783 C   0  0  0  0  0  0
    9.2418   34.9435   71.9401 C   0  0  0  0  0  0
   10.1213   34.4426   72.8952 C   0  0  0  0  0  0
   10.5714   35.2756   73.9145 C   0  0  0  0  0  0
   10.1668   36.6061   73.9664 C   0  0  0  0  0  0
    9.2843   37.0973   73.0077 C   0  0  0  0  0  0
    8.7918   40.5769   67.1766 O   0  0  0  0  0  0
    8.9268   41.9612   67.5149 C   0  0  0  0  0  0
    9.5236   42.7498   66.3417 C   0  0  0  0  0  0
   10.9943   42.4050   66.0608 C   0  0  0  0  0  0
    7.9512   36.3215   68.4784 H   0  0  0  0  0  0
    8.3823   38.0581   66.7631 H   0  0  0  0  0  0
    8.5621   40.9990   69.8748 H   0  0  0  0  0  0
    8.2497   39.2925   71.5358 H   0  0  0  0  0  0
    8.8591   34.2894   71.1719 H   0  0  0  0  0  0
   10.4322   33.4082   72.8615 H   0  0  0  0  0  0
   11.2401   34.8858   74.6689 H   0  0  0  0  0  0
   10.5153   37.2466   74.7637 H   0  0  0  0  0  0
    8.9375   38.1106   73.1125 H   0  0  0  0  0  0
    9.5835   42.1119   68.3723 H   0  0  0  0  0  0
    7.9455   42.3625   67.7748 H   0  0  0  0  0  0
    9.4469   43.8145   66.5612 H   0  0  0  0  0  0
    8.9202   42.5916   65.4501 H   0  0  0  0  0  0
   11.3705   42.9634   65.2033 H   0  0  0  0  0  0
   11.1176   41.3426   65.8458 H   0  0  0  0  0  0
   11.6269   42.6466   66.9162 H   0  0  0  0  0  0
  1  2  1  0  0  0
  1  8  1  0  0  0
  2  7  2  0  0  0
  2  3  1  0  0  0
  3  4  2  0  0  0
  3 18  1  0  0  0
  4  5  1  0  0  0
  4 19  1  0  0  0
  5  6  2  0  0  0
  5 14  1  0  0  0
  6  7  1  0  0  0
  6 20  1  0  0  0
  7 21  1  0  0  0
  8  9  1  0  0  0
  8 13  2  0  0  0
  9 10  2  0  0  0
  9 22  1  0  0  0
 10 11  1  0  0  0
 10 23  1  0  0  0
 11 12  2  0  0  0
 11 24  1  0  0  0
 12 13  1  0  0  0
 12 25  1  0  0  0
 13 26  1  0  0  0
 14 15  1  0  0  0
 15 16  1  0  0  0
 15 27  1  0  0  0
 15 28  1  0  0  0
 16 17  1  0  0  0
 16 29  1  0  0  0
 16 30  1  0  0  0
 17 31  1  0  0  0
 17 32  1  0  0  0
 17 33  1  0  0  0
M  END
> <s_m_entry_id>
7046

> <s_m_entry_name>
dock_pv.476

> <s_m_Source_Path>
/home/csk/Desktop/cluster/DUD-E-result/lkha4

> <s_m_Source_File>
dock_pv.maegz

> <i_m_Source_File_Index>
476

> <chembl_id>
CHEMBL502714

> <chembl_pref_name>
None

> <i_lp_mmshare_version>
53161

> <i_f3d_flags>
0

> <r_lp_tautomer_probability>
1

> <s_lp_Force_Field>
OPLS_2005

> <r_lp_Energy>
16.308181

> <b_lp_Chiralities_Consistent>
1

> <s_lp_Variant>
CHEMBL4618_lig7-1

> <s_i_glide_gridfile>
glide-grid_3chp

> <i_i_glide_lignum>
7

> <i_i_glide_rotatable_bonds>
5

> <r_i_docking_score>
-7.55458577968819

> <r_i_glide_ligand_efficiency>
-0.444387398805188

> <r_i_glide_ligand_efficiency_sa>
-1.14264513658916

> <r_i_glide_ligand_efficiency_ln>
-1.97082319756669

> <r_i_glide_gscore>
-7.55458577968819

> <r_i_glide_lipo>
-4.51359905125919

> <r_i_glide_hbond>
0

> <r_i_glide_metal>
0

> <r_i_glide_rewards>
-2.27757076878418

> <r_i_glide_evdw>
-35.8618850708008

> <r_i_glide_ecoul>
-1.85318124294281

> <r_i_glide_erotb>
1.30765548033664

> <r_i_glide_esite>
0

> <r_i_glide_emodel>
-54.5185689299419

> <r_i_glide_energy>
-37.7150663137436

> <r_i_glide_einternal>
4.03117561340332

> <i_i_glide_confnum>
36

> <i_i_glide_posenum>
134

> <r_i_glide_eff_state_penalty>
0

> <s_user_duplicate_titles>
CHEMBL4618_lig7

> <s_m_subgroup_title>
dock_pv

> <s_m_subgroupid>
dock_pv

> <b_m_subgroup_collapsed>
1

$$$$
CHEMBL4618_lig107
                    3D
 Schrodinger Suite 2021-1.
 53 55  0  0  1  0            999 V2000
   15.7009   43.0729   65.6043 N   0  0  1  0  0  0
   16.1549   42.3309   64.4236 C   0  0  1  0  0  0
   16.6832   44.1102   66.0356 C   0  0  2  0  0  0
   14.3411   43.5788   65.2802 C   0  0  0  0  0  0
    8.8722   41.3423   67.7301 C   0  0  0  0  0  0
    7.8607   40.8142   68.7467 C   0  0  0  0  0  0
   10.8963   42.4751   66.1601 C   0  0  0  0  0  0
    8.7130   42.6234   67.1945 C   0  0  0  0  0  0
    9.9845   40.5878   67.3626 C   0  0  0  0  0  0
   10.9818   41.1494   66.5831 C   0  0  0  0  0  0
    9.7147   43.1770   66.3932 C   0  0  0  0  0  0
    8.0752   39.3900   69.2699 C   0  0  0  0  0  0
   11.9526   43.1100   65.5362 O   0  0  0  0  0  0
   13.2563   42.8422   66.0778 C   0  0  0  0  0  0
   18.6152   42.8209   65.1400 C   0  0  0  0  0  0
   18.0737   43.5247   66.3478 C   0  0  0  0  0  0
   17.5600   41.8160   64.6699 C   0  0  0  0  0  0
   15.2464   41.1578   64.0152 C   0  0  0  0  0  0
   16.3133   44.8595   67.2892 C   0  0  0  0  0  0
    8.5210   39.1667   70.5770 C   0  0  0  0  0  0
    7.7740   38.2991   68.4570 C   0  0  0  0  0  0
    8.5952   37.8839   71.1038 C   0  0  0  0  0  0
    7.8963   37.0153   68.9697 C   0  0  0  0  0  0
    8.2659   36.8068   70.2947 C   0  0  0  0  0  0
   16.2462   43.0160   63.5853 H   0  0  0  0  0  0
   16.8007   44.8076   65.2038 H   0  0  0  0  0  0
   14.2188   44.6161   65.4931 H   0  0  0  0  0  0
   14.1052   43.5384   64.2148 H   0  0  0  0  0  0
    7.8634   41.5077   69.5876 H   0  0  0  0  0  0
    6.8554   40.9000   68.3400 H   0  0  0  0  0  0
    7.8423   43.2160   67.4424 H   0  0  0  0  0  0
   10.1205   39.5787   67.7198 H   0  0  0  0  0  0
   11.8401   40.5551   66.3335 H   0  0  0  0  0  0
    9.6097   44.1906   66.0375 H   0  0  0  0  0  0
   13.4824   41.7797   66.0730 H   0  0  0  0  0  0
   13.2896   43.1657   67.1200 H   0  0  0  0  0  0
   19.5616   42.3253   65.3608 H   0  0  0  0  0  0
   18.8201   43.5825   64.3910 H   0  0  0  0  0  0
   18.0115   42.8169   67.1773 H   0  0  0  0  0  0
   18.7700   44.3033   66.6643 H   0  0  0  0  0  0
   17.5146   41.0400   65.4358 H   0  0  0  0  0  0
   17.8223   41.4160   63.7016 H   0  0  0  0  0  0
   15.7210   40.4820   63.3084 H   0  0  0  0  0  0
   14.3276   41.5004   63.5400 H   0  0  0  0  0  0
   14.9443   40.6160   64.9026 H   0  0  0  0  0  0
   16.8252   45.8159   67.3841 H   0  0  0  0  0  0
   15.2807   45.0160   67.1406 H   0  0  0  0  0  0
   16.4583   44.2825   68.2030 H   0  0  0  0  0  0
    8.7383   39.9938   71.2228 H   0  0  0  0  0  0
    7.4584   38.4406   67.4339 H   0  0  0  0  0  0
    8.8991   37.7288   72.1287 H   0  0  0  0  0  0
    7.7210   36.1612   68.3399 H   0  0  0  0  0  0
    8.3313   35.7998   70.6809 H   0  0  0  0  0  0
  1  2  1  0  0  0
  1  3  1  0  0  0
  1  4  1  0  0  0
  2 17  1  0  0  0
  2 18  1  0  0  0
  2 25  1  0  0  0
  3 16  1  0  0  0
  3 19  1  0  0  0
  3 26  1  0  0  0
  4 14  1  0  0  0
  4 27  1  0  0  0
  4 28  1  0  0  0
  5  8  2  0  0  0
  5  6  1  0  0  0
  5  9  1  0  0  0
  6 12  1  0  0  0
  6 29  1  0  0  0
  6 30  1  0  0  0
  7 13  1  0  0  0
  7 10  1  0  0  0
  7 11  2  0  0  0
  8 11  1  0  0  0
  8 31  1  0  0  0
  9 10  2  0  0  0
  9 32  1  0  0  0
 10 33  1  0  0  0
 11 34  1  0  0  0
 12 20  1  0  0  0
 12 21  2  0  0  0
 13 14  1  0  0  0
 14 35  1  0  0  0
 14 36  1  0  0  0
 15 16  1  0  0  0
 15 17  1  0  0  0
 15 37  1  0  0  0
 15 38  1  0  0  0
 16 39  1  0  0  0
 16 40  1  0  0  0
 17 41  1  0  0  0
 17 42  1  0  0  0
 18 43  1  0  0  0
 18 44  1  0  0  0
 18 45  1  0  0  0
 19 46  1  0  0  0
 19 47  1  0  0  0
 19 48  1  0  0  0
 20 22  2  0  0  0
 20 49  1  0  0  0
 21 23  1  0  0  0
 21 50  1  0  0  0
 22 24  1  0  0  0
 22 51  1  0  0  0
 23 24  2  0  0  0
 23 52  1  0  0  0
 24 53  1  0  0  0
M  END
> <s_m_entry_id>
7047

> <s_m_entry_name>
dock_pv.477

> <s_m_Source_Path>
/home/csk/Desktop/cluster/DUD-E-result/lkha4

> <s_m_Source_File>
dock_pv.maegz

> <i_m_Source_File_Index>
477

> <chembl_id>
CHEMBL162788

> <chembl_pref_name>
None

> <i_lp_mmshare_version>
53161

> <i_f3d_flags>
0

> <r_lp_tautomer_probability>
1

> <s_lp_Force_Field>
OPLS_2005

> <r_lp_Energy>
35.216998

> <b_lp_Chiralities_Consistent>
1

> <s_lp_Variant>
CHEMBL4618_lig107-2

> <s_i_glide_gridfile>
glide-grid_3chp

> <i_i_glide_lignum>
132

> <i_i_glide_rotatable_bonds>
6

> <r_i_docking_score>
-7.55255590778436

> <r_i_glide_ligand_efficiency>
-0.314689829491015

> <r_i_glide_ligand_efficiency_sa>
-0.907722541765459

> <r_i_glide_ligand_efficiency_ln>
-1.80767319294098

> <r_i_glide_gscore>
-7.55255590778436

> <r_i_glide_lipo>
-4.48558831642828

> <r_i_glide_hbond>
-0.108279163183128

> <r_i_glide_metal>
0

> <r_i_glide_rewards>
-1.70617628410716

> <r_i_glide_evdw>
-36.2960243225098

> <r_i_glide_ecoul>
-3.40567493438721

> <r_i_glide_erotb>
1.07314031221778

> <r_i_glide_esite>
0

> <r_i_glide_emodel>
-46.2667909171369

> <r_i_glide_energy>
-39.701699256897

> <r_i_glide_einternal>
9.55558776855469

> <i_i_glide_confnum>
79

> <i_i_glide_posenum>
82

> <r_i_glide_eff_state_penalty>
0

> <s_user_duplicate_titles>
CHEMBL4618_lig107

> <s_m_subgroup_title>
dock_pv

> <s_m_subgroupid>
dock_pv

> <b_m_subgroup_collapsed>
1

$$$$
CHEMBL4618_lig246
                    3D
 Schrodinger Suite 2021-1.
 65 67  0  0  1  0            999 V2000
   16.8257   43.4163   65.4242 C   0  0  0  0  0  0
   16.4428   42.4249   64.5132 C   0  0  0  0  0  0
   15.1376   41.9149   64.5317 C   0  0  0  0  0  0
   14.2072   42.4136   65.4513 C   0  0  0  0  0  0
   14.5985   43.4165   66.3398 C   0  0  0  0  0  0
   15.8983   43.8952   66.3403 C   0  0  0  0  0  0
   12.9233   41.8393   65.5343 N   0  0  0  0  0  0
   11.7779   42.4872   65.8562 C   0  0  0  0  0  0
   10.5050   41.6255   66.0134 C   0  0  0  0  0  0
   11.7062   43.7119   65.9380 O   0  0  0  0  0  0
    9.7461   41.9530   67.2309 N   0  0  1  0  0  0
   18.0779   43.9854   65.3741 O   0  0  0  0  0  0
   18.9877   43.6536   66.3501 C   0  0  0  0  0  0
   19.0691   44.3491   67.5654 C   0  0  0  0  0  0
   19.9955   43.9567   68.5347 C   0  0  0  0  0  0
   20.8675   42.8951   68.2841 C   0  0  0  0  0  0
   20.8231   42.2350   67.0575 C   0  0  0  0  0  0
   19.8888   42.6211   66.0971 C   0  0  0  0  0  0
    8.8784   43.1246   67.0661 C   0  0  0  0  0  0
    8.8869   40.8669   67.7214 C   0  0  0  0  0  0
    9.6775   39.6042   68.1334 C   0  0  0  0  0  0
    9.1289   38.8287   69.3529 C   0  0  0  0  0  0
    7.8612   38.0698   69.3022 N   0  0  2  0  0  0
    7.9209   36.7190   69.9096 C   0  0  0  0  0  0
    7.3815   37.8722   67.9429 C   0  0  0  0  0  0
    8.5930   36.5279   71.2757 C   0  0  0  0  0  0
    8.9200   35.2321   71.6950 C   0  0  0  0  0  0
    9.6731   35.0156   72.8462 C   0  0  0  0  0  0
   10.0959   36.1009   73.6095 C   0  0  0  0  0  0
    9.8239   37.3809   73.1402 C   0  0  0  0  0  0
    8.9928   37.6010   72.0630 C   0  0  0  0  0  0
   10.8361   35.8978   74.9052 C   0  0  0  0  0  0
   10.9214   37.0138   75.6940 O   0  0  0  0  0  0
   11.3214   34.8116   75.2079 O   0  0  0  0  0  0
   18.2712   45.4139   67.8113 F   0  0  0  0  0  0
   17.1442   42.1095   63.7542 H   0  0  0  0  0  0
   14.8377   41.1686   63.8084 H   0  0  0  0  0  0
   13.9115   43.8153   67.0721 H   0  0  0  0  0  0
   16.1653   44.6705   67.0379 H   0  0  0  0  0  0
   12.8606   40.8504   65.3445 H   0  0  0  0  0  0
    9.8867   41.8165   65.1401 H   0  0  0  0  0  0
   10.7870   40.5719   65.9632 H   0  0  0  0  0  0
   20.0360   44.4757   69.4800 H   0  0  0  0  0  0
   21.5849   42.5885   69.0325 H   0  0  0  0  0  0
   21.5094   41.4258   66.8478 H   0  0  0  0  0  0
   19.8600   42.1300   65.1409 H   0  0  0  0  0  0
    8.4079   43.4046   68.0101 H   0  0  0  0  0  0
    9.4277   43.9975   66.7255 H   0  0  0  0  0  0
    8.0879   42.9378   66.3399 H   0  0  0  0  0  0
    8.2873   41.2060   68.5699 H   0  0  0  0  0  0
    8.1808   40.6255   66.9250 H   0  0  0  0  0  0
    9.7112   38.9361   67.2741 H   0  0  0  0  0  0
   10.7182   39.8434   68.3340 H   0  0  0  0  0  0
    9.9267   38.2391   69.7933 H   0  0  0  0  0  0
    8.9203   39.6125   70.0802 H   0  0  0  0  0  0
    6.9212   36.2861   69.9412 H   0  0  0  0  0  0
    8.5003   36.0931   69.2355 H   0  0  0  0  0  0
    6.3933   37.4171   67.9147 H   0  0  0  0  0  0
    7.3211   38.8119   67.4240 H   0  0  0  0  0  0
    8.0902   37.2669   67.3852 H   0  0  0  0  0  0
    8.5892   34.3713   71.1397 H   0  0  0  0  0  0
    9.8874   34.0012   73.1560 H   0  0  0  0  0  0
   10.2525   38.2200   73.6312 H   0  0  0  0  0  0
    8.7289   38.6174   71.8299 H   0  0  0  0  0  0
   10.2863   37.6925   75.4349 H   0  0  0  0  0  0
  1 12  1  0  0  0
  1  6  1  0  0  0
  1  2  2  0  0  0
  2  3  1  0  0  0
  2 36  1  0  0  0
  3  4  2  0  0  0
  3 37  1  0  0  0
  4  5  1  0  0  0
  4  7  1  0  0  0
  5  6  2  0  0  0
  5 38  1  0  0  0
  6 39  1  0  0  0
  7  8  1  0  0  0
  7 40  1  0  0  0
  8  9  1  0  0  0
  8 10  2  0  0  0
  9 11  1  0  0  0
  9 41  1  0  0  0
  9 42  1  0  0  0
 11 19  1  0  0  0
 11 20  1  0  0  0
 12 13  1  0  0  0
 13 14  2  0  0  0
 13 18  1  0  0  0
 14 15  1  0  0  0
 14 35  1  0  0  0
 15 16  2  0  0  0
 15 43  1  0  0  0
 16 17  1  0  0  0
 16 44  1  0  0  0
 17 18  2  0  0  0
 17 45  1  0  0  0
 18 46  1  0  0  0
 19 47  1  0  0  0
 19 48  1  0  0  0
 19 49  1  0  0  0
 20 21  1  0  0  0
 20 50  1  0  0  0
 20 51  1  0  0  0
 21 22  1  0  0  0
 21 52  1  0  0  0
 21 53  1  0  0  0
 22 23  1  0  0  0
 22 54  1  0  0  0
 22 55  1  0  0  0
 23 24  1  0  0  0
 23 25  1  0  0  0
 24 26  1  0  0  0
 24 56  1  0  0  0
 24 57  1  0  0  0
 25 58  1  0  0  0
 25 59  1  0  0  0
 25 60  1  0  0  0
 26 27  2  0  0  0
 26 31  1  0  0  0
 27 28  1  0  0  0
 27 61  1  0  0  0
 28 29  2  0  0  0
 28 62  1  0  0  0
 29 30  1  0  0  0
 29 32  1  0  0  0
 30 31  2  0  0  0
 30 63  1  0  0  0
 31 64  1  0  0  0
 32 33  1  0  0  0
 32 34  2  0  0  0
 33 65  1  0  0  0
M  END
> <s_m_entry_id>
7048

> <s_m_entry_name>
dock_pv.478

> <s_m_Source_Path>
/home/csk/Desktop/cluster/DUD-E-result/lkha4

> <s_m_Source_File>
dock_pv.maegz

> <i_m_Source_File_Index>
478

> <chembl_id>
CHEMBL481675

> <chembl_pref_name>
None

> <i_lp_mmshare_version>
53161

> <i_f3d_flags>
0

> <r_lp_tautomer_probability>
1

> <s_lp_Force_Field>
OPLS_2005

> <r_lp_Energy>
37.601359

> <b_lp_Chiralities_Consistent>
1

> <s_lp_Variant>
CHEMBL4618_lig246-1

> <s_i_glide_gridfile>
glide-grid_3chp

> <i_i_glide_lignum>
282

> <i_i_glide_rotatable_bonds>
14

> <r_i_docking_score>
-7.54882510688657

> <r_i_glide_ligand_efficiency>
-0.215680717339616

> <r_i_glide_ligand_efficiency_sa>
-0.70550592741082

> <r_i_glide_ligand_efficiency_ln>
-1.65713464810819

> <r_i_glide_gscore>
-7.54882510688657

> <r_i_glide_lipo>
-3.709572001638

> <r_i_glide_hbond>
0

> <r_i_glide_metal>
0

> <r_i_glide_rewards>
-0.870876224998452

> <r_i_glide_evdw>
-59.3348426818848

> <r_i_glide_ecoul>
-7.25204801559448

> <r_i_glide_erotb>
1.1460297197543

> <r_i_glide_esite>
-0.0598572635710062

> <r_i_glide_emodel>
-86.5109593886615

> <r_i_glide_energy>
-66.5868906974792

> <r_i_glide_einternal>
21.6856670379639

> <i_i_glide_confnum>
137

> <i_i_glide_posenum>
341

> <r_i_glide_eff_state_penalty>
0

> <s_user_duplicate_titles>
CHEMBL4618_lig246,466862

> <s_m_subgroup_title>
dock_pv

> <s_m_subgroupid>
dock_pv

> <b_m_subgroup_collapsed>
1

$$$$
CHEMBL4618_lig335
                    3D
 Schrodinger Suite 2021-1.
 34 35  0  0  1  0            999 V2000
   10.3369   42.8720   66.2620 O   0  0  0  0  0  0
    9.6165   41.9250   66.9829 C   0  0  0  0  0  0
    8.7497   42.3658   67.9802 C   0  0  0  0  0  0
    8.0701   41.4516   68.7825 C   0  0  0  0  0  0
    8.2444   40.0789   68.6054 C   0  0  0  0  0  0
    9.0176   39.6331   67.5315 C   0  0  0  0  0  0
    9.6932   40.5475   66.7399 C   0  0  0  0  0  0
   11.6025   42.6237   65.7468 C   0  0  0  0  0  0
   12.4167   41.5991   66.2210 C   0  0  0  0  0  0
   13.5862   41.2648   65.5651 C   0  0  0  0  0  0
   14.0618   42.0331   64.5215 C   0  0  0  0  0  0
   13.3209   43.1352   64.0947 C   0  0  0  0  0  0
   12.0889   43.4158   64.7032 C   0  0  0  0  0  0
    7.6476   39.2376   69.5210 O   0  0  0  0  0  0
    7.9262   37.8380   69.4875 C   0  0  0  0  0  0
    7.7210   37.2454   70.8854 C   0  0  0  0  0  0
    8.6778   37.8160   71.9400 C   0  0  0  0  0  0
   15.2488   41.6669   63.9400 O   0  0  0  0  0  0
    8.6188   43.4192   68.1545 H   0  0  0  0  0  0
    7.4268   41.8150   69.5689 H   0  0  0  0  0  0
    9.1395   38.5852   67.3056 H   0  0  0  0  0  0
   10.3008   40.1589   65.9400 H   0  0  0  0  0  0
   12.1199   41.0160   67.0734 H   0  0  0  0  0  0
   14.1212   40.4066   65.9279 H   0  0  0  0  0  0
   13.6802   43.7456   63.2782 H   0  0  0  0  0  0
   11.4773   44.2162   64.3401 H   0  0  0  0  0  0
    8.9498   37.6171   69.1926 H   0  0  0  0  0  0
    7.2686   37.3577   68.7625 H   0  0  0  0  0  0
    7.8475   36.1630   70.8335 H   0  0  0  0  0  0
    6.6911   37.4168   71.2005 H   0  0  0  0  0  0
    8.5165   37.3480   72.9117 H   0  0  0  0  0  0
    8.5215   38.8885   72.0631 H   0  0  0  0  0  0
    9.7203   37.6576   71.6624 H   0  0  0  0  0  0
   15.1872   41.7102   62.9683 H   0  0  0  0  0  0
  1  2  1  0  0  0
  1  8  1  0  0  0
  2  7  2  0  0  0
  2  3  1  0  0  0
  3  4  2  0  0  0
  3 19  1  0  0  0
  4  5  1  0  0  0
  4 20  1  0  0  0
  5 14  1  0  0  0
  5  6  2  0  0  0
  6  7  1  0  0  0
  6 21  1  0  0  0
  7 22  1  0  0  0
  8  9  1  0  0  0
  8 13  2  0  0  0
  9 10  2  0  0  0
  9 23  1  0  0  0
 10 11  1  0  0  0
 10 24  1  0  0  0
 11 12  2  0  0  0
 11 18  1  0  0  0
 12 13  1  0  0  0
 12 25  1  0  0  0
 13 26  1  0  0  0
 14 15  1  0  0  0
 15 16  1  0  0  0
 15 27  1  0  0  0
 15 28  1  0  0  0
 16 17  1  0  0  0
 16 29  1  0  0  0
 16 30  1  0  0  0
 17 31  1  0  0  0
 17 32  1  0  0  0
 17 33  1  0  0  0
 18 34  1  0  0  0
M  END
> <s_m_entry_id>
7049

> <s_m_entry_name>
dock_pv.479

> <s_m_Source_Path>
/home/csk/Desktop/cluster/DUD-E-result/lkha4

> <s_m_Source_File>
dock_pv.maegz

> <i_m_Source_File_Index>
479

> <chembl_id>
CHEMBL472893

> <chembl_pref_name>
None

> <i_lp_mmshare_version>
53161

> <i_f3d_flags>
0

> <r_lp_tautomer_probability>
1

> <s_lp_Force_Field>
OPLS_2005

> <r_lp_Energy>
14.943759

> <b_lp_Chiralities_Consistent>
1

> <s_lp_Variant>
CHEMBL4618_lig335-1

> <s_i_glide_gridfile>
glide-grid_3chp

> <i_i_glide_lignum>
379

> <i_i_glide_rotatable_bonds>
6

> <r_i_docking_score>
-7.53699111667367

> <r_i_glide_ligand_efficiency>
-0.418721728704093

> <r_i_glide_ligand_efficiency_sa>
-1.09736136601226

> <r_i_glide_ligand_efficiency_ln>
-1.93734470269482

> <r_i_glide_gscore>
-7.53699111667367

> <r_i_glide_lipo>
-4.00338427440805

> <r_i_glide_hbond>
-0.16

> <r_i_glide_metal>
0

> <r_i_glide_rewards>
-1.74293443417058

> <r_i_glide_evdw>
-37.5617485046387

> <r_i_glide_ecoul>
-6.11871767044067

> <r_i_glide_erotb>
1.165222667703

> <r_i_glide_esite>
0

> <r_i_glide_emodel>
-66.187955865786

> <r_i_glide_energy>
-43.6804661750793

> <r_i_glide_einternal>
3.38527202606201

> <i_i_glide_confnum>
8

> <i_i_glide_posenum>
307

> <r_i_glide_eff_state_penalty>
0

> <s_user_duplicate_titles>
CHEMBL4618_lig335

> <s_m_subgroup_title>
dock_pv

> <s_m_subgroupid>
dock_pv

> <b_m_subgroup_collapsed>
1

$$$$
CHEMBL4618_lig457
                    3D
 Schrodinger Suite 2021-1.
 38 39  0  0  1  0            999 V2000
    8.1953   38.9251   70.3332 C   0  0  0  0  0  0
    8.1214   37.6637   69.7548 C   0  0  0  0  0  0
    8.0917   37.5293   68.3716 C   0  0  0  0  0  0
    8.1225   38.6579   67.5563 C   0  0  0  0  0  0
    8.1767   39.9283   68.1351 C   0  0  0  0  0  0
    8.2053   40.0549   69.5166 C   0  0  0  0  0  0
    8.1815   41.0687   67.3551 O   0  0  0  0  0  0
    9.3669   41.5872   66.8668 C   0  0  0  0  0  0
   10.5485   40.8481   66.8472 C   0  0  0  0  0  0
   11.7239   41.3891   66.3363 C   0  0  0  0  0  0
   11.7293   42.6701   65.7819 C   0  0  0  0  0  0
   10.5492   43.4148   65.7996 C   0  0  0  0  0  0
    9.3755   42.8807   66.3400 C   0  0  0  0  0  0
   12.8488   43.2523   65.2145 O   0  0  0  0  0  0
   13.8912   42.4341   64.6578 C   0  0  0  0  0  0
   15.2536   42.7973   65.2999 C   0  0  0  0  0  0
   16.3749   41.8755   64.9915 N   0  0  0  0  0  0
   16.5354   41.7998   63.5399 C   0  0  0  0  0  0
   17.6000   42.4585   65.5437 C   0  0  0  0  0  0
    8.2098   39.0297   71.4083 H   0  0  0  0  0  0
    8.0932   36.7832   70.3820 H   0  0  0  0  0  0
    8.0486   36.5452   67.9401 H   0  0  0  0  0  0
    8.1015   38.5548   66.4813 H   0  0  0  0  0  0
    8.2094   41.0448   69.9400 H   0  0  0  0  0  0
   10.5478   39.8389   67.2263 H   0  0  0  0  0  0
   12.6144   40.7827   66.3488 H   0  0  0  0  0  0
   10.5463   44.4050   65.3809 H   0  0  0  0  0  0
    8.4673   43.4650   66.3416 H   0  0  0  0  0  0
   13.9230   42.6762   63.5944 H   0  0  0  0  0  0
   13.7160   41.3612   64.6855 H   0  0  0  0  0  0
   15.1129   42.8501   66.3794 H   0  0  0  0  0  0
   15.5073   43.8155   64.9964 H   0  0  0  0  0  0
   15.7211   41.2091   63.1401 H   0  0  0  0  0  0
   17.4610   41.3153   63.2387 H   0  0  0  0  0  0
   16.5206   42.7823   63.0643 H   0  0  0  0  0  0
   17.5204   42.6013   66.6221 H   0  0  0  0  0  0
   18.4619   41.8164   65.3633 H   0  0  0  0  0  0
   17.8241   43.4298   65.0954 H   0  0  0  0  0  0
  1  2  2  0  0  0
  1  6  1  0  0  0
  1 20  1  0  0  0
  2  3  1  0  0  0
  2 21  1  0  0  0
  3  4  2  0  0  0
  3 22  1  0  0  0
  4  5  1  0  0  0
  4 23  1  0  0  0
  5  6  2  0  0  0
  5  7  1  0  0  0
  6 24  1  0  0  0
  7  8  1  0  0  0
  8  9  2  0  0  0
  8 13  1  0  0  0
  9 10  1  0  0  0
  9 25  1  0  0  0
 10 11  2  0  0  0
 10 26  1  0  0  0
 11 12  1  0  0  0
 11 14  1  0  0  0
 12 13  2  0  0  0
 12 27  1  0  0  0
 13 28  1  0  0  0
 14 15  1  0  0  0
 15 16  1  0  0  0
 15 29  1  0  0  0
 15 30  1  0  0  0
 16 17  1  0  0  0
 16 31  1  0  0  0
 16 32  1  0  0  0
 17 18  1  0  0  0
 17 19  1  0  0  0
 18 33  1  0  0  0
 18 34  1  0  0  0
 18 35  1  0  0  0
 19 36  1  0  0  0
 19 37  1  0  0  0
 19 38  1  0  0  0
M  END
> <s_m_entry_id>
7050

> <s_m_entry_name>
dock_pv.480

> <s_m_Source_Path>
/home/csk/Desktop/cluster/DUD-E-result/lkha4

> <s_m_Source_File>
dock_pv.maegz

> <i_m_Source_File_Index>
480

> <chembl_id>
CHEMBL3921982

> <chembl_pref_name>
None

> <i_lp_mmshare_version>
53161

> <i_f3d_flags>
0

> <r_lp_tautomer_probability>
1

> <s_lp_Force_Field>
OPLS_2005

> <r_lp_Energy>
23.333358

> <b_lp_Chiralities_Consistent>
1

> <s_lp_Variant>
CHEMBL4618_lig457-1

> <s_i_glide_gridfile>
glide-grid_3chp

> <i_i_glide_lignum>
533

> <i_i_glide_rotatable_bonds>
6

> <r_i_docking_score>
-7.51280796778624

> <r_i_glide_ligand_efficiency>
-0.39541094567296

> <r_i_glide_ligand_efficiency_sa>
-1.05511521832086

> <r_i_glide_ligand_efficiency_ln>
-1.90465818015364

> <r_i_glide_gscore>
-7.51280796778624

> <r_i_glide_lipo>
-3.53659807406799

> <r_i_glide_hbond>
-0.309995861303535

> <r_i_glide_metal>
0

> <r_i_glide_rewards>
-2.05130059350545

> <r_i_glide_evdw>
-34.3172607421875

> <r_i_glide_ecoul>
-8.20861911773682

> <r_i_glide_erotb>
1.33224246586063

> <r_i_glide_esite>
0

> <r_i_glide_emodel>
-60.0615941517836

> <r_i_glide_energy>
-42.5258798599243

> <r_i_glide_einternal>
6.22348356246948

> <i_i_glide_confnum>
47

> <i_i_glide_posenum>
172

> <r_i_glide_eff_state_penalty>
0

> <s_user_duplicate_titles>
CHEMBL4618_lig457

> <s_m_subgroup_title>
dock_pv

> <s_m_subgroupid>
dock_pv

> <b_m_subgroup_collapsed>
1

$$$$
CHEMBL4618_lig382
                    3D
 Schrodinger Suite 2021-1.
 41 43  0  0  1  0            999 V2000
    9.7749   35.7725   72.8857 N   0  0  0  0  0  0
    9.4287   36.3466   74.1743 C   0  0  0  0  0  0
   10.5646   35.9386   75.1060 C   0  0  0  0  0  0
   11.0614   34.6184   74.5089 C   0  0  0  0  0  0
   10.1977   34.4352   73.2564 C   0  0  0  0  0  0
    8.6796   35.8195   71.9145 C   0  0  0  0  0  0
    8.4322   37.2597   71.4230 C   0  0  0  0  0  0
    8.1209   37.2051   70.0367 O   0  0  0  0  0  0
    8.2778   38.3407   69.2719 C   0  0  0  0  0  0
    8.3278   38.1519   67.8998 C   0  0  0  0  0  0
    8.5210   39.2248   67.0336 C   0  0  0  0  0  0
    8.6188   40.5197   67.5526 C   0  0  0  0  0  0
    8.5208   40.7240   68.9244 C   0  0  0  0  0  0
    8.3933   39.6356   69.7831 C   0  0  0  0  0  0
    8.8322   41.6097   66.7401 O   0  0  0  0  0  0
   10.1150   41.9332   66.3407 C   0  0  0  0  0  0
   11.1710   41.0160   66.3401 C   0  0  0  0  0  0
   12.4450   41.4181   65.9400 C   0  0  0  0  0  0
   12.7069   42.6780   65.5172 N   0  0  0  0  0  0
   11.6713   43.5532   65.4819 C   0  0  0  0  0  0
   10.3725   43.2245   65.8833 C   0  0  0  0  0  0
    8.4453   36.0317   74.5302 H   0  0  0  0  0  0
    9.3548   37.4160   74.0416 H   0  0  0  0  0  0
   10.1944   35.8179   76.1241 H   0  0  0  0  0  0
   11.3367   36.7057   75.1330 H   0  0  0  0  0  0
   12.1210   34.6161   74.2589 H   0  0  0  0  0  0
   10.9211   33.8159   75.2244 H   0  0  0  0  0  0
   10.7316   33.9711   72.4263 H   0  0  0  0  0  0
    9.3268   33.8160   73.4372 H   0  0  0  0  0  0
    8.9215   35.1783   71.0680 H   0  0  0  0  0  0
    7.7610   35.4150   72.3400 H   0  0  0  0  0  0
    7.6102   37.7206   71.9731 H   0  0  0  0  0  0
    9.3231   37.8717   71.5856 H   0  0  0  0  0  0
    8.2594   37.1412   67.5381 H   0  0  0  0  0  0
    8.5992   39.0474   65.9711 H   0  0  0  0  0  0
    8.5819   41.7267   69.3207 H   0  0  0  0  0  0
    8.3560   39.8160   70.8448 H   0  0  0  0  0  0
   10.9778   39.9979   66.6236 H   0  0  0  0  0  0
   13.2704   40.7188   65.9307 H   0  0  0  0  0  0
   11.9069   44.5499   65.1403 H   0  0  0  0  0  0
    9.5784   43.9568   65.8616 H   0  0  0  0  0  0
  1  2  1  0  0  0
  1  5  1  0  0  0
  1  6  1  0  0  0
  2  3  1  0  0  0
  2 22  1  0  0  0
  2 23  1  0  0  0
  3  4  1  0  0  0
  3 24  1  0  0  0
  3 25  1  0  0  0
  4  5  1  0  0  0
  4 26  1  0  0  0
  4 27  1  0  0  0
  5 28  1  0  0  0
  5 29  1  0  0  0
  6  7  1  0  0  0
  6 30  1  0  0  0
  6 31  1  0  0  0
  7  8  1  0  0  0
  7 32  1  0  0  0
  7 33  1  0  0  0
  8  9  1  0  0  0
  9 10  1  0  0  0
  9 14  2  0  0  0
 10 11  2  0  0  0
 10 34  1  0  0  0
 11 12  1  0  0  0
 11 35  1  0  0  0
 12 13  2  0  0  0
 12 15  1  0  0  0
 13 14  1  0  0  0
 13 36  1  0  0  0
 14 37  1  0  0  0
 15 16  1  0  0  0
 16 17  1  0  0  0
 16 21  2  0  0  0
 17 18  2  0  0  0
 17 38  1  0  0  0
 18 19  1  0  0  0
 18 39  1  0  0  0
 19 20  2  0  0  0
 20 21  1  0  0  0
 20 40  1  0  0  0
 21 41  1  0  0  0
M  END
> <s_m_entry_id>
7052

> <s_m_entry_name>
dock_pv.482

> <s_m_Source_Path>
/home/csk/Desktop/cluster/DUD-E-result/lkha4

> <s_m_Source_File>
dock_pv.maegz

> <i_m_Source_File_Index>
482

> <chembl_id>
CHEMBL1775092

> <chembl_pref_name>
None

> <i_lp_mmshare_version>
53161

> <i_f3d_flags>
0

> <r_lp_tautomer_probability>
1

> <s_lp_Force_Field>
OPLS_2005

> <r_lp_Energy>
37.146799

> <b_lp_Chiralities_Consistent>
1

> <s_lp_Variant>
CHEMBL4618_lig382-1

> <s_i_glide_gridfile>
glide-grid_3chp

> <i_i_glide_lignum>
443

> <i_i_glide_rotatable_bonds>
6

> <r_i_docking_score>
-7.49595335483979

> <r_i_glide_ligand_efficiency>
-0.356950159754276

> <r_i_glide_ligand_efficiency_sa>
-0.984798424509761

> <r_i_glide_ligand_efficiency_ln>
-1.85335931998417

> <r_i_glide_gscore>
-7.49595335483979

> <r_i_glide_lipo>
-4.90528437741022

> <r_i_glide_hbond>
0

> <r_i_glide_metal>
0

> <r_i_glide_rewards>
-1.45385986259714

> <r_i_glide_evdw>
-39.5207557678223

> <r_i_glide_ecoul>
-1.87748873233795

> <r_i_glide_erotb>
1.12085198340937

> <r_i_glide_esite>
0

> <r_i_glide_emodel>
-56.574632580051

> <r_i_glide_energy>
-41.3982445001602

> <r_i_glide_einternal>
5.99756479263306

> <i_i_glide_confnum>
11

> <i_i_glide_posenum>
78

> <r_i_glide_eff_state_penalty>
0

> <s_user_duplicate_titles>
CHEMBL4618_lig382

> <s_m_subgroup_title>
dock_pv

> <s_m_subgroupid>
dock_pv

> <b_m_subgroup_collapsed>
1

$$$$
CHEMBL4618_lig461
                    3D
 Schrodinger Suite 2021-1.
 60 60  0  0  1  0            999 V2000
    8.9409   42.7374   66.8053 C   0  0  0  0  0  0
    9.1941   41.4290   67.2375 C   0  0  0  0  0  0
   10.4607   40.8792   66.9996 C   0  0  0  0  0  0
   11.4570   41.5971   66.3400 C   0  0  0  0  0  0
   11.1965   42.8809   65.8621 C   0  0  0  0  0  0
    9.9297   43.4160   66.0792 C   0  0  0  0  0  0
    7.7210   43.2963   67.1400 O   0  0  0  0  0  0
    7.4334   44.6717   66.8463 C   0  0  0  0  0  0
    8.1715   40.7658   67.8980 O   0  0  0  0  0  0
   12.2546   43.7666   65.1925 C   0  0  0  0  0  0
   13.1137   43.1576   64.0662 C   0  0  0  0  0  0
   14.2299   42.2481   64.5481 C   0  0  0  0  0  0
   15.4265   42.8978   65.2536 C   0  0  0  0  0  0
   14.1619   41.0332   64.3825 O   0  0  0  0  0  0
   16.8133   42.6668   64.6022 C   0  0  1  0  0  0
   18.0271   42.8039   65.5501 C   0  0  0  0  0  0
   16.9210   41.4160   63.9400 O   0  0  0  0  0  0
   18.1146   44.0705   66.4388 C   0  0  0  0  0  0
   17.2094   44.0477   67.6936 C   0  0  0  0  0  0
   17.7203   44.8760   68.8897 C   0  0  0  0  0  0
   17.7942   46.3876   68.6381 C   0  0  0  0  0  0
    8.2635   39.3768   68.2272 C   0  0  0  0  0  0
    8.4252   39.1933   69.7223 C   0  0  0  0  0  0
    8.2744   38.0364   70.3980 C   0  0  0  0  0  0
    7.9558   36.7046   69.7370 C   0  0  0  0  0  0
    8.4083   37.9734   71.9069 C   0  0  0  0  0  0
   10.7037   39.8961   67.3500 H   0  0  0  0  0  0
   12.4246   41.1381   66.2222 H   0  0  0  0  0  0
    9.7565   44.4140   65.7258 H   0  0  0  0  0  0
    6.3586   44.7970   66.7400 H   0  0  0  0  0  0
    7.7209   45.3090   67.6719 H   0  0  0  0  0  0
    7.8695   45.0838   65.9400 H   0  0  0  0  0  0
   11.7476   44.6161   64.7420 H   0  0  0  0  0  0
   12.8858   44.1933   65.9718 H   0  0  0  0  0  0
   12.5040   42.6160   63.3532 H   0  0  0  0  0  0
   13.6025   43.9544   63.5052 H   0  0  0  0  0  0
   15.2468   43.9726   65.2605 H   0  0  0  0  0  0
   15.4061   42.6160   66.3003 H   0  0  0  0  0  0
   16.9210   43.4160   63.8221 H   0  0  0  0  0  0
   18.0979   41.9236   66.1840 H   0  0  0  0  0  0
   18.9271   42.7719   64.9316 H   0  0  0  0  0  0
   16.7674   41.6095   62.9984 H   0  0  0  0  0  0
   19.1519   44.1599   66.7657 H   0  0  0  0  0  0
   17.9197   44.9640   65.8443 H   0  0  0  0  0  0
   16.2043   44.3829   67.4362 H   0  0  0  0  0  0
   17.1012   43.0182   68.0386 H   0  0  0  0  0  0
   17.0597   44.6975   69.7402 H   0  0  0  0  0  0
   18.7005   44.5081   69.1967 H   0  0  0  0  0  0
   18.1025   46.9158   69.5399 H   0  0  0  0  0  0
   18.5208   46.6161   67.8617 H   0  0  0  0  0  0
   16.8238   46.7857   68.3400 H   0  0  0  0  0  0
    9.0187   38.8122   67.6845 H   0  0  0  0  0  0
    7.3210   38.9151   67.9401 H   0  0  0  0  0  0
    8.6615   40.0939   70.2698 H   0  0  0  0  0  0
    6.9210   36.4349   69.9399 H   0  0  0  0  0  0
    8.5929   35.9141   70.1321 H   0  0  0  0  0  0
    8.0851   36.7264   68.6551 H   0  0  0  0  0  0
    7.5236   37.5069   72.3405 H   0  0  0  0  0  0
    9.2852   37.3910   72.1905 H   0  0  0  0  0  0
    8.5077   38.9687   72.3400 H   0  0  0  0  0  0
  1  2  2  0  0  0
  1  6  1  0  0  0
  1  7  1  0  0  0
  2  3  1  0  0  0
  2  9  1  0  0  0
  3  4  2  0  0  0
  3 27  1  0  0  0
  4  5  1  0  0  0
  4 28  1  0  0  0
  5  6  2  0  0  0
  5 10  1  0  0  0
  6 29  1  0  0  0
  7  8  1  0  0  0
  8 30  1  0  0  0
  8 31  1  0  0  0
  8 32  1  0  0  0
  9 22  1  0  0  0
 10 11  1  0  0  0
 10 33  1  0  0  0
 10 34  1  0  0  0
 11 12  1  0  0  0
 11 35  1  0  0  0
 11 36  1  0  0  0
 12 13  1  0  0  0
 12 14  2  0  0  0
 13 15  1  0  0  0
 13 37  1  0  0  0
 13 38  1  0  0  0
 15 16  1  0  0  0
 15 17  1  0  0  0
 15 39  1  0  0  0
 16 18  1  0  0  0
 16 40  1  0  0  0
 16 41  1  0  0  0
 17 42  1  0  0  0
 18 19  1  0  0  0
 18 43  1  0  0  0
 18 44  1  0  0  0
 19 20  1  0  0  0
 19 45  1  0  0  0
 19 46  1  0  0  0
 20 21  1  0  0  0
 20 47  1  0  0  0
 20 48  1  0  0  0
 21 49  1  0  0  0
 21 50  1  0  0  0
 21 51  1  0  0  0
 22 23  1  0  0  0
 22 52  1  0  0  0
 22 53  1  0  0  0
 23 24  2  0  0  0
 23 54  1  0  0  0
 24 25  1  0  0  0
 24 26  1  0  0  0
 25 55  1  0  0  0
 25 56  1  0  0  0
 25 57  1  0  0  0
 26 58  1  0  0  0
 26 59  1  0  0  0
 26 60  1  0  0  0
M  END
> <s_m_entry_id>
7053

> <s_m_entry_name>
dock_pv.483

> <s_m_Source_Path>
/home/csk/Desktop/cluster/DUD-E-result/lkha4

> <s_m_Source_File>
dock_pv.maegz

> <i_m_Source_File_Index>
483

> <chembl_id>
CHEMBL3884665

> <chembl_pref_name>
None

> <i_lp_mmshare_version>
53161

> <i_f3d_flags>
0

> <r_lp_tautomer_probability>
0.999999960000001

> <s_lp_Force_Field>
OPLS_2005

> <r_lp_Energy>
16.430797

> <b_lp_Chiralities_Consistent>
1

> <s_lp_Variant>
CHEMBL4618_lig461-2

> <s_i_glide_gridfile>
glide-grid_3chp

> <i_i_glide_lignum>
538

> <i_i_glide_rotatable_bonds>
14

> <r_i_docking_score>
-7.48334579302015

> <r_i_glide_ligand_efficiency>
-0.287820992039237

> <r_i_glide_ligand_efficiency_sa>
-0.852668556395322

> <r_i_glide_ligand_efficiency_ln>
-1.75743920463045

> <r_i_glide_gscore>
-7.48334579302015

> <r_i_glide_lipo>
-4.02793808901714

> <r_i_glide_hbond>
0

> <r_i_glide_metal>
0

> <r_i_glide_rewards>
-1.6975064094603

> <r_i_glide_evdw>
-41.2807884216309

> <r_i_glide_ecoul>
-8.57977867126465

> <r_i_glide_erotb>
1.60743231842651

> <r_i_glide_esite>
-0.0143273911979772

> <r_i_glide_emodel>
-61.0154502538524

> <r_i_glide_energy>
-49.8605670928955

> <r_i_glide_einternal>
15.6649227142334

> <i_i_glide_confnum>
17

> <i_i_glide_posenum>
68

> <r_i_glide_eff_state_penalty>
0

> <s_user_duplicate_titles>
CHEMBL4618_lig461

> <s_m_subgroup_title>
dock_pv

> <s_m_subgroupid>
dock_pv

> <b_m_subgroup_collapsed>
1

$$$$
CHEMBL4618_lig4
                    3D
 Schrodinger Suite 2021-1.
 30 31  0  0  1  0            999 V2000
    7.4123   38.7417   69.2097 O   0  0  0  0  0  0
    8.0062   38.0025   70.2060 C   0  0  0  0  0  0
    7.9971   36.6161   70.1132 C   0  0  0  0  0  0
    8.5286   35.8325   71.1398 C   0  0  0  0  0  0
    9.1198   36.4230   72.2479 C   0  0  0  0  0  0
    9.1124   37.8157   72.3395 C   0  0  0  0  0  0
    8.5474   38.6039   71.3380 C   0  0  0  0  0  0
    8.1197   39.7378   68.5784 C   0  0  0  0  0  0
    9.0875   39.4161   67.6299 C   0  0  0  0  0  0
    9.7480   40.4279   66.9367 C   0  0  0  0  0  0
    9.4203   41.7602   67.1779 C   0  0  0  0  0  0
    8.4421   42.0896   68.1124 C   0  0  0  0  0  0
    7.7930   41.0745   68.8105 C   0  0  0  0  0  0
    9.6893   35.5775   73.1821 O   0  0  0  0  0  0
   10.3566   36.1262   74.3183 C   0  0  0  0  0  0
   11.1676   35.0163   74.9963 C   0  0  0  0  0  0
    7.5727   36.1376   69.2475 H   0  0  0  0  0  0
    8.5213   34.7549   71.0735 H   0  0  0  0  0  0
    9.5461   38.2860   73.1956 H   0  0  0  0  0  0
    8.5220   39.6782   71.4380 H   0  0  0  0  0  0
    9.3207   38.3807   67.4289 H   0  0  0  0  0  0
   10.5027   40.1776   66.2047 H   0  0  0  0  0  0
    9.9227   42.5454   66.6339 H   0  0  0  0  0  0
    8.1774   43.1228   68.2894 H   0  0  0  0  0  0
    7.0336   41.3256   69.5351 H   0  0  0  0  0  0
    9.6249   36.5450   75.0123 H   0  0  0  0  0  0
   11.0423   36.9242   74.0292 H   0  0  0  0  0  0
   11.7042   35.3972   75.8666 H   0  0  0  0  0  0
   11.8959   34.5863   74.3097 H   0  0  0  0  0  0
   10.5215   34.2162   75.3316 H   0  0  0  0  0  0
  1  2  1  0  0  0
  1  8  1  0  0  0
  2  7  2  0  0  0
  2  3  1  0  0  0
  3  4  2  0  0  0
  3 17  1  0  0  0
  4  5  1  0  0  0
  4 18  1  0  0  0
  5  6  2  0  0  0
  5 14  1  0  0  0
  6  7  1  0  0  0
  6 19  1  0  0  0
  7 20  1  0  0  0
  8  9  1  0  0  0
  8 13  2  0  0  0
  9 10  2  0  0  0
  9 21  1  0  0  0
 10 11  1  0  0  0
 10 22  1  0  0  0
 11 12  2  0  0  0
 11 23  1  0  0  0
 12 13  1  0  0  0
 12 24  1  0  0  0
 13 25  1  0  0  0
 14 15  1  0  0  0
 15 16  1  0  0  0
 15 26  1  0  0  0
 15 27  1  0  0  0
 16 28  1  0  0  0
 16 29  1  0  0  0
 16 30  1  0  0  0
M  END
> <s_m_entry_id>
7055

> <s_m_entry_name>
dock_pv.485

> <s_m_Source_Path>
/home/csk/Desktop/cluster/DUD-E-result/lkha4

> <s_m_Source_File>
dock_pv.maegz

> <i_m_Source_File_Index>
485

> <chembl_id>
CHEMBL475730

> <chembl_pref_name>
None

> <i_lp_mmshare_version>
53161

> <i_f3d_flags>
0

> <r_lp_tautomer_probability>
1

> <s_lp_Force_Field>
OPLS_2005

> <r_lp_Energy>
15.743543

> <b_lp_Chiralities_Consistent>
1

> <s_lp_Variant>
CHEMBL4618_lig4-1

> <s_i_glide_gridfile>
glide-grid_3chp

> <i_i_glide_lignum>
4

> <i_i_glide_rotatable_bonds>
4

> <r_i_docking_score>
-7.46141603669513

> <r_i_glide_ligand_efficiency>
-0.466338502293446

> <r_i_glide_ligand_efficiency_sa>
-1.1750993897459

> <r_i_glide_ligand_efficiency_ln>
-1.97779736569464

> <r_i_glide_gscore>
-7.46141603669513

> <r_i_glide_lipo>
-4.1260638558809

> <r_i_glide_hbond>
0

> <r_i_glide_metal>
0

> <r_i_glide_rewards>
-2.3614361286912

> <r_i_glide_evdw>
-32.1461563110352

> <r_i_glide_ecoul>
-3.0546281337738

> <r_i_glide_erotb>
1.0915859834948

> <r_i_glide_esite>
0

> <r_i_glide_emodel>
-49.2835314894769

> <r_i_glide_energy>
-35.200784444809

> <r_i_glide_einternal>
0.35213503241539

> <i_i_glide_confnum>
7

> <i_i_glide_posenum>
274

> <r_i_glide_eff_state_penalty>
0

> <s_user_duplicate_titles>
CHEMBL4618_lig4

> <s_m_subgroup_title>
dock_pv

> <s_m_subgroupid>
dock_pv

> <b_m_subgroup_collapsed>
1

$$$$
CHEMBL4618_lig380
                    3D
 Schrodinger Suite 2021-1.
 44 46  0  0  1  0            999 V2000
   14.2204   42.6147   65.5402 N   0  0  0  0  0  0
   15.3929   43.4406   65.7837 C   0  0  0  0  0  0
   16.4905   42.8453   64.8960 C   0  0  0  0  0  0
   15.7140   42.1905   63.7502 C   0  0  0  0  0  0
   14.2444   42.4510   64.0904 C   0  0  0  0  0  0
   12.9738   43.1673   66.0921 C   0  0  0  0  0  0
   11.7899   42.1897   65.9325 C   0  0  0  0  0  0
   10.6811   42.5701   66.7540 O   0  0  0  0  0  0
    9.7933   41.6102   67.2193 C   0  0  0  0  0  0
    9.7938   40.2588   66.8359 C   0  0  0  0  0  0
    8.9628   39.3388   67.4757 C   0  0  0  0  0  0
    8.1218   39.7543   68.5019 C   0  0  0  0  0  0
    8.0251   41.1131   68.7984 C   0  0  0  0  0  0
    8.8593   42.0330   68.1649 C   0  0  0  0  0  0
    7.3614   38.8286   69.1814 O   0  0  0  0  0  0
    7.9610   38.0494   70.1510 C   0  0  0  0  0  0
    8.5318   38.6089   71.2948 C   0  0  0  0  0  0
    9.1164   37.7931   72.2646 C   0  0  0  0  0  0
    9.1389   36.4060   72.1140 C   0  0  0  0  0  0
    8.5210   35.8521   70.9932 C   0  0  0  0  0  0
    7.9503   36.6646   70.0148 C   0  0  0  0  0  0
    9.8363   35.5467   73.1017 N   0  3  0  0  0  0
   10.1343   36.0268   74.1916 O   0  5  0  0  0  0
   10.1211   34.3971   72.7761 O   0  0  0  0  0  0
   15.6388   43.4164   66.8455 H   0  0  0  0  0  0
   15.1994   44.4894   65.5647 H   0  0  0  0  0  0
   17.1019   42.1285   65.4438 H   0  0  0  0  0  0
   17.1618   43.6234   64.5284 H   0  0  0  0  0  0
   15.9754   42.6158   62.7797 H   0  0  0  0  0  0
   15.9011   41.1221   63.6753 H   0  0  0  0  0  0
   13.8336   43.3164   63.5652 H   0  0  0  0  0  0
   13.6066   41.6127   63.8072 H   0  0  0  0  0  0
   13.1155   43.3733   67.1534 H   0  0  0  0  0  0
   12.7365   44.1213   65.6184 H   0  0  0  0  0  0
   11.4534   42.2161   64.9003 H   0  0  0  0  0  0
   12.1489   41.1855   66.1604 H   0  0  0  0  0  0
   10.4577   39.8894   66.0696 H   0  0  0  0  0  0
    9.0070   38.2944   67.2029 H   0  0  0  0  0  0
    7.3218   41.4565   69.5401 H   0  0  0  0  0  0
    8.8092   43.0767   68.4360 H   0  0  0  0  0  0
    8.5210   39.6805   71.4253 H   0  0  0  0  0  0
    9.5774   38.2177   73.1401 H   0  0  0  0  0  0
    8.5217   34.7824   70.8599 H   0  0  0  0  0  0
    7.5144   36.2161   69.1400 H   0  0  0  0  0  0
  1  5  1  0  0  0
  1  6  1  0  0  0
  1  2  1  0  0  0
  2  3  1  0  0  0
  2 25  1  0  0  0
  2 26  1  0  0  0
  3  4  1  0  0  0
  3 27  1  0  0  0
  3 28  1  0  0  0
  4  5  1  0  0  0
  4 29  1  0  0  0
  4 30  1  0  0  0
  5 31  1  0  0  0
  5 32  1  0  0  0
  6  7  1  0  0  0
  6 33  1  0  0  0
  6 34  1  0  0  0
  7  8  1  0  0  0
  7 35  1  0  0  0
  7 36  1  0  0  0
  8  9  1  0  0  0
  9 10  1  0  0  0
  9 14  2  0  0  0
 10 11  2  0  0  0
 10 37  1  0  0  0
 11 12  1  0  0  0
 11 38  1  0  0  0
 12 13  2  0  0  0
 12 15  1  0  0  0
 13 14  1  0  0  0
 13 39  1  0  0  0
 14 40  1  0  0  0
 15 16  1  0  0  0
 16 17  1  0  0  0
 16 21  2  0  0  0
 17 18  2  0  0  0
 17 41  1  0  0  0
 18 19  1  0  0  0
 18 42  1  0  0  0
 19 20  2  0  0  0
 19 22  1  0  0  0
 20 21  1  0  0  0
 20 43  1  0  0  0
 21 44  1  0  0  0
 22 23  1  0  0  0
 22 24  2  0  0  0
M  CHG  2  22   1  23  -1
M  END
> <s_m_entry_id>
7056

> <s_m_entry_name>
dock_pv.486

> <s_m_Source_Path>
/home/csk/Desktop/cluster/DUD-E-result/lkha4

> <s_m_Source_File>
dock_pv.maegz

> <i_m_Source_File_Index>
486

> <chembl_id>
CHEMBL1775089

> <chembl_pref_name>
None

> <i_lp_mmshare_version>
53161

> <i_f3d_flags>
0

> <r_lp_tautomer_probability>
1

> <s_lp_Force_Field>
OPLS_2005

> <r_lp_Energy>
42.613316

> <b_lp_Chiralities_Consistent>
1

> <s_lp_Variant>
CHEMBL4618_lig380-1

> <s_i_glide_gridfile>
glide-grid_3chp

> <i_i_glide_lignum>
441

> <i_i_glide_rotatable_bonds>
7

> <r_i_docking_score>
-7.46072168509463

> <r_i_glide_ligand_efficiency>
-0.31086340354561

> <r_i_glide_ligand_efficiency_sa>
-0.896685219426004

> <r_i_glide_ligand_efficiency_ln>
-1.78569304945344

> <r_i_glide_gscore>
-7.46072168509463

> <r_i_glide_lipo>
-4.34924531677887

> <r_i_glide_hbond>
0

> <r_i_glide_metal>
0

> <r_i_glide_rewards>
-1.16937366673064

> <r_i_glide_evdw>
-47.8189506530762

> <r_i_glide_ecoul>
-2.81374168395996

> <r_i_glide_erotb>
0.870906083662678

> <r_i_glide_esite>
0

> <r_i_glide_emodel>
-67.7581498752427

> <r_i_glide_energy>
-50.6326923370361

> <r_i_glide_einternal>
8.50933456420898

> <i_i_glide_confnum>
77

> <i_i_glide_posenum>
193

> <r_i_glide_eff_state_penalty>
0

> <s_user_duplicate_titles>
CHEMBL4618_lig380

> <s_m_subgroup_title>
dock_pv

> <s_m_subgroupid>
dock_pv

> <b_m_subgroup_collapsed>
1

$$$$
CHEMBL4618_lig5
                    3D
 Schrodinger Suite 2021-1.
 27 28  0  0  1  0            999 V2000
    7.5177   38.7437   69.1205 O   0  0  0  0  0  0
    8.2126   39.7949   68.5716 C   0  0  0  0  0  0
    9.3206   39.5513   67.7653 C   0  0  0  0  0  0
    9.9795   40.6056   67.1389 C   0  0  0  0  0  0
    9.5250   41.9190   67.3052 C   0  0  0  0  0  0
    8.4084   42.1577   68.1063 C   0  0  0  0  0  0
    7.7569   41.1022   68.7396 C   0  0  0  0  0  0
    8.0686   38.0078   70.1459 C   0  0  0  0  0  0
    8.5536   38.6109   71.3085 C   0  0  0  0  0  0
    9.0498   37.8118   72.3402 C   0  0  0  0  0  0
    9.0183   36.4296   72.2440 C   0  0  0  0  0  0
    8.5213   35.8271   71.1014 C   0  0  0  0  0  0
    8.0692   36.6165   70.0433 C   0  0  0  0  0  0
   10.1151   43.0164   66.7157 O   0  0  0  0  0  0
   11.3431   42.8604   66.0134 C   0  0  0  0  0  0
    9.6598   38.5380   67.6165 H   0  0  0  0  0  0
   10.8292   40.3787   66.5135 H   0  0  0  0  0  0
    8.0398   43.1661   68.2320 H   0  0  0  0  0  0
    6.8877   41.3034   69.3417 H   0  0  0  0  0  0
    8.5236   39.6852   71.4122 H   0  0  0  0  0  0
    9.4551   38.2221   73.2434 H   0  0  0  0  0  0
    9.3875   35.8218   73.0579 H   0  0  0  0  0  0
    8.5211   34.7503   71.0350 H   0  0  0  0  0  0
    7.7194   36.1443   69.1397 H   0  0  0  0  0  0
   11.6828   43.8349   65.6614 H   0  0  0  0  0  0
   11.2251   42.2167   65.1416 H   0  0  0  0  0  0
   12.1235   42.4525   66.6584 H   0  0  0  0  0  0
  1  2  1  0  0  0
  1  8  1  0  0  0
  2  7  2  0  0  0
  2  3  1  0  0  0
  3  4  2  0  0  0
  3 16  1  0  0  0
  4  5  1  0  0  0
  4 17  1  0  0  0
  5  6  2  0  0  0
  5 14  1  0  0  0
  6  7  1  0  0  0
  6 18  1  0  0  0
  7 19  1  0  0  0
  8  9  1  0  0  0
  8 13  2  0  0  0
  9 10  2  0  0  0
  9 20  1  0  0  0
 10 11  1  0  0  0
 10 21  1  0  0  0
 11 12  2  0  0  0
 11 22  1  0  0  0
 12 13  1  0  0  0
 12 23  1  0  0  0
 13 24  1  0  0  0
 14 15  1  0  0  0
 15 25  1  0  0  0
 15 26  1  0  0  0
 15 27  1  0  0  0
M  END
> <s_m_entry_id>
7057

> <s_m_entry_name>
dock_pv.487

> <s_m_Source_Path>
/home/csk/Desktop/cluster/DUD-E-result/lkha4

> <s_m_Source_File>
dock_pv.maegz

> <i_m_Source_File_Index>
487

> <chembl_id>
CHEMBL398021

> <chembl_pref_name>
None

> <i_lp_mmshare_version>
53161

> <i_f3d_flags>
0

> <r_lp_tautomer_probability>
1

> <s_lp_Force_Field>
OPLS_2005

> <r_lp_Energy>
16.06446

> <b_lp_Chiralities_Consistent>
1

> <s_lp_Variant>
CHEMBL4618_lig5-1

> <s_i_glide_gridfile>
glide-grid_3chp

> <i_i_glide_lignum>
5

> <i_i_glide_rotatable_bonds>
3

> <r_i_docking_score>
-7.44039034037656

> <r_i_glide_ligand_efficiency>
-0.49602602269177

> <r_i_glide_ligand_efficiency_sa>
-1.22330536524031

> <r_i_glide_ligand_efficiency_ln>
-2.00655059582659

> <r_i_glide_gscore>
-7.44039034037656

> <r_i_glide_lipo>
-3.90234145632396

> <r_i_glide_hbond>
0

> <r_i_glide_metal>
0

> <r_i_glide_rewards>
-2.54333270723262

> <r_i_glide_evdw>
-30.159351348877

> <r_i_glide_ecoul>
-2.01220464706421

> <r_i_glide_erotb>
0.815082087683501

> <r_i_glide_esite>
0

> <r_i_glide_emodel>
-49.1589802638636

> <r_i_glide_energy>
-32.1715559959412

> <r_i_glide_einternal>
1.05099272727966

> <i_i_glide_confnum>
1

> <i_i_glide_posenum>
363

> <r_i_glide_eff_state_penalty>
0

> <s_user_duplicate_titles>
CHEMBL4618_lig5

> <s_m_subgroup_title>
dock_pv

> <s_m_subgroupid>
dock_pv

> <b_m_subgroup_collapsed>
1

$$$$
CHEMBL4618_lig180
                    3D
 Schrodinger Suite 2021-1.
 48 50  0  0  1  0            999 V2000
    7.9589   41.7736   68.2970 C   0  0  0  0  0  0
    8.2649   40.4163   68.3028 C   0  0  0  0  0  0
    9.3211   39.9295   67.5356 C   0  0  0  0  0  0
   10.1084   40.8093   66.7897 C   0  0  0  0  0  0
    9.8184   42.1775   66.7935 C   0  0  0  0  0  0
    8.7284   42.6458   67.5358 C   0  0  0  0  0  0
   10.6787   43.1997   66.0540 C   0  0  0  0  0  0
   11.6138   42.6160   65.1405 O   0  0  0  0  0  0
   12.9846   42.7777   65.2594 C   0  0  0  0  0  0
   13.7762   42.2545   64.2319 C   0  0  0  0  0  0
   15.1650   42.3556   64.2629 C   0  0  0  0  0  0
   15.7939   43.0166   65.3161 C   0  0  0  0  0  0
   15.0097   43.5559   66.3398 C   0  0  0  0  0  0
   13.6282   43.4159   66.3225 C   0  0  0  0  0  0
   17.1984   43.0439   65.3325 N   0  0  0  0  0  0
   18.0133   43.7637   66.1383 C   0  0  0  0  0  0
   19.4201   43.1496   66.3428 C   0  0  1  0  0  0
   17.6923   44.7951   66.7388 O   0  0  0  0  0  0
   20.2238   43.4159   65.1402 N   0  0  0  0  0  0
   20.1488   43.5938   67.6443 C   0  0  0  0  0  0
   20.8290   42.4778   68.4198 C   0  0  0  0  0  0
   20.3090   42.0544   69.6625 C   0  0  0  0  0  0
   20.9169   41.0124   70.3516 C   0  0  0  0  0  0
   22.0153   40.3622   69.8080 C   0  0  0  0  0  0
   22.5209   40.7510   68.5754 C   0  0  0  0  0  0
   21.9414   41.8005   67.8750 C   0  0  0  0  0  0
    7.1266   42.1500   68.8748 H   0  0  0  0  0  0
    7.6662   39.7359   68.8910 H   0  0  0  0  0  0
    9.5432   38.8717   67.5330 H   0  0  0  0  0  0
   10.9398   40.4241   66.2160 H   0  0  0  0  0  0
    8.4814   43.6973   67.5399 H   0  0  0  0  0  0
   11.1266   43.8161   66.8169 H   0  0  0  0  0  0
   10.0233   43.8484   65.4732 H   0  0  0  0  0  0
   13.3208   41.7737   63.3803 H   0  0  0  0  0  0
   15.7330   41.9603   63.4322 H   0  0  0  0  0  0
   15.4488   44.0609   67.1835 H   0  0  0  0  0  0
   13.0971   43.8151   67.1672 H   0  0  0  0  0  0
   17.6608   42.4549   64.6575 H   0  0  0  0  0  0
   19.2498   42.0737   66.4158 H   0  0  0  0  0  0
   21.0218   42.7975   65.0838 H   0  0  0  0  0  0
   19.7203   43.3097   64.2573 H   0  0  0  0  0  0
   19.4709   44.0942   68.3364 H   0  0  0  0  0  0
   20.9065   44.3430   67.4083 H   0  0  0  0  0  0
   19.4401   42.5361   70.0857 H   0  0  0  0  0  0
   20.5259   40.6917   71.3062 H   0  0  0  0  0  0
   22.4751   39.5411   70.3397 H   0  0  0  0  0  0
   23.3668   40.2280   68.1540 H   0  0  0  0  0  0
   22.3422   42.0823   66.9123 H   0  0  0  0  0  0
  1  2  2  0  0  0
  1  6  1  0  0  0
  1 27  1  0  0  0
  2  3  1  0  0  0
  2 28  1  0  0  0
  3  4  2  0  0  0
  3 29  1  0  0  0
  4  5  1  0  0  0
  4 30  1  0  0  0
  5  7  1  0  0  0
  5  6  2  0  0  0
  6 31  1  0  0  0
  7  8  1  0  0  0
  7 32  1  0  0  0
  7 33  1  0  0  0
  8  9  1  0  0  0
  9 14  1  0  0  0
  9 10  2  0  0  0
 10 11  1  0  0  0
 10 34  1  0  0  0
 11 12  2  0  0  0
 11 35  1  0  0  0
 12 13  1  0  0  0
 12 15  1  0  0  0
 13 14  2  0  0  0
 13 36  1  0  0  0
 14 37  1  0  0  0
 15 16  1  0  0  0
 15 38  1  0  0  0
 16 17  1  0  0  0
 16 18  2  0  0  0
 17 19  1  0  0  0
 17 20  1  0  0  0
 17 39  1  0  0  0
 19 40  1  0  0  0
 19 41  1  0  0  0
 20 21  1  0  0  0
 20 42  1  0  0  0
 20 43  1  0  0  0
 21 22  2  0  0  0
 21 26  1  0  0  0
 22 23  1  0  0  0
 22 44  1  0  0  0
 23 24  2  0  0  0
 23 45  1  0  0  0
 24 25  1  0  0  0
 24 46  1  0  0  0
 25 26  2  0  0  0
 25 47  1  0  0  0
 26 48  1  0  0  0
M  END
> <s_m_entry_id>
7058

> <s_m_entry_name>
dock_pv.488

> <s_m_Source_Path>
/home/csk/Desktop/cluster/DUD-E-result/lkha4

> <s_m_Source_File>
dock_pv.maegz

> <i_m_Source_File_Index>
488

> <chembl_id>
CHEMBL516896

> <chembl_pref_name>
None

> <i_lp_mmshare_version>
53161

> <i_f3d_flags>
0

> <r_lp_tautomer_probability>
1

> <s_lp_Force_Field>
OPLS_2005

> <r_lp_Energy>
26.788848

> <b_lp_Chiralities_Consistent>
1

> <s_lp_Variant>
CHEMBL4618_lig180-1

> <s_i_glide_gridfile>
glide-grid_3chp

> <i_i_glide_lignum>
207

> <i_i_glide_rotatable_bonds>
8

> <r_i_docking_score>
-7.426384237539

> <r_i_glide_ligand_efficiency>
-0.285630162982269

> <r_i_glide_ligand_efficiency_sa>
-0.846178233934553

> <r_i_glide_ligand_efficiency_ln>
-1.74406197023181

> <r_i_glide_gscore>
-7.426384237539

> <r_i_glide_lipo>
-2.91538769584904

> <r_i_glide_hbond>
-0.136689652929264

> <r_i_glide_metal>
0

> <r_i_glide_rewards>
-1.48352681694975

> <r_i_glide_evdw>
-48.6761703491211

> <r_i_glide_ecoul>
-9.61787700653076

> <r_i_glide_erotb>
1.10895123133058

> <r_i_glide_esite>
-0.123241234705859

> <r_i_glide_emodel>
-80.4197322522984

> <r_i_glide_energy>
-58.2940473556519

> <r_i_glide_einternal>
10.2258749008179

> <i_i_glide_confnum>
11

> <i_i_glide_posenum>
393

> <r_i_glide_eff_state_penalty>
0

> <s_user_duplicate_titles>
CHEMBL4618_lig180

> <s_m_subgroup_title>
dock_pv

> <s_m_subgroupid>
dock_pv

> <b_m_subgroup_collapsed>
1

$$$$
CHEMBL4618_lig256
                    3D
 Schrodinger Suite 2021-1.
 71 73  0  0  1  0            999 V2000
    8.7573   40.7381   67.7036 C   0  0  0  0  0  0
    8.8618   42.1243   67.7240 C   0  0  0  0  0  0
    9.9346   42.7451   67.0899 C   0  0  0  0  0  0
   10.9180   42.0018   66.4385 C   0  0  0  0  0  0
   10.7557   40.6162   66.3499 C   0  0  0  0  0  0
    9.6844   39.9922   66.9767 C   0  0  0  0  0  0
   12.0207   42.7174   65.9202 N   0  0  0  0  0  0
   13.1809   42.2509   65.4014 C   0  0  0  0  0  0
   14.2033   43.3243   64.9748 C   0  0  0  0  0  0
   13.4451   41.0598   65.2368 O   0  0  0  0  0  0
   15.5681   42.9480   65.3788 N   0  0  1  0  0  0
    7.7257   40.1376   68.3838 O   0  0  0  0  0  0
    8.0058   39.0438   69.1670 C   0  0  0  0  0  0
    8.5921   39.2136   70.4160 C   0  0  0  0  0  0
    8.8357   38.1233   71.2456 C   0  0  0  0  0  0
    8.5150   36.8461   70.7986 C   0  0  0  0  0  0
    7.9478   36.6721   69.5400 C   0  0  0  0  0  0
    7.6868   37.7678   68.7216 C   0  0  0  0  0  0
   16.2933   42.3070   64.2754 C   0  0  0  0  0  0
   16.3065   44.0845   65.9456 C   0  0  0  0  0  0
   17.6258   43.7050   66.6464 C   0  0  0  0  0  0
   18.8724   43.7812   65.7327 C   0  0  0  0  0  0
   20.0088   43.0466   66.2991 N   0  0  2  0  0  0
   20.5597   43.7049   67.4931 C   0  0  0  0  0  0
   21.0524   42.8978   65.2828 C   0  0  0  0  0  0
   21.5464   42.8363   68.3133 C   0  0  2  0  0  0
   20.8968   41.5273   68.8361 C   0  0  0  0  0  0
   21.8701   40.7083   69.7169 C   0  0  0  0  0  0
   22.4598   41.5111   70.9109 C   0  0  1  0  0  0
   23.0724   42.8389   70.3841 C   0  0  0  0  0  0
   22.1206   43.6652   69.4879 C   0  0  0  0  0  0
   21.3534   41.7741   71.9692 C   0  0  0  0  0  0
   20.9222   40.6159   72.5402 O   0  0  0  0  0  0
   20.9192   42.8907   72.2613 O   0  0  0  0  0  0
    8.1235   42.7157   68.2473 H   0  0  0  0  0  0
   10.0094   43.8160   67.1392 H   0  0  0  0  0  0
   11.4475   39.9883   65.8134 H   0  0  0  0  0  0
    9.5868   38.9203   66.9121 H   0  0  0  0  0  0
   11.9463   43.7203   66.0041 H   0  0  0  0  0  0
   14.1175   43.4383   63.8922 H   0  0  0  0  0  0
   13.8987   44.2876   65.3869 H   0  0  0  0  0  0
    8.8274   40.2082   70.7424 H   0  0  0  0  0  0
    9.2728   38.2603   72.2234 H   0  0  0  0  0  0
    8.7077   35.9893   71.4263 H   0  0  0  0  0  0
    7.7210   35.6863   69.1823 H   0  0  0  0  0  0
    7.2380   37.6300   67.7487 H   0  0  0  0  0  0
   17.2315   41.8735   64.6176 H   0  0  0  0  0  0
   15.7009   41.5053   63.8316 H   0  0  0  0  0  0
   16.5216   43.0158   63.4769 H   0  0  0  0  0  0
   16.5162   44.7934   65.1434 H   0  0  0  0  0  0
   15.6754   44.6159   66.6600 H   0  0  0  0  0  0
   17.7514   44.4282   67.4541 H   0  0  0  0  0  0
   17.5690   42.7169   67.1112 H   0  0  0  0  0  0
   18.6174   43.4127   64.7419 H   0  0  0  0  0  0
   19.1534   44.8253   65.5770 H   0  0  0  0  0  0
   21.0419   44.6395   67.1980 H   0  0  0  0  0  0
   19.7490   43.9897   68.1617 H   0  0  0  0  0  0
   21.7578   42.1151   65.5605 H   0  0  0  0  0  0
   20.6353   42.6161   64.3153 H   0  0  0  0  0  0
   21.6175   43.8158   65.1403 H   0  0  0  0  0  0
   22.4030   42.5587   67.6972 H   0  0  0  0  0  0
   20.0019   41.7691   69.4121 H   0  0  0  0  0  0
   20.5321   40.9277   67.9995 H   0  0  0  0  0  0
   21.4431   39.7619   70.0517 H   0  0  0  0  0  0
   22.7033   40.3427   69.1141 H   0  0  0  0  0  0
   23.2146   40.9360   71.4469 H   0  0  0  0  0  0
   23.9804   42.5906   69.8341 H   0  0  0  0  0  0
   23.4895   43.4189   71.2068 H   0  0  0  0  0  0
   22.6273   44.5515   69.1070 H   0  0  0  0  0  0
   21.2917   44.0481   70.0826 H   0  0  0  0  0  0
   21.5151   39.8790   72.3403 H   0  0  0  0  0  0
  1 12  1  0  0  0
  1  6  1  0  0  0
  1  2  2  0  0  0
  2  3  1  0  0  0
  2 35  1  0  0  0
  3  4  2  0  0  0
  3 36  1  0  0  0
  4  5  1  0  0  0
  4  7  1  0  0  0
  5  6  2  0  0  0
  5 37  1  0  0  0
  6 38  1  0  0  0
  7  8  1  0  0  0
  7 39  1  0  0  0
  8  9  1  0  0  0
  8 10  2  0  0  0
  9 11  1  0  0  0
  9 40  1  0  0  0
  9 41  1  0  0  0
 11 19  1  0  0  0
 11 20  1  0  0  0
 12 13  1  0  0  0
 13 18  1  0  0  0
 13 14  2  0  0  0
 14 15  1  0  0  0
 14 42  1  0  0  0
 15 16  2  0  0  0
 15 43  1  0  0  0
 16 17  1  0  0  0
 16 44  1  0  0  0
 17 18  2  0  0  0
 17 45  1  0  0  0
 18 46  1  0  0  0
 19 47  1  0  0  0
 19 48  1  0  0  0
 19 49  1  0  0  0
 20 21  1  0  0  0
 20 50  1  0  0  0
 20 51  1  0  0  0
 21 22  1  0  0  0
 21 52  1  0  0  0
 21 53  1  0  0  0
 22 23  1  0  0  0
 22 54  1  0  0  0
 22 55  1  0  0  0
 23 24  1  0  0  0
 23 25  1  0  0  0
 24 26  1  0  0  0
 24 56  1  0  0  0
 24 57  1  0  0  0
 25 58  1  0  0  0
 25 59  1  0  0  0
 25 60  1  0  0  0
 26 27  1  0  0  0
 26 31  1  0  0  0
 26 61  1  0  0  0
 27 28  1  0  0  0
 27 62  1  0  0  0
 27 63  1  0  0  0
 28 29  1  0  0  0
 28 64  1  0  0  0
 28 65  1  0  0  0
 29 30  1  0  0  0
 29 32  1  0  0  0
 29 66  1  0  0  0
 30 31  1  0  0  0
 30 67  1  0  0  0
 30 68  1  0  0  0
 31 69  1  0  0  0
 31 70  1  0  0  0
 32 33  1  0  0  0
 32 34  2  0  0  0
 33 71  1  0  0  0
M  END
> <s_m_entry_id>
7059

> <s_m_entry_name>
dock_pv.489

> <s_m_Source_Path>
/home/csk/Desktop/cluster/DUD-E-result/lkha4

> <s_m_Source_File>
dock_pv.maegz

> <i_m_Source_File_Index>
489

> <chembl_id>
CHEMBL479401

> <chembl_pref_name>
None

> <i_lp_mmshare_version>
53161

> <i_f3d_flags>
0

> <r_lp_tautomer_probability>
1

> <s_lp_Force_Field>
OPLS_2005

> <r_lp_Energy>
36.918201

> <b_lp_Chiralities_Consistent>
1

> <s_lp_Variant>
CHEMBL4618_lig256-2

> <s_i_glide_gridfile>
glide-grid_3chp

> <i_i_glide_lignum>
294

> <i_i_glide_rotatable_bonds>
14

> <r_i_docking_score>
-7.41683831620297

> <r_i_glide_ligand_efficiency>
-0.218142303417734

> <r_i_glide_ligand_efficiency_sa>
-0.706696379679257

> <r_i_glide_ligand_efficiency_ln>
-1.63858761931738

> <r_i_glide_gscore>
-7.41683831620297

> <r_i_glide_lipo>
-3.87486266330938

> <r_i_glide_hbond>
-0.0737102089130264

> <r_i_glide_metal>
0

> <r_i_glide_rewards>
-0.720798478362776

> <r_i_glide_evdw>
-56.5349349975586

> <r_i_glide_ecoul>
-7.47166442871094

> <r_i_glide_erotb>
1.20002944856678

> <r_i_glide_esite>
0

> <r_i_glide_emodel>
-86.5278559226636

> <r_i_glide_energy>
-64.0065994262695

> <r_i_glide_einternal>
12.2861757278442

> <i_i_glide_confnum>
69

> <i_i_glide_posenum>
293

> <r_i_glide_eff_state_penalty>
0

> <s_user_duplicate_titles>
CHEMBL4618_lig256

> <s_m_subgroup_title>
dock_pv

> <s_m_subgroupid>
dock_pv

> <b_m_subgroup_collapsed>
1

$$$$
CHEMBL4618_lig333
                    3D
 Schrodinger Suite 2021-1.
 36 37  0  0  1  0            999 V2000
    7.3218   38.7872   69.4095 O   0  0  0  0  0  0
    8.0322   39.7088   68.6736 C   0  0  0  0  0  0
    7.7135   41.0656   68.7402 C   0  0  0  0  0  0
    8.4103   41.9987   67.9793 C   0  0  0  0  0  0
    9.4430   41.5833   67.1396 C   0  0  0  0  0  0
    9.7211   40.2146   67.0330 C   0  0  0  0  0  0
    9.0170   39.2844   67.7897 C   0  0  0  0  0  0
    7.9821   38.0082   70.3354 C   0  0  0  0  0  0
    7.8973   36.6203   70.2498 C   0  0  0  0  0  0
    8.5209   35.8160   71.2027 C   0  0  0  0  0  0
    9.2240   36.4012   72.2474 C   0  0  0  0  0  0
    9.3139   37.7837   72.3389 C   0  0  0  0  0  0
    8.6885   38.5891   71.3876 C   0  0  0  0  0  0
   10.1141   42.5678   66.4388 O   0  0  0  0  0  0
   11.4516   42.3334   66.0000 C   0  0  0  0  0  0
   11.8125   43.4179   64.9716 C   0  0  0  0  0  0
   13.1917   43.2459   64.3021 C   0  0  0  0  0  0
   14.3754   43.2966   65.2799 C   0  0  0  0  0  0
    6.9216   41.4033   69.3889 H   0  0  0  0  0  0
    8.1570   43.0485   68.0454 H   0  0  0  0  0  0
   10.4692   39.8309   66.3576 H   0  0  0  0  0  0
    9.2406   38.2308   67.6948 H   0  0  0  0  0  0
    7.3370   36.1643   69.4520 H   0  0  0  0  0  0
    8.4565   34.7401   71.1402 H   0  0  0  0  0  0
    9.7006   35.7793   72.9900 H   0  0  0  0  0  0
    9.8620   38.2137   73.1580 H   0  0  0  0  0  0
    8.7267   39.6633   71.4679 H   0  0  0  0  0  0
   11.5891   41.3587   65.5396 H   0  0  0  0  0  0
   12.1174   42.3837   66.8614 H   0  0  0  0  0  0
   11.7595   44.3926   65.4539 H   0  0  0  0  0  0
   11.0474   43.4185   64.1954 H   0  0  0  0  0  0
   13.3221   44.0323   63.5562 H   0  0  0  0  0  0
   13.2254   42.3072   63.7446 H   0  0  0  0  0  0
   15.3238   43.2536   64.7438 H   0  0  0  0  0  0
   14.3497   42.4575   65.9716 H   0  0  0  0  0  0
   14.3671   44.2148   65.8664 H   0  0  0  0  0  0
  1  2  1  0  0  0
  1  8  1  0  0  0
  2  7  2  0  0  0
  2  3  1  0  0  0
  3  4  2  0  0  0
  3 19  1  0  0  0
  4  5  1  0  0  0
  4 20  1  0  0  0
  5 14  1  0  0  0
  5  6  2  0  0  0
  6  7  1  0  0  0
  6 21  1  0  0  0
  7 22  1  0  0  0
  8  9  1  0  0  0
  8 13  2  0  0  0
  9 10  2  0  0  0
  9 23  1  0  0  0
 10 11  1  0  0  0
 10 24  1  0  0  0
 11 12  2  0  0  0
 11 25  1  0  0  0
 12 13  1  0  0  0
 12 26  1  0  0  0
 13 27  1  0  0  0
 14 15  1  0  0  0
 15 16  1  0  0  0
 15 28  1  0  0  0
 15 29  1  0  0  0
 16 17  1  0  0  0
 16 30  1  0  0  0
 16 31  1  0  0  0
 17 18  1  0  0  0
 17 32  1  0  0  0
 17 33  1  0  0  0
 18 34  1  0  0  0
 18 35  1  0  0  0
 18 36  1  0  0  0
M  END
> <s_m_entry_id>
7060

> <s_m_entry_name>
dock_pv.490

> <s_m_Source_Path>
/home/csk/Desktop/cluster/DUD-E-result/lkha4

> <s_m_Source_File>
dock_pv.maegz

> <i_m_Source_File_Index>
490

> <chembl_id>
CHEMBL475731

> <chembl_pref_name>
None

> <i_lp_mmshare_version>
53161

> <i_f3d_flags>
0

> <r_lp_tautomer_probability>
1

> <s_lp_Force_Field>
OPLS_2005

> <r_lp_Energy>
16.349176

> <b_lp_Chiralities_Consistent>
1

> <s_lp_Variant>
CHEMBL4618_lig333-1

> <s_i_glide_gridfile>
glide-grid_3chp

> <i_i_glide_lignum>
377

> <i_i_glide_rotatable_bonds>
6

> <r_i_docking_score>
-7.40161378329262

> <r_i_glide_ligand_efficiency>
-0.411200765738479

> <r_i_glide_ligand_efficiency_sa>
-1.07765086706296

> <r_i_glide_ligand_efficiency_ln>
-1.90254665721079

> <r_i_glide_gscore>
-7.40161378329262

> <r_i_glide_lipo>
-4.54848995552445

> <r_i_glide_hbond>
0

> <r_i_glide_metal>
0

> <r_i_glide_rewards>
-2.24486401107188

> <r_i_glide_evdw>
-36.7172927856445

> <r_i_glide_ecoul>
-1.66163086891174

> <r_i_glide_erotb>
1.47684945292271

> <r_i_glide_esite>
0

> <r_i_glide_emodel>
-52.888402193715

> <r_i_glide_energy>
-38.3789236545563

> <r_i_glide_einternal>
2.66099882125854

> <i_i_glide_confnum>
15

> <i_i_glide_posenum>
120

> <r_i_glide_eff_state_penalty>
0

> <s_user_duplicate_titles>
CHEMBL4618_lig333

> <s_m_subgroup_title>
dock_pv

> <s_m_subgroupid>
dock_pv

> <b_m_subgroup_collapsed>
1

$$$$
CHEMBL4618_lig13
                    3D
 Schrodinger Suite 2021-1.
 46 46  0  0  1  0            999 V2000
   10.3264   35.8552   73.5401 C   0  0  0  0  0  0
   10.1210   37.1982   73.2503 C   0  0  0  0  0  0
    9.2951   37.5716   72.1928 C   0  0  0  0  0  0
    8.6902   36.6075   71.3856 C   0  0  0  0  0  0
    8.9210   35.2598   71.6865 C   0  0  0  0  0  0
    9.7436   34.8820   72.7421 C   0  0  0  0  0  0
    7.6935   37.0086   70.2833 C   0  0  0  0  0  0
    8.2108   37.6454   68.9485 C   0  0  2  0  0  0
    9.0194   38.9788   69.0435 C   0  0  2  0  0  0
    7.0447   37.8160   68.0982 N   0  0  0  0  0  0
    8.5210   39.8192   70.0556 O   0  0  0  0  0  0
    9.3209   39.8137   67.7518 C   0  0  0  0  0  0
    9.7145   41.0877   67.9400 N   0  0  0  0  0  0
    9.2636   39.2999   66.6399 O   0  0  0  0  0  0
   10.3577   42.0617   67.0445 C   0  0  1  0  0  0
   11.4886   41.4011   66.1991 C   0  0  0  0  0  0
    9.3876   43.0160   66.3163 C   0  0  0  0  0  0
    8.1512   43.0178   66.8941 O   0  0  0  0  0  0
    9.7209   43.7432   65.4049 O   0  0  0  0  0  0
   12.4404   42.3020   65.3770 C   0  0  0  0  0  0
   13.5330   41.4666   64.6780 C   0  0  0  0  0  0
   13.0595   43.4152   66.2256 C   0  0  0  0  0  0
   10.9458   35.5685   74.3774 H   0  0  0  0  0  0
   10.5768   37.9502   73.8752 H   0  0  0  0  0  0
    9.1000   38.6160   72.0408 H   0  0  0  0  0  0
    8.4539   34.4678   71.1401 H   0  0  0  0  0  0
    9.9022   33.8359   72.9611 H   0  0  0  0  0  0
    6.9544   37.6630   70.7489 H   0  0  0  0  0  0
    7.1425   36.1101   70.0082 H   0  0  0  0  0  0
    8.8403   36.9275   68.4286 H   0  0  0  0  0  0
    9.9953   38.7090   69.4357 H   0  0  0  0  0  0
    6.5253   36.9570   67.9999 H   0  0  0  0  0  0
    6.4078   38.5017   68.4720 H   0  0  0  0  0  0
    7.5599   39.7813   70.0803 H   0  0  0  0  0  0
    9.6058   41.4216   68.8868 H   0  0  0  0  0  0
   10.8583   42.7303   67.7443 H   0  0  0  0  0  0
   11.0581   40.6543   65.5400 H   0  0  0  0  0  0
   12.1158   40.8468   66.8865 H   0  0  0  0  0  0
    7.5743   43.6556   66.4626 H   0  0  0  0  0  0
   11.8684   42.7790   64.5829 H   0  0  0  0  0  0
   14.5151   41.6198   65.1243 H   0  0  0  0  0  0
   13.6139   41.7319   63.6225 H   0  0  0  0  0  0
   13.3207   40.3977   64.7261 H   0  0  0  0  0  0
   13.3211   43.0622   67.2205 H   0  0  0  0  0  0
   13.9549   43.8354   65.7666 H   0  0  0  0  0  0
   12.3358   44.2160   66.3394 H   0  0  0  0  0  0
  1  2  2  0  0  0
  1  6  1  0  0  0
  1 23  1  0  0  0
  2  3  1  0  0  0
  2 24  1  0  0  0
  3  4  2  0  0  0
  3 25  1  0  0  0
  4  5  1  0  0  0
  4  7  1  0  0  0
  5  6  2  0  0  0
  5 26  1  0  0  0
  6 27  1  0  0  0
  7  8  1  0  0  0
  7 28  1  0  0  0
  7 29  1  0  0  0
  8  9  1  0  0  0
  8 10  1  0  0  0
  8 30  1  0  0  0
  9 11  1  0  0  0
  9 12  1  0  0  0
  9 31  1  0  0  0
 10 32  1  0  0  0
 10 33  1  0  0  0
 11 34  1  0  0  0
 12 13  1  0  0  0
 12 14  2  0  0  0
 13 15  1  0  0  0
 13 35  1  0  0  0
 15 16  1  0  0  0
 15 17  1  0  0  0
 15 36  1  0  0  0
 16 20  1  0  0  0
 16 37  1  0  0  0
 16 38  1  0  0  0
 17 18  1  0  0  0
 17 19  2  0  0  0
 18 39  1  0  0  0
 20 21  1  0  0  0
 20 22  1  0  0  0
 20 40  1  0  0  0
 21 41  1  0  0  0
 21 42  1  0  0  0
 21 43  1  0  0  0
 22 44  1  0  0  0
 22 45  1  0  0  0
 22 46  1  0  0  0
M  END
> <s_m_entry_id>
7061

> <s_m_entry_name>
dock_pv.491

> <s_m_Source_Path>
/home/csk/Desktop/cluster/DUD-E-result/lkha4

> <s_m_Source_File>
dock_pv.maegz

> <i_m_Source_File_Index>
491

> <chembl_id>
CHEMBL29292

> <chembl_pref_name>
UBENIMEX

> <i_lp_mmshare_version>
53161

> <i_f3d_flags>
0

> <r_lp_tautomer_probability>
1

> <s_lp_Force_Field>
OPLS_2005

> <r_lp_Energy>
17.521552

> <b_lp_Chiralities_Consistent>
1

> <s_lp_Variant>
CHEMBL4618_lig13-1

> <s_i_glide_gridfile>
glide-grid_3chp

> <i_i_glide_lignum>
13

> <i_i_glide_rotatable_bonds>
11

> <r_i_docking_score>
-7.39792302683751

> <r_i_glide_ligand_efficiency>
-0.336269228492614

> <r_i_glide_ligand_efficiency_sa>
-0.942239602954614

> <r_i_glide_ligand_efficiency_ln>
-1.808322233558

> <r_i_glide_gscore>
-7.39792302683751

> <r_i_glide_lipo>
-4.05410340624468

> <r_i_glide_hbond>
-0.232079796456499

> <r_i_glide_metal>
0

> <r_i_glide_rewards>
-2.13059599386823

> <r_i_glide_evdw>
-33.8407859802246

> <r_i_glide_ecoul>
-4.33974027633667

> <r_i_glide_erotb>
1.36185651019363

> <r_i_glide_esite>
0

> <r_i_glide_emodel>
-44.2698318673085

> <r_i_glide_energy>
-38.1805262565613

> <r_i_glide_einternal>
18.7877445220947

> <i_i_glide_confnum>
157

> <i_i_glide_posenum>
348

> <r_i_glide_eff_state_penalty>
0

> <s_user_duplicate_titles>
CHEMBL4618_lig13

> <s_m_subgroup_title>
dock_pv

> <s_m_subgroupid>
dock_pv

> <b_m_subgroup_collapsed>
1

$$$$
CHEMBL4618_lig384
                    3D
 Schrodinger Suite 2021-1.
 43 45  0  0  1  0            999 V2000
   10.2610   41.5498   66.5765 N   0  0  0  0  0  0
    9.5013   42.7608   66.3041 C   0  0  0  0  0  0
   10.3965   43.5610   65.3654 C   0  0  0  0  0  0
   11.8129   43.0595   65.6173 C   0  0  0  0  0  0
   11.6112   42.0645   66.7488 C   0  0  0  0  0  0
    9.7607   40.7770   67.7157 C   0  0  0  0  0  0
    8.3484   40.2048   67.4641 C   0  0  0  0  0  0
    8.1720   38.8223   67.7824 O   0  0  0  0  0  0
    8.2291   38.3727   69.0853 C   0  0  0  0  0  0
    8.0173   37.0157   69.2808 C   0  0  0  0  0  0
    8.1269   36.4618   70.5519 C   0  0  0  0  0  0
    8.4973   37.2399   71.6510 C   0  0  0  0  0  0
    8.5443   38.6151   71.4715 C   0  0  0  0  0  0
    8.4571   39.1825   70.2015 C   0  0  0  0  0  0
    8.8088   36.7450   72.9132 O   0  0  0  0  0  0
    9.6423   35.6509   73.1400 C   0  0  0  0  0  0
   10.3989   35.5610   74.3234 C   0  0  0  0  0  0
   11.2429   34.4649   74.5131 C   0  0  0  0  0  0
   11.2966   33.4698   73.5430 C   0  0  0  0  0  0
   10.5211   33.6067   72.3992 C   0  0  0  0  0  0
    9.7234   34.6795   72.1873 N   0  0  0  0  0  0
   10.3146   36.5657   75.3761 N   0  3  0  0  0  0
   11.3210   37.2352   75.6009 O   0  5  0  0  0  0
    9.2617   36.6155   76.0018 O   0  0  0  0  0  0
    9.2465   43.3121   67.2127 H   0  0  0  0  0  0
    8.5446   42.5041   65.8504 H   0  0  0  0  0  0
   10.2908   44.6160   65.5406 H   0  0  0  0  0  0
   10.1230   43.4100   64.3400 H   0  0  0  0  0  0
   12.2479   42.5779   64.7406 H   0  0  0  0  0  0
   12.4866   43.8637   65.9169 H   0  0  0  0  0  0
   12.3247   41.2395   66.7401 H   0  0  0  0  0  0
   11.7178   42.5582   67.7118 H   0  0  0  0  0  0
   10.4546   39.9657   67.9383 H   0  0  0  0  0  0
    9.7214   41.4308   68.5870 H   0  0  0  0  0  0
    7.6011   40.8156   67.9734 H   0  0  0  0  0  0
    8.1212   40.2682   66.4024 H   0  0  0  0  0  0
    7.7888   36.3819   68.4367 H   0  0  0  0  0  0
    7.9586   35.4158   70.6701 H   0  0  0  0  0  0
    8.6514   39.2367   72.3371 H   0  0  0  0  0  0
    8.5278   40.2524   70.1087 H   0  0  0  0  0  0
   11.8249   34.3672   75.4188 H   0  0  0  0  0  0
   11.9467   32.6276   73.6852 H   0  0  0  0  0  0
   10.5382   32.8525   71.6235 H   0  0  0  0  0  0
  1  5  1  0  0  0
  1  6  1  0  0  0
  1  2  1  0  0  0
  2  3  1  0  0  0
  2 25  1  0  0  0
  2 26  1  0  0  0
  3  4  1  0  0  0
  3 27  1  0  0  0
  3 28  1  0  0  0
  4  5  1  0  0  0
  4 29  1  0  0  0
  4 30  1  0  0  0
  5 31  1  0  0  0
  5 32  1  0  0  0
  6  7  1  0  0  0
  6 33  1  0  0  0
  6 34  1  0  0  0
  7  8  1  0  0  0
  7 35  1  0  0  0
  7 36  1  0  0  0
  8  9  1  0  0  0
  9 10  1  0  0  0
  9 14  2  0  0  0
 10 11  2  0  0  0
 10 37  1  0  0  0
 11 12  1  0  0  0
 11 38  1  0  0  0
 12 13  2  0  0  0
 12 15  1  0  0  0
 13 14  1  0  0  0
 13 39  1  0  0  0
 14 40  1  0  0  0
 15 16  1  0  0  0
 16 17  1  0  0  0
 16 21  2  0  0  0
 17 18  2  0  0  0
 17 22  1  0  0  0
 18 19  1  0  0  0
 18 41  1  0  0  0
 19 20  2  0  0  0
 19 42  1  0  0  0
 20 21  1  0  0  0
 20 43  1  0  0  0
 22 23  1  0  0  0
 22 24  2  0  0  0
M  CHG  2  22   1  23  -1
M  END
> <s_m_entry_id>
7062

> <s_m_entry_name>
dock_pv.492

> <s_m_Source_Path>
/home/csk/Desktop/cluster/DUD-E-result/lkha4

> <s_m_Source_File>
dock_pv.maegz

> <i_m_Source_File_Index>
492

> <chembl_id>
CHEMBL1775098

> <chembl_pref_name>
None

> <i_lp_mmshare_version>
53161

> <i_f3d_flags>
0

> <r_lp_tautomer_probability>
1

> <s_lp_Force_Field>
OPLS_2005

> <r_lp_Energy>
40.137473

> <b_lp_Chiralities_Consistent>
1

> <s_lp_Variant>
CHEMBL4618_lig384-1

> <s_i_glide_gridfile>
glide-grid_3chp

> <i_i_glide_lignum>
445

> <i_i_glide_rotatable_bonds>
7

> <r_i_docking_score>
-7.38452841450019

> <r_i_glide_ligand_efficiency>
-0.307688683937508

> <r_i_glide_ligand_efficiency_sa>
-0.887527743454442

> <r_i_glide_ligand_efficiency_ln>
-1.76745650351882

> <r_i_glide_gscore>
-7.38452841450019

> <r_i_glide_lipo>
-4.57013305465041

> <r_i_glide_hbond>
0

> <r_i_glide_metal>
0

> <r_i_glide_rewards>
-1.29152750628215

> <r_i_glide_evdw>
-39.3508338928223

> <r_i_glide_ecoul>
-2.26779985427856

> <r_i_glide_erotb>
0.866295147669672

> <r_i_glide_esite>
-0.0814513284544123

> <r_i_glide_emodel>
-53.5877614533493

> <r_i_glide_energy>
-41.6186337471008

> <r_i_glide_einternal>
15.0422096252441

> <i_i_glide_confnum>
68

> <i_i_glide_posenum>
221

> <r_i_glide_eff_state_penalty>
0

> <s_user_duplicate_titles>
CHEMBL4618_lig384

> <s_m_subgroup_title>
dock_pv

> <s_m_subgroupid>
dock_pv

> <b_m_subgroup_collapsed>
1

$$$$
CHEMBL4618_lig366
                    3D
 Schrodinger Suite 2021-1.
 50 53  0  0  1  0            999 V2000
    8.5210   39.0160   70.4982 C   0  0  0  0  0  0
    8.3686   37.6888   70.1146 C   0  0  0  0  0  0
    8.1210   37.3683   68.7804 C   0  0  0  0  0  0
    8.0604   38.3790   67.8237 C   0  0  0  0  0  0
    8.2181   39.7073   68.2112 C   0  0  0  0  0  0
    8.4418   40.0210   69.5400 C   0  0  0  0  0  0
    8.1210   40.7218   67.2893 O   0  0  0  0  0  0
    9.2398   41.3816   66.8581 C   0  0  0  0  0  0
    9.1139   42.6970   66.4218 C   0  0  0  0  0  0
   10.2298   43.3721   65.9400 C   0  0  0  0  0  0
   11.4765   42.7528   65.9543 C   0  0  0  0  0  0
   11.5862   41.4160   66.3400 C   0  0  0  0  0  0
   10.4647   40.7328   66.7710 C   0  0  0  0  0  0
   12.5714   43.4812   65.5695 O   0  0  0  0  0  0
   13.7306   43.3519   66.3947 C   0  0  0  0  0  0
   14.9879   43.2902   65.5325 C   0  0  2  0  0  0
   14.8553   42.0669   64.5713 C   0  0  0  0  0  0
   16.0891   41.8390   63.7059 C   0  0  0  0  0  0
   17.3210   41.9015   64.5849 C   0  0  0  0  0  0
   17.4251   43.2362   65.3053 C   0  0  0  0  0  0
   16.3003   43.3389   66.2377 N   0  0  1  0  0  0
    8.5210   36.4409   71.2975 Cl  0  0  0  0  0  0
   16.4939   44.5101   67.1140 C   0  0  0  0  0  0
   17.7233   44.4425   68.0152 C   0  0  0  0  0  0
   18.5323   45.4737   68.1338 N   0  0  0  0  0  0
   19.5073   45.0160   69.0181 O   0  0  0  0  0  0
   19.1330   43.7456   69.3115 C   0  0  0  0  0  0
   18.0368   43.3693   68.7155 N   0  0  0  0  0  0
    8.6829   39.2691   71.5355 H   0  0  0  0  0  0
    8.0027   36.3367   68.4861 H   0  0  0  0  0  0
    7.8817   38.1471   66.7846 H   0  0  0  0  0  0
    8.5210   41.0543   69.8274 H   0  0  0  0  0  0
    8.1515   43.1883   66.4502 H   0  0  0  0  0  0
   10.1364   44.3868   65.5928 H   0  0  0  0  0  0
   12.5299   40.8967   66.2817 H   0  0  0  0  0  0
   10.5210   39.6947   67.0395 H   0  0  0  0  0  0
   13.7210   42.5160   67.0925 H   0  0  0  0  0  0
   13.7702   44.2160   67.0241 H   0  0  0  0  0  0
   15.0028   44.1665   64.8864 H   0  0  0  0  0  0
   14.0122   42.2081   63.8920 H   0  0  0  0  0  0
   14.6673   41.1576   65.1429 H   0  0  0  0  0  0
   16.1423   42.6159   62.9384 H   0  0  0  0  0  0
   16.0438   40.8949   63.1651 H   0  0  0  0  0  0
   18.1719   41.8160   63.9400 H   0  0  0  0  0  0
   17.3560   41.1025   65.3238 H   0  0  0  0  0  0
   17.4358   44.0831   64.6156 H   0  0  0  0  0  0
   18.3805   43.2554   65.8314 H   0  0  0  0  0  0
   15.6448   44.6160   67.7806 H   0  0  0  0  0  0
   16.5210   45.4116   66.5023 H   0  0  0  0  0  0
   19.7649   43.1928   69.9915 H   0  0  0  0  0  0
  1  2  2  0  0  0
  1  6  1  0  0  0
  1 29  1  0  0  0
  2  3  1  0  0  0
  2 22  1  0  0  0
  3  4  2  0  0  0
  3 30  1  0  0  0
  4  5  1  0  0  0
  4 31  1  0  0  0
  5  7  1  0  0  0
  5  6  2  0  0  0
  6 32  1  0  0  0
  7  8  1  0  0  0
  8  9  2  0  0  0
  8 13  1  0  0  0
  9 10  1  0  0  0
  9 33  1  0  0  0
 10 11  2  0  0  0
 10 34  1  0  0  0
 11 14  1  0  0  0
 11 12  1  0  0  0
 12 13  2  0  0  0
 12 35  1  0  0  0
 13 36  1  0  0  0
 14 15  1  0  0  0
 15 16  1  0  0  0
 15 37  1  0  0  0
 15 38  1  0  0  0
 16 17  1  0  0  0
 16 21  1  0  0  0
 16 39  1  0  0  0
 17 18  1  0  0  0
 17 40  1  0  0  0
 17 41  1  0  0  0
 18 19  1  0  0  0
 18 42  1  0  0  0
 18 43  1  0  0  0
 19 20  1  0  0  0
 19 44  1  0  0  0
 19 45  1  0  0  0
 20 21  1  0  0  0
 20 46  1  0  0  0
 20 47  1  0  0  0
 21 23  1  0  0  0
 23 24  1  0  0  0
 23 48  1  0  0  0
 23 49  1  0  0  0
 24 25  2  0  0  0
 24 28  1  0  0  0
 25 26  1  0  0  0
 26 27  1  0  0  0
 27 28  2  0  0  0
 27 50  1  0  0  0
M  END
> <s_m_entry_id>
7063

> <s_m_entry_name>
dock_pv.493

> <s_m_Source_Path>
/home/csk/Desktop/cluster/DUD-E-result/lkha4

> <s_m_Source_File>
dock_pv.maegz

> <i_m_Source_File_Index>
493

> <chembl_id>
CHEMBL1098505

> <chembl_pref_name>
None

> <i_lp_mmshare_version>
53161

> <i_f3d_flags>
0

> <r_lp_tautomer_probability>
1

> <s_lp_Force_Field>
OPLS_2005

> <r_lp_Energy>
34.437182

> <b_lp_Chiralities_Consistent>
1

> <s_lp_Variant>
CHEMBL4618_lig366-1

> <s_i_glide_gridfile>
glide-grid_3chp

> <i_i_glide_lignum>
412

> <i_i_glide_rotatable_bonds>
7

> <r_i_docking_score>
-7.33812908714432

> <r_i_glide_ligand_efficiency>
-0.262076038826583

> <r_i_glide_ligand_efficiency_sa>
-0.795817208409718

> <r_i_glide_ligand_efficiency_ln>
-1.69385565014509

> <r_i_glide_gscore>
-7.33812908714432

> <r_i_glide_lipo>
-4.15786460830297

> <r_i_glide_hbond>
-0.125245535618054

> <r_i_glide_metal>
0

> <r_i_glide_rewards>
-0.780605322018124

> <r_i_glide_evdw>
-45.3018112182617

> <r_i_glide_ecoul>
-4.81433153152466

> <r_i_glide_erotb>
0.858000390970248

> <r_i_glide_esite>
-0.145173721533637

> <r_i_glide_emodel>
-68.5692900949142

> <r_i_glide_energy>
-50.1161427497864

> <r_i_glide_einternal>
6.98422718048096

> <i_i_glide_confnum>
159

> <i_i_glide_posenum>
269

> <r_i_glide_eff_state_penalty>
0

> <s_user_duplicate_titles>
CHEMBL4618_lig366

> <s_m_subgroup_title>
dock_pv

> <s_m_subgroupid>
dock_pv

> <b_m_subgroup_collapsed>
1

$$$$
CHEMBL4618_lig2
                    3D
 Schrodinger Suite 2021-1.
 31 32  0  0  1  0            999 V2000
   10.3447   42.8874   66.2066 O   0  0  0  0  0  0
    9.6120   41.9623   66.9413 C   0  0  0  0  0  0
    8.7292   42.4385   67.9097 C   0  0  0  0  0  0
    8.0470   41.5516   68.7396 C   0  0  0  0  0  0
    8.2337   40.1763   68.6114 C   0  0  0  0  0  0
    9.0207   39.6891   67.5670 C   0  0  0  0  0  0
    9.6918   40.5768   66.7401 C   0  0  0  0  0  0
   11.6141   42.6234   65.7092 C   0  0  0  0  0  0
   12.4177   41.5925   66.1877 C   0  0  0  0  0  0
   13.5918   41.2518   65.5435 C   0  0  0  0  0  0
   14.0808   42.0174   64.5044 C   0  0  0  0  0  0
   13.3496   43.1258   64.0742 C   0  0  0  0  0  0
   12.1197   43.4164   64.6782 C   0  0  0  0  0  0
    7.6234   39.3664   69.5403 O   0  0  0  0  0  0
    8.0795   38.0296   69.7161 C   0  0  0  0  0  0
    7.7212   37.6101   71.1416 C   0  0  0  0  0  0
   15.2755   41.6499   63.9404 O   0  0  0  0  0  0
    8.5831   43.4984   68.0354 H   0  0  0  0  0  0
    7.3949   41.9319   69.5119 H   0  0  0  0  0  0
    9.1413   38.6294   67.3977 H   0  0  0  0  0  0
   10.2922   40.1676   65.9415 H   0  0  0  0  0  0
   12.1211   41.0160   67.0438 H   0  0  0  0  0  0
   14.1213   40.4009   65.9334 H   0  0  0  0  0  0
   13.7186   43.7427   63.2679 H   0  0  0  0  0  0
   11.5357   44.2485   64.3397 H   0  0  0  0  0  0
    9.1610   37.9464   69.5958 H   0  0  0  0  0  0
    7.6055   37.3741   68.9844 H   0  0  0  0  0  0
    8.0089   36.5760   71.3324 H   0  0  0  0  0  0
    6.6484   37.7008   71.3151 H   0  0  0  0  0  0
    8.2259   38.2419   71.8730 H   0  0  0  0  0  0
   15.2256   41.6980   62.9683 H   0  0  0  0  0  0
  1  2  1  0  0  0
  1  8  1  0  0  0
  2  7  2  0  0  0
  2  3  1  0  0  0
  3  4  2  0  0  0
  3 18  1  0  0  0
  4  5  1  0  0  0
  4 19  1  0  0  0
  5  6  2  0  0  0
  5 14  1  0  0  0
  6  7  1  0  0  0
  6 20  1  0  0  0
  7 21  1  0  0  0
  8  9  1  0  0  0
  8 13  2  0  0  0
  9 10  2  0  0  0
  9 22  1  0  0  0
 10 11  1  0  0  0
 10 23  1  0  0  0
 11 12  2  0  0  0
 11 17  1  0  0  0
 12 13  1  0  0  0
 12 24  1  0  0  0
 13 25  1  0  0  0
 14 15  1  0  0  0
 15 16  1  0  0  0
 15 26  1  0  0  0
 15 27  1  0  0  0
 16 28  1  0  0  0
 16 29  1  0  0  0
 16 30  1  0  0  0
 17 31  1  0  0  0
M  END
> <s_m_entry_id>
7064

> <s_m_entry_name>
dock_pv.494

> <s_m_Source_Path>
/home/csk/Desktop/cluster/DUD-E-result/lkha4

> <s_m_Source_File>
dock_pv.maegz

> <i_m_Source_File_Index>
494

> <chembl_id>
CHEMBL455078

> <chembl_pref_name>
None

> <i_lp_mmshare_version>
53161

> <i_f3d_flags>
0

> <r_lp_tautomer_probability>
1

> <s_lp_Force_Field>
OPLS_2005

> <r_lp_Energy>
14.379857

> <b_lp_Chiralities_Consistent>
1

> <s_lp_Variant>
CHEMBL4618_lig2-1

> <s_i_glide_gridfile>
glide-grid_3chp

> <i_i_glide_lignum>
2

> <i_i_glide_rotatable_bonds>
5

> <r_i_docking_score>
-7.33387279841907

> <r_i_glide_ligand_efficiency>
-0.431404282259946

> <r_i_glide_ligand_efficiency_sa>
-1.10926188805854

> <r_i_glide_ligand_efficiency_ln>
-1.91324409579002

> <r_i_glide_gscore>
-7.33387279841907

> <r_i_glide_lipo>
-3.65667710831864

> <r_i_glide_hbond>
-0.16

> <r_i_glide_metal>
0

> <r_i_glide_rewards>
-1.81713208697544

> <r_i_glide_evdw>
-34.5021018981934

> <r_i_glide_ecoul>
-6.27659320831299

> <r_i_glide_erotb>
0.966530473031617

> <r_i_glide_esite>
0

> <r_i_glide_emodel>
-61.0111394558872

> <r_i_glide_energy>
-40.7786951065063

> <r_i_glide_einternal>
3.81833219528198

> <i_i_glide_confnum>
10

> <i_i_glide_posenum>
220

> <r_i_glide_eff_state_penalty>
0

> <s_user_duplicate_titles>
CHEMBL4618_lig2

> <s_m_subgroup_title>
dock_pv

> <s_m_subgroupid>
dock_pv

> <b_m_subgroup_collapsed>
1

$$$$
CHEMBL4618_lig471
                    3D
 Schrodinger Suite 2021-1.
 60 64  0  0  1  0            999 V2000
   18.5842   42.3131   65.6570 C   0  0  0  0  0  0
   17.9398   43.4978   66.2212 N   0  0  1  0  0  0
   16.8080   43.9208   65.3766 C   0  0  0  0  0  0
   15.5421   43.0572   65.4206 C   0  0  0  0  0  0
   15.3582   41.9626   64.5756 C   0  0  0  0  0  0
   14.2606   41.1593   64.6203 N   0  0  0  0  0  0
   13.2474   41.4751   65.4812 C   0  0  0  0  0  0
   12.1189   40.6320   65.6379 C   0  0  0  0  0  0
   10.9856   41.0271   66.3884 C   0  0  0  0  0  0
    9.8342   40.2663   66.3385 O   0  0  0  0  0  0
    9.0435   39.8063   67.3652 C   0  0  0  0  0  0
    8.5224   38.5368   67.1717 C   0  0  0  0  0  0
    8.1192   37.8010   68.2776 C   0  0  0  0  0  0
    8.2236   38.3705   69.5446 C   0  0  0  0  0  0
    8.5212   39.7332   69.6165 C   0  0  0  0  0  0
    8.9215   40.4680   68.5441 N   0  0  0  0  0  0
    8.2271   37.5246   70.7616 C   0  0  0  0  0  0
    8.2448   37.8185   72.1091 C   0  0  0  0  0  0
    8.4390   36.6084   72.7760 C   0  0  0  0  0  0
    8.5201   35.6007   71.9452 N   0  0  0  0  0  0
    8.3891   36.1646   70.7451 N   0  0  0  0  0  0
   11.0013   42.2484   67.0315 C   0  0  0  0  0  0
   12.1523   43.0159   66.9964 C   0  0  0  0  0  0
   13.2861   42.6609   66.2472 C   0  0  0  0  0  0
   14.4771   43.4169   66.2425 C   0  0  0  0  0  0
   17.7068   43.4211   67.6724 C   0  0  1  0  0  0
   18.9614   43.1318   68.4999 C   0  0  0  0  0  0
   18.6414   43.6052   69.9163 C   0  0  0  0  0  0
   17.5897   44.6032   69.7091 N   0  0  0  0  0  0
   17.1884   44.7203   68.3023 C   0  0  0  0  0  0
   16.9205   45.1585   70.7474 C   0  0  0  0  0  0
   17.2560   44.9674   71.9204 O   0  0  0  0  0  0
   15.7206   46.0852   70.4404 C   0  0  0  0  0  0
   15.1705   46.6160   71.6362 O   0  0  0  0  0  0
   18.8776   42.5040   64.6260 H   0  0  0  0  0  0
   19.4995   42.0507   66.1884 H   0  0  0  0  0  0
   17.9214   41.4491   65.6665 H   0  0  0  0  0  0
   16.5338   44.9418   65.6415 H   0  0  0  0  0  0
   17.1636   43.9808   64.3486 H   0  0  0  0  0  0
   16.0860   41.7426   63.8070 H   0  0  0  0  0  0
   12.1071   39.6843   65.1278 H   0  0  0  0  0  0
    8.6091   38.0752   66.2060 H   0  0  0  0  0  0
    7.8638   36.7602   68.1534 H   0  0  0  0  0  0
    8.5583   40.2155   70.5778 H   0  0  0  0  0  0
    8.1638   38.7985   72.5518 H   0  0  0  0  0  0
    8.5204   36.4739   73.8446 H   0  0  0  0  0  0
    8.4063   35.6066   69.9048 H   0  0  0  0  0  0
   10.1506   42.5796   67.6086 H   0  0  0  0  0  0
   12.2263   43.8161   67.6690 H   0  0  0  0  0  0
   14.5277   44.2939   66.8569 H   0  0  0  0  0  0
   16.9843   42.6240   67.8459 H   0  0  0  0  0  0
   19.8005   43.7119   68.1121 H   0  0  0  0  0  0
   19.2611   42.0843   68.4934 H   0  0  0  0  0  0
   19.5250   44.0212   70.4012 H   0  0  0  0  0  0
   18.2517   42.7617   70.4903 H   0  0  0  0  0  0
   16.1177   44.7972   68.1369 H   0  0  0  0  0  0
   17.7289   45.5415   67.8328 H   0  0  0  0  0  0
   14.9406   45.5144   69.9403 H   0  0  0  0  0  0
   16.0194   46.9026   69.7832 H   0  0  0  0  0  0
   15.6120   46.1801   72.3733 H   0  0  0  0  0  0
  1  2  1  0  0  0
  1 35  1  0  0  0
  1 36  1  0  0  0
  1 37  1  0  0  0
  2  3  1  0  0  0
  2 26  1  0  0  0
  3  4  1  0  0  0
  3 38  1  0  0  0
  3 39  1  0  0  0
  4  5  2  0  0  0
  4 25  1  0  0  0
  5  6  1  0  0  0
  5 40  1  0  0  0
  6  7  2  0  0  0
  7  8  1  0  0  0
  7 24  1  0  0  0
  8  9  2  0  0  0
  8 41  1  0  0  0
  9 10  1  0  0  0
  9 22  1  0  0  0
 10 11  1  0  0  0
 11 12  2  0  0  0
 11 16  1  0  0  0
 12 13  1  0  0  0
 12 42  1  0  0  0
 13 14  2  0  0  0
 13 43  1  0  0  0
 14 15  1  0  0  0
 14 17  1  0  0  0
 15 16  2  0  0  0
 15 44  1  0  0  0
 17 18  2  0  0  0
 17 21  1  0  0  0
 18 19  1  0  0  0
 18 45  1  0  0  0
 19 20  2  0  0  0
 19 46  1  0  0  0
 20 21  1  0  0  0
 21 47  1  0  0  0
 22 23  2  0  0  0
 22 48  1  0  0  0
 23 24  1  0  0  0
 23 49  1  0  0  0
 24 25  2  0  0  0
 25 50  1  0  0  0
 26 27  1  0  0  0
 26 30  1  0  0  0
 26 51  1  0  0  0
 27 28  1  0  0  0
 27 52  1  0  0  0
 27 53  1  0  0  0
 28 29  1  0  0  0
 28 54  1  0  0  0
 28 55  1  0  0  0
 29 30  1  0  0  0
 29 31  1  0  0  0
 30 56  1  0  0  0
 30 57  1  0  0  0
 31 32  2  0  0  0
 31 33  1  0  0  0
 33 34  1  0  0  0
 33 58  1  0  0  0
 33 59  1  0  0  0
 34 60  1  0  0  0
M  END
> <s_m_entry_id>
7065

> <s_m_entry_name>
dock_pv.495

> <s_m_Source_Path>
/home/csk/Desktop/cluster/DUD-E-result/lkha4

> <s_m_Source_File>
dock_pv.maegz

> <i_m_Source_File_Index>
495

> <chembl_id>
CHEMBL3889572

> <chembl_pref_name>
None

> <i_lp_mmshare_version>
53161

> <i_f3d_flags>
0

> <r_lp_tautomer_probability>
0.5

> <s_lp_Force_Field>
OPLS_2005

> <r_lp_Energy>
47.788946

> <b_lp_Chiralities_Consistent>
1

> <s_lp_Variant>
CHEMBL4618_lig471-1

> <s_i_glide_gridfile>
glide-grid_3chp

> <i_i_glide_lignum>
557

> <i_i_glide_rotatable_bonds>
9

> <r_i_docking_score>
-7.33049181548249

> <r_i_glide_ligand_efficiency>
-0.215602700455367

> <r_i_glide_ligand_efficiency_sa>
-0.698469051961484

> <r_i_glide_ligand_efficiency_ln>
-1.61951125537092

> <r_i_glide_gscore>
-7.33049181548249

> <r_i_glide_lipo>
-4.32738253703068

> <r_i_glide_hbond>
-0.032062096273575

> <r_i_glide_metal>
0

> <r_i_glide_rewards>
-1.13456313444468

> <r_i_glide_evdw>
-40.3902397155762

> <r_i_glide_ecoul>
-3.349200963974

> <r_i_glide_erotb>
0.765371470902741

> <r_i_glide_esite>
-0.0799633882613795

> <r_i_glide_emodel>
-40.3681304155918

> <r_i_glide_energy>
-43.7394406795502

> <r_i_glide_einternal>
10.6187944412231

> <i_i_glide_confnum>
4

> <i_i_glide_posenum>
163

> <r_i_glide_eff_state_penalty>
0

> <s_user_duplicate_titles>
CHEMBL4618_lig471

> <s_m_subgroup_title>
dock_pv

> <s_m_subgroupid>
dock_pv

> <b_m_subgroup_collapsed>
1

$$$$
CHEMBL4618_lig362
                    3D
 Schrodinger Suite 2021-1.
 48 50  0  0  1  0            999 V2000
    8.1214   37.4527   68.6639 C   0  0  0  0  0  0
    8.3627   37.7136   70.0112 C   0  0  0  0  0  0
    8.5218   39.0208   70.4519 C   0  0  0  0  0  0
    8.4381   40.0688   69.5398 C   0  0  0  0  0  0
    8.2390   39.8197   68.1916 C   0  0  0  0  0  0
    8.1153   38.5030   67.7447 C   0  0  0  0  0  0
    8.1544   40.8828   67.3156 O   0  0  0  0  0  0
    9.3043   41.4903   66.8554 C   0  0  0  0  0  0
   10.5182   40.8098   66.8140 C   0  0  0  0  0  0
   11.6656   41.4162   66.3397 C   0  0  0  0  0  0
   11.6150   42.7404   65.9094 C   0  0  0  0  0  0
   10.3942   43.4153   65.8874 C   0  0  0  0  0  0
    9.2413   42.7945   66.3667 C   0  0  0  0  0  0
   12.7521   43.3847   65.4877 O   0  0  0  0  0  0
   13.8548   43.3338   66.3972 C   0  0  0  0  0  0
   15.2052   43.3298   65.6652 C   0  0  2  0  0  0
   15.2449   42.1105   64.6932 C   0  0  0  0  0  0
   16.5559   41.9914   63.9152 C   0  0  0  0  0  0
   17.7521   42.2075   64.8546 C   0  0  0  0  0  0
   17.6410   43.5152   65.6118 C   0  0  0  0  0  0
   16.4549   43.4574   66.4762 N   0  0  1  0  0  0
    8.5137   36.4172   71.1404 Cl  0  0  0  0  0  0
   16.4506   44.6220   67.3819 C   0  0  0  0  0  0
   17.5844   44.6167   68.4278 C   0  0  0  0  0  0
   17.3211   43.7852   69.4785 O   0  0  0  0  0  0
   18.5780   45.3381   68.3326 O   0  0  0  0  0  0
    8.0015   36.4338   68.3337 H   0  0  0  0  0  0
    8.6799   39.2276   71.5001 H   0  0  0  0  0  0
    8.5057   41.0874   69.8763 H   0  0  0  0  0  0
    7.9657   38.3023   66.6944 H   0  0  0  0  0  0
   10.5519   39.8008   67.1607 H   0  0  0  0  0  0
   12.5905   40.8604   66.3059 H   0  0  0  0  0  0
   10.3485   44.4290   65.5294 H   0  0  0  0  0  0
    8.3000   43.3261   66.3685 H   0  0  0  0  0  0
   13.8178   42.5131   67.1090 H   0  0  0  0  0  0
   13.7724   44.2159   66.9978 H   0  0  0  0  0  0
   15.2292   44.2160   65.0357 H   0  0  0  0  0  0
   14.4479   42.2021   63.9523 H   0  0  0  0  0  0
   15.0659   41.1851   65.2388 H   0  0  0  0  0  0
   16.5360   42.7580   63.1389 H   0  0  0  0  0  0
   16.6210   41.0477   63.3727 H   0  0  0  0  0  0
   18.7037   42.2170   64.3400 H   0  0  0  0  0  0
   17.8365   41.4145   65.5836 H   0  0  0  0  0  0
   17.5831   44.3729   64.9383 H   0  0  0  0  0  0
   18.5583   43.6354   66.1895 H   0  0  0  0  0  0
   15.5305   44.6167   67.9492 H   0  0  0  0  0  0
   16.5160   45.5506   66.8171 H   0  0  0  0  0  0
   16.4231   43.4183   69.4672 H   0  0  0  0  0  0
  1  2  2  0  0  0
  1  6  1  0  0  0
  1 27  1  0  0  0
  2  3  1  0  0  0
  2 22  1  0  0  0
  3  4  2  0  0  0
  3 28  1  0  0  0
  4  5  1  0  0  0
  4 29  1  0  0  0
  5  7  1  0  0  0
  5  6  2  0  0  0
  6 30  1  0  0  0
  7  8  1  0  0  0
  8 13  1  0  0  0
  8  9  2  0  0  0
  9 10  1  0  0  0
  9 31  1  0  0  0
 10 11  2  0  0  0
 10 32  1  0  0  0
 11 14  1  0  0  0
 11 12  1  0  0  0
 12 13  2  0  0  0
 12 33  1  0  0  0
 13 34  1  0  0  0
 14 15  1  0  0  0
 15 16  1  0  0  0
 15 35  1  0  0  0
 15 36  1  0  0  0
 16 17  1  0  0  0
 16 21  1  0  0  0
 16 37  1  0  0  0
 17 18  1  0  0  0
 17 38  1  0  0  0
 17 39  1  0  0  0
 18 19  1  0  0  0
 18 40  1  0  0  0
 18 41  1  0  0  0
 19 20  1  0  0  0
 19 42  1  0  0  0
 19 43  1  0  0  0
 20 21  1  0  0  0
 20 44  1  0  0  0
 20 45  1  0  0  0
 21 23  1  0  0  0
 23 24  1  0  0  0
 23 46  1  0  0  0
 23 47  1  0  0  0
 24 25  1  0  0  0
 24 26  2  0  0  0
 25 48  1  0  0  0
M  END
> <s_m_entry_id>
7066

> <s_m_entry_name>
dock_pv.496

> <s_m_Source_Path>
/home/csk/Desktop/cluster/DUD-E-result/lkha4

> <s_m_Source_File>
dock_pv.maegz

> <i_m_Source_File_Index>
496

> <chembl_id>
CHEMBL1098170

> <chembl_pref_name>
None

> <i_lp_mmshare_version>
53161

> <i_f3d_flags>
0

> <r_lp_tautomer_probability>
1

> <s_lp_Force_Field>
OPLS_2005

> <r_lp_Energy>
37.618503

> <b_lp_Chiralities_Consistent>
1

> <s_lp_Variant>
CHEMBL4618_lig362-1

> <s_i_glide_gridfile>
glide-grid_3chp

> <i_i_glide_lignum>
408

> <i_i_glide_rotatable_bonds>
8

> <r_i_docking_score>
-7.31551155992075

> <r_i_glide_ligand_efficiency>
-0.281365829227721

> <r_i_glide_ligand_efficiency_sa>
-0.833545161966047

> <r_i_glide_ligand_efficiency_ln>
-1.71802388569609

> <r_i_glide_gscore>
-7.31551155992075

> <r_i_glide_lipo>
-4.06307741882687

> <r_i_glide_hbond>
-0.0737137993939618

> <r_i_glide_metal>
0

> <r_i_glide_rewards>
-0.620415455732566

> <r_i_glide_evdw>
-42.3353996276855

> <r_i_glide_ecoul>
-9.28457355499268

> <r_i_glide_erotb>
0.958933367245711

> <r_i_glide_esite>
-0.00778223857988472

> <r_i_glide_emodel>
-59.7053356404109

> <r_i_glide_energy>
-51.6199731826782

> <r_i_glide_einternal>
16.7321300506592

> <i_i_glide_confnum>
174

> <i_i_glide_posenum>
231

> <r_i_glide_eff_state_penalty>
0

> <s_user_duplicate_titles>
CHEMBL4618_lig362,627479

> <s_m_subgroup_title>
dock_pv

> <s_m_subgroupid>
dock_pv

> <b_m_subgroup_collapsed>
1

$$$$
CHEMBL4618_lig83
                    3D
 Schrodinger Suite 2021-1.
 46 47  0  0  1  0            999 V2000
    8.3156   37.2651   71.3322 C   0  0  0  0  0  0
    8.2360   36.5412   72.6748 C   0  0  0  0  0  0
   11.1244   41.8101   66.7401 N   0  0  0  0  0  0
    8.3945   38.6948   68.9053 C   0  0  0  0  0  0
    8.4877   38.6383   71.3271 C   0  0  0  0  0  0
    8.1050   36.6160   70.1165 C   0  0  0  0  0  0
    8.5212   39.3503   70.1348 C   0  0  0  0  0  0
    8.1211   37.3284   68.9147 C   0  0  0  0  0  0
    9.4211   35.6646   73.0704 C   0  0  0  0  0  0
    8.5343   39.3030   67.6686 O   0  0  0  0  0  0
    9.0237   40.6470   67.5631 C   0  0  0  0  0  0
   10.1540   40.7323   66.5118 C   0  0  0  0  0  0
   12.2361   41.7590   65.7792 C   0  0  0  0  0  0
   10.4949   43.1281   66.8566 C   0  0  0  0  0  0
    9.7141   34.5100   72.3401 C   0  0  0  0  0  0
   10.1091   35.9249   74.2610 C   0  0  0  0  0  0
   13.3940   42.7158   66.1086 C   0  0  0  0  0  0
    9.7507   43.6268   65.6012 C   0  0  0  0  0  0
   11.0495   35.0156   74.7352 C   0  0  0  0  0  0
   10.6434   33.5949   72.8190 C   0  0  0  0  0  0
   11.3208   33.8577   74.0082 C   0  0  0  0  0  0
    8.1202   37.2895   73.4589 H   0  0  0  0  0  0
    7.3214   35.9479   72.7263 H   0  0  0  0  0  0
    8.5214   39.1757   72.2607 H   0  0  0  0  0  0
    7.9372   35.5543   70.1005 H   0  0  0  0  0  0
    8.6005   40.4180   70.2047 H   0  0  0  0  0  0
    7.9911   36.8103   67.9757 H   0  0  0  0  0  0
    9.3993   41.0686   68.4880 H   0  0  0  0  0  0
    8.1897   41.2825   67.2625 H   0  0  0  0  0  0
    9.7211   40.8958   65.5400 H   0  0  0  0  0  0
   10.6742   39.7809   66.4578 H   0  0  0  0  0  0
   11.8891   41.9954   64.7786 H   0  0  0  0  0  0
   12.6290   40.7411   65.7512 H   0  0  0  0  0  0
    9.8135   43.1383   67.7058 H   0  0  0  0  0  0
   11.2812   43.8159   67.1383 H   0  0  0  0  0  0
    9.1480   34.2662   71.4565 H   0  0  0  0  0  0
    9.8818   36.8020   74.8509 H   0  0  0  0  0  0
   14.2503   42.5120   65.4662 H   0  0  0  0  0  0
   13.7201   42.6117   67.1401 H   0  0  0  0  0  0
   13.1189   43.7585   65.9490 H   0  0  0  0  0  0
    9.3210   44.6148   65.7724 H   0  0  0  0  0  0
   10.4117   43.6967   64.7395 H   0  0  0  0  0  0
    8.9221   42.9705   65.3426 H   0  0  0  0  0  0
   11.5581   35.1993   75.6710 H   0  0  0  0  0  0
   10.8366   32.6781   72.2804 H   0  0  0  0  0  0
   12.0374   33.1414   74.3835 H   0  0  0  0  0  0
  1  2  1  0  0  0
  1  5  1  0  0  0
  1  6  2  0  0  0
  2  9  1  0  0  0
  2 22  1  0  0  0
  2 23  1  0  0  0
  3 12  1  0  0  0
  3 13  1  0  0  0
  3 14  1  0  0  0
  4  7  1  0  0  0
  4 10  1  0  0  0
  4  8  2  0  0  0
  5  7  2  0  0  0
  5 24  1  0  0  0
  6  8  1  0  0  0
  6 25  1  0  0  0
  7 26  1  0  0  0
  8 27  1  0  0  0
  9 15  2  0  0  0
  9 16  1  0  0  0
 10 11  1  0  0  0
 11 12  1  0  0  0
 11 28  1  0  0  0
 11 29  1  0  0  0
 12 30  1  0  0  0
 12 31  1  0  0  0
 13 17  1  0  0  0
 13 32  1  0  0  0
 13 33  1  0  0  0
 14 18  1  0  0  0
 14 34  1  0  0  0
 14 35  1  0  0  0
 15 20  1  0  0  0
 15 36  1  0  0  0
 16 19  2  0  0  0
 16 37  1  0  0  0
 17 38  1  0  0  0
 17 39  1  0  0  0
 17 40  1  0  0  0
 18 41  1  0  0  0
 18 42  1  0  0  0
 18 43  1  0  0  0
 19 21  1  0  0  0
 19 44  1  0  0  0
 20 21  2  0  0  0
 20 45  1  0  0  0
 21 46  1  0  0  0
M  END
> <s_m_entry_id>
7067

> <s_m_entry_name>
dock_pv.497

> <s_m_Source_Path>
/home/csk/Desktop/cluster/DUD-E-result/lkha4

> <s_m_Source_File>
dock_pv.maegz

> <i_m_Source_File_Index>
497

> <chembl_id>
CHEMBL26424

> <chembl_pref_name>
TESMILIFENE

> <i_lp_mmshare_version>
53161

> <i_f3d_flags>
0

> <r_lp_tautomer_probability>
1

> <s_lp_Force_Field>
OPLS_2005

> <r_lp_Energy>
21.780353

> <b_lp_Chiralities_Consistent>
1

> <s_lp_Variant>
CHEMBL4618_lig83-1

> <s_i_glide_gridfile>
glide-grid_3chp

> <i_i_glide_lignum>
104

> <i_i_glide_rotatable_bonds>
8

> <r_i_docking_score>
-7.3066591115342

> <r_i_glide_ligand_efficiency>
-0.347936148168295

> <r_i_glide_ligand_efficiency_sa>
-0.959929450044258

> <r_i_glide_ligand_efficiency_ln>
-1.80655670083189

> <r_i_glide_gscore>
-7.3066591115342

> <r_i_glide_lipo>
-5.49195164343431

> <r_i_glide_hbond>
0

> <r_i_glide_metal>
0

> <r_i_glide_rewards>
-2.37505973539371

> <r_i_glide_evdw>
-37.2664108276367

> <r_i_glide_ecoul>
-1.87996029853821

> <r_i_glide_erotb>
2.70566685345639

> <r_i_glide_esite>
0

> <r_i_glide_emodel>
-50.1719895000305

> <r_i_glide_energy>
-39.1463711261749

> <r_i_glide_einternal>
5.44464254379272

> <i_i_glide_confnum>
103

> <i_i_glide_posenum>
281

> <r_i_glide_eff_state_penalty>
0

> <s_user_duplicate_titles>
CHEMBL4618_lig83,35953

> <s_m_subgroup_title>
dock_pv

> <s_m_subgroupid>
dock_pv

> <b_m_subgroup_collapsed>
1

$$$$
CHEMBL4618_lig253
                    3D
 Schrodinger Suite 2021-1.
 65 67  0  0  1  0            999 V2000
    8.1073   39.5961   68.6096 C   0  0  0  0  0  0
    8.8996   39.0345   67.6155 C   0  0  0  0  0  0
    9.7212   39.8544   66.8574 C   0  0  0  0  0  0
    9.7696   41.2217   67.1094 C   0  0  0  0  0  0
    8.9178   41.8057   68.0486 C   0  0  0  0  0  0
    8.0772   40.9819   68.7943 C   0  0  0  0  0  0
   10.7702   41.9375   66.4606 N   0  0  0  0  0  0
   10.6271   43.0290   65.6933 C   0  0  0  0  0  0
   11.8535   43.5141   64.8851 C   0  0  0  0  0  0
    9.5591   43.6189   65.5398 O   0  0  0  0  0  0
   13.1293   42.8927   65.2630 N   0  0  1  0  0  0
    7.3213   38.7753   69.3790 O   0  0  0  0  0  0
    7.9404   38.0021   70.3301 C   0  0  0  0  0  0
    7.8876   36.6157   70.2306 C   0  0  0  0  0  0
    8.5209   35.8166   71.1851 C   0  0  0  0  0  0
    9.2046   36.4092   72.2356 C   0  0  0  0  0  0
    9.2483   37.7911   72.3410 C   0  0  0  0  0  0
    8.5932   38.5905   71.4087 C   0  0  0  0  0  0
   13.3204   41.5221   64.7648 C   0  0  0  0  0  0
   14.2615   43.7037   64.8147 C   0  0  0  0  0  0
   15.4441   43.5972   65.7909 C   0  0  0  0  0  0
   16.7115   44.3603   65.3215 C   0  0  0  0  0  0
   17.8602   44.3018   66.2196 N   0  0  2  0  0  0
   18.4129   42.9498   66.1502 C   0  0  0  0  0  0
   17.5368   44.7641   67.5720 C   0  0  0  0  0  0
   19.7313   42.7927   66.8595 C   0  0  0  0  0  0
   20.9235   42.7990   66.1325 C   0  0  0  0  0  0
   22.1152   42.4544   66.7605 C   0  0  0  0  0  0
   22.1065   42.1333   68.1230 C   0  0  0  0  0  0
   20.9259   42.2170   68.8680 C   0  0  0  0  0  0
   19.7398   42.5440   68.2312 C   0  0  0  0  0  0
   23.2970   41.5067   68.7416 C   0  0  0  0  0  0
   23.4237   40.2158   68.3427 O   0  0  0  0  0  0
   23.9907   42.0673   69.5888 O   0  0  0  0  0  0
   20.8963   41.9130   70.1877 F   0  0  0  0  0  0
    8.8924   37.9677   67.4508 H   0  0  0  0  0  0
   10.3602   39.4160   66.1045 H   0  0  0  0  0  0
    8.9339   42.8713   68.2278 H   0  0  0  0  0  0
    7.4239   41.4115   69.5395 H   0  0  0  0  0  0
   11.6882   41.5209   66.4589 H   0  0  0  0  0  0
   11.6483   43.3926   63.8224 H   0  0  0  0  0  0
   11.8832   44.5923   65.0453 H   0  0  0  0  0  0
    7.3477   36.1644   69.4150 H   0  0  0  0  0  0
    8.4758   34.7388   71.1378 H   0  0  0  0  0  0
    9.6908   35.7977   72.9811 H   0  0  0  0  0  0
    9.7729   38.2162   73.1760 H   0  0  0  0  0  0
    8.5639   39.6641   71.5157 H   0  0  0  0  0  0
   14.2600   41.0946   65.1073 H   0  0  0  0  0  0
   12.5437   40.8384   65.1050 H   0  0  0  0  0  0
   13.3233   41.4987   63.6743 H   0  0  0  0  0  0
   14.5414   43.4159   63.8007 H   0  0  0  0  0  0
   13.9928   44.7581   64.7359 H   0  0  0  0  0  0
   15.1049   44.0132   66.7401 H   0  0  0  0  0  0
   15.6826   42.5521   65.9403 H   0  0  0  0  0  0
   17.0096   43.9810   64.3412 H   0  0  0  0  0  0
   16.5212   45.4155   65.1399 H   0  0  0  0  0  0
   17.7211   42.2183   66.5672 H   0  0  0  0  0  0
   18.5659   42.6667   65.1057 H   0  0  0  0  0  0
   18.4455   44.9301   68.1517 H   0  0  0  0  0  0
   16.9962   45.7107   67.5439 H   0  0  0  0  0  0
   16.9281   44.0409   68.1139 H   0  0  0  0  0  0
   20.9163   42.9909   65.0685 H   0  0  0  0  0  0
   23.0213   42.3706   66.1715 H   0  0  0  0  0  0
   18.8203   42.5341   68.7998 H   0  0  0  0  0  0
   23.3212   40.0234   67.3987 H   0  0  0  0  0  0
  1 12  1  0  0  0
  1  6  1  0  0  0
  1  2  2  0  0  0
  2  3  1  0  0  0
  2 36  1  0  0  0
  3  4  2  0  0  0
  3 37  1  0  0  0
  4  5  1  0  0  0
  4  7  1  0  0  0
  5  6  2  0  0  0
  5 38  1  0  0  0
  6 39  1  0  0  0
  7  8  1  0  0  0
  7 40  1  0  0  0
  8  9  1  0  0  0
  8 10  2  0  0  0
  9 11  1  0  0  0
  9 41  1  0  0  0
  9 42  1  0  0  0
 11 19  1  0  0  0
 11 20  1  0  0  0
 12 13  1  0  0  0
 13 18  1  0  0  0
 13 14  2  0  0  0
 14 15  1  0  0  0
 14 43  1  0  0  0
 15 16  2  0  0  0
 15 44  1  0  0  0
 16 17  1  0  0  0
 16 45  1  0  0  0
 17 18  2  0  0  0
 17 46  1  0  0  0
 18 47  1  0  0  0
 19 48  1  0  0  0
 19 49  1  0  0  0
 19 50  1  0  0  0
 20 21  1  0  0  0
 20 51  1  0  0  0
 20 52  1  0  0  0
 21 22  1  0  0  0
 21 53  1  0  0  0
 21 54  1  0  0  0
 22 23  1  0  0  0
 22 55  1  0  0  0
 22 56  1  0  0  0
 23 24  1  0  0  0
 23 25  1  0  0  0
 24 26  1  0  0  0
 24 57  1  0  0  0
 24 58  1  0  0  0
 25 59  1  0  0  0
 25 60  1  0  0  0
 25 61  1  0  0  0
 26 27  2  0  0  0
 26 31  1  0  0  0
 27 28  1  0  0  0
 27 62  1  0  0  0
 28 29  2  0  0  0
 28 63  1  0  0  0
 29 30  1  0  0  0
 29 32  1  0  0  0
 30 31  2  0  0  0
 30 35  1  0  0  0
 31 64  1  0  0  0
 32 33  1  0  0  0
 32 34  2  0  0  0
 33 65  1  0  0  0
M  END
> <s_m_entry_id>
7068

> <s_m_entry_name>
dock_pv.498

> <s_m_Source_Path>
/home/csk/Desktop/cluster/DUD-E-result/lkha4

> <s_m_Source_File>
dock_pv.maegz

> <i_m_Source_File_Index>
498

> <chembl_id>
CHEMBL479973

> <chembl_pref_name>
None

> <i_lp_mmshare_version>
53161

> <i_f3d_flags>
0

> <r_lp_tautomer_probability>
1

> <s_lp_Force_Field>
OPLS_2005

> <r_lp_Energy>
33.99708

> <b_lp_Chiralities_Consistent>
1

> <s_lp_Variant>
CHEMBL4618_lig253-1

> <s_i_glide_gridfile>
glide-grid_3chp

> <i_i_glide_lignum>
290

> <i_i_glide_rotatable_bonds>
14

> <r_i_docking_score>
-7.29841575608643

> <r_i_glide_ligand_efficiency>
-0.208526164459612

> <r_i_glide_ligand_efficiency_sa>
-0.682102910548312

> <r_i_glide_ligand_efficiency_ln>
-1.60216423807145

> <r_i_glide_gscore>
-7.29841575608643

> <r_i_glide_lipo>
-4.58763537903974

> <r_i_glide_hbond>
-0.0198398830496748

> <r_i_glide_metal>
0

> <r_i_glide_rewards>
0.0563726149992954

> <r_i_glide_evdw>
-55.9353904724121

> <r_i_glide_ecoul>
-7.3104887008667

> <r_i_glide_erotb>
1.1460297197543

> <r_i_glide_esite>
0

> <r_i_glide_emodel>
-84.789135389365

> <r_i_glide_energy>
-63.2458791732788

> <r_i_glide_einternal>
16.8159866333008

> <i_i_glide_confnum>
86

> <i_i_glide_posenum>
315

> <r_i_glide_eff_state_penalty>
0

> <s_user_duplicate_titles>
CHEMBL4618_lig253,467630

> <s_m_subgroup_title>
dock_pv

> <s_m_subgroupid>
dock_pv

> <b_m_subgroup_collapsed>
1

$$$$
CHEMBL4618_lig220
                    3D
 Schrodinger Suite 2021-1.
 43 44  0  0  1  0            999 V2000
    8.1169   39.9702   68.5705 C   0  0  0  0  0  0
    7.9661   41.3452   68.7413 C   0  0  0  0  0  0
    8.6953   42.2245   67.9496 C   0  0  0  0  0  0
    9.5914   41.7178   67.0096 C   0  0  0  0  0  0
    9.6882   40.3346   66.7969 C   0  0  0  0  0  0
    8.9377   39.4611   67.5708 C   0  0  0  0  0  0
   10.3762   42.6355   66.3016 N   0  0  0  0  0  0
   11.6761   42.4608   65.9916 C   0  0  0  0  0  0
   12.3254   41.4712   66.3293 O   0  0  0  0  0  0
   12.3540   43.5938   65.2187 C   0  0  0  0  0  0
   13.4816   43.1361   64.2699 C   0  0  0  0  0  0
   14.7877   42.6584   64.9548 C   0  0  1  0  0  0
   15.6487   41.9205   63.9120 C   0  0  0  0  0  0
   15.4743   43.8067   65.5395 N   0  0  0  0  0  0
   16.9208   41.4398   64.4110 N   0  0  0  0  0  0
    7.4178   39.1103   69.3708 O   0  0  0  0  0  0
    8.0250   38.4798   70.4355 C   0  0  0  0  0  0
    7.1907   37.7668   71.2818 C   0  0  0  0  0  0
    7.7237   37.0392   72.3420 C   0  0  0  0  0  0
    9.0835   37.0672   72.6070 C   0  0  0  0  0  0
    9.9203   37.8165   71.7969 C   0  0  0  0  0  0
    9.3961   38.5095   70.7089 C   0  0  0  0  0  0
    7.2982   41.7287   69.4988 H   0  0  0  0  0  0
    8.5844   43.2897   68.0991 H   0  0  0  0  0  0
   10.3503   39.9275   66.0457 H   0  0  0  0  0  0
    9.0235   38.3940   67.4249 H   0  0  0  0  0  0
    9.9726   43.5490   66.1591 H   0  0  0  0  0  0
   12.7556   44.2933   65.9416 H   0  0  0  0  0  0
   11.5978   44.1268   64.6452 H   0  0  0  0  0  0
   13.7144   43.9476   63.5793 H   0  0  0  0  0  0
   13.0943   42.3416   63.6303 H   0  0  0  0  0  0
   14.5633   41.9602   65.7571 H   0  0  0  0  0  0
   15.8320   42.5677   63.0508 H   0  0  0  0  0  0
   15.0896   41.0570   63.5524 H   0  0  0  0  0  0
   16.3417   43.5396   65.9760 H   0  0  0  0  0  0
   15.7153   44.4231   64.7675 H   0  0  0  0  0  0
   17.5440   41.5940   63.6116 H   0  0  0  0  0  0
   17.2523   42.1656   65.0343 H   0  0  0  0  0  0
    6.1224   37.7714   71.1056 H   0  0  0  0  0  0
    7.0791   36.4818   72.9838 H   0  0  0  0  0  0
    9.4831   36.5191   73.4480 H   0  0  0  0  0  0
   10.9771   37.8502   71.9978 H   0  0  0  0  0  0
   10.0790   39.0207   70.0541 H   0  0  0  0  0  0
  1  6  1  0  0  0
  1  2  2  0  0  0
  1 16  1  0  0  0
  2  3  1  0  0  0
  2 23  1  0  0  0
  3  4  2  0  0  0
  3 24  1  0  0  0
  4  7  1  0  0  0
  4  5  1  0  0  0
  5  6  2  0  0  0
  5 25  1  0  0  0
  6 26  1  0  0  0
  7  8  1  0  0  0
  7 27  1  0  0  0
  8  9  2  0  0  0
  8 10  1  0  0  0
 10 11  1  0  0  0
 10 28  1  0  0  0
 10 29  1  0  0  0
 11 12  1  0  0  0
 11 30  1  0  0  0
 11 31  1  0  0  0
 12 13  1  0  0  0
 12 14  1  0  0  0
 12 32  1  0  0  0
 13 15  1  0  0  0
 13 33  1  0  0  0
 13 34  1  0  0  0
 14 35  1  0  0  0
 14 36  1  0  0  0
 15 37  1  0  0  0
 15 38  1  0  0  0
 16 17  1  0  0  0
 17 18  2  0  0  0
 17 22  1  0  0  0
 18 19  1  0  0  0
 18 39  1  0  0  0
 19 20  2  0  0  0
 19 40  1  0  0  0
 20 21  1  0  0  0
 20 41  1  0  0  0
 21 22  2  0  0  0
 21 42  1  0  0  0
 22 43  1  0  0  0
M  END
> <s_m_entry_id>
7069

> <s_m_entry_name>
dock_pv.499

> <s_m_Source_Path>
/home/csk/Desktop/cluster/DUD-E-result/lkha4

> <s_m_Source_File>
dock_pv.maegz

> <i_m_Source_File_Index>
499

> <chembl_id>
CHEMBL477275

> <chembl_pref_name>
None

> <i_lp_mmshare_version>
53161

> <i_f3d_flags>
0

> <r_lp_tautomer_probability>
1

> <s_lp_Force_Field>
OPLS_2005

> <r_lp_Energy>
22.890601

> <b_lp_Chiralities_Consistent>
1

> <s_lp_Variant>
CHEMBL4618_lig220-1

> <s_i_glide_gridfile>
glide-grid_3chp

> <i_i_glide_lignum>
249

> <i_i_glide_rotatable_bonds>
8

> <r_i_docking_score>
-7.28955580213358

> <r_i_glide_ligand_efficiency>
-0.331343445551526

> <r_i_glide_ligand_efficiency_sa>
-0.928437365433635

> <r_i_glide_ligand_efficiency_ln>
-1.7818333310498

> <r_i_glide_gscore>
-7.28955580213358

> <r_i_glide_lipo>
-4.30167466107765

> <r_i_glide_hbond>
-0.320545813886027

> <r_i_glide_metal>
0

> <r_i_glide_rewards>
-1.680560987624

> <r_i_glide_evdw>
-35.2373695373535

> <r_i_glide_ecoul>
-13.9587602615356

> <r_i_glide_erotb>
2.86890817655212

> <r_i_glide_esite>
0

> <r_i_glide_emodel>
-69.9014213415729

> <r_i_glide_energy>
-49.1961297988892

> <r_i_glide_einternal>
6.8744912147522

> <i_i_glide_confnum>
81

> <i_i_glide_posenum>
253

> <r_i_glide_eff_state_penalty>
0

> <s_user_duplicate_titles>
CHEMBL4618_lig220,507048

> <s_m_subgroup_title>
dock_pv

> <s_m_subgroupid>
dock_pv

> <b_m_subgroup_collapsed>
1

$$$$
CHEMBL4618_lig239
                    3D
 Schrodinger Suite 2021-1.
 62 64  0  0  1  0            999 V2000
   16.8459   43.4143   65.4828 C   0  0  0  0  0  0
   15.8763   43.9177   66.3419 C   0  0  0  0  0  0
   14.5807   43.4162   66.3121 C   0  0  0  0  0  0
   14.2524   42.3750   65.4350 C   0  0  0  0  0  0
   15.2172   41.8920   64.5436 C   0  0  0  0  0  0
   16.5141   42.4123   64.5677 C   0  0  0  0  0  0
   13.0431   41.6652   65.5401 N   0  0  0  0  0  0
   11.8602   42.1042   66.0239 C   0  0  0  0  0  0
   10.9219   40.9820   66.5285 C   0  0  0  0  0  0
   11.5622   43.2968   66.1210 O   0  0  0  0  0  0
    9.5507   41.4193   66.7403 N   0  0  2  0  0  0
   18.1102   43.9504   65.5112 O   0  0  0  0  0  0
   19.0912   43.3235   66.2451 C   0  0  0  0  0  0
   18.9180   43.0175   67.6003 C   0  0  0  0  0  0
   19.9531   42.4225   68.3184 C   0  0  0  0  0  0
   21.1607   42.1403   67.6833 C   0  0  0  0  0  0
   21.3449   42.4542   66.3393 C   0  0  0  0  0  0
   20.3071   43.0431   65.6205 C   0  0  0  0  0  0
    8.7372   40.5375   67.5834 C   0  0  0  0  0  0
    8.7082   39.0533   67.1297 C   0  0  0  0  0  0
    7.8734   38.0478   67.9667 C   0  0  0  0  0  0
    8.2587   38.0517   69.3836 N   0  0  2  0  0  0
    8.1426   36.7329   70.0299 C   0  0  0  0  0  0
    8.9210   36.5625   71.3474 C   0  0  0  0  0  0
    9.6654   37.5979   71.9254 C   0  0  0  0  0  0
   10.3032   37.4159   73.1401 C   0  0  0  0  0  0
   10.2828   36.1814   73.7799 C   0  0  0  0  0  0
    9.6628   35.1055   73.1399 C   0  0  0  0  0  0
    8.9412   35.3078   71.9609 C   0  0  0  0  0  0
   10.9210   36.0454   75.1364 C   0  0  0  0  0  0
   11.1222   34.7664   75.5402 O   0  0  0  0  0  0
   11.3193   37.0160   75.7825 O   0  0  0  0  0  0
    7.4573   39.0159   70.1329 C   0  0  0  0  0  0
   16.1292   44.6983   67.0427 H   0  0  0  0  0  0
   13.8615   43.7992   67.0218 H   0  0  0  0  0  0
   14.9545   41.1225   63.8304 H   0  0  0  0  0  0
   17.2555   42.0851   63.8529 H   0  0  0  0  0  0
   13.1170   40.6750   65.3599 H   0  0  0  0  0  0
   10.9549   40.1390   65.8401 H   0  0  0  0  0  0
   11.3219   40.6161   67.4740 H   0  0  0  0  0  0
    9.0612   41.5969   65.8756 H   0  0  0  0  0  0
   17.9867   43.2415   68.0984 H   0  0  0  0  0  0
   19.8171   42.1724   69.3605 H   0  0  0  0  0  0
   21.9615   41.6680   68.2337 H   0  0  0  0  0  0
   22.2819   42.2229   65.8514 H   0  0  0  0  0  0
   20.4386   43.2786   64.5731 H   0  0  0  0  0  0
    9.1030   40.6167   68.6074 H   0  0  0  0  0  0
    7.7227   40.9370   67.6077 H   0  0  0  0  0  0
    8.3295   39.0152   66.1078 H   0  0  0  0  0  0
    9.7189   38.6534   67.0662 H   0  0  0  0  0  0
    6.8017   38.2164   67.8506 H   0  0  0  0  0  0
    8.0630   37.0617   67.5418 H   0  0  0  0  0  0
    7.0944   36.4752   70.1809 H   0  0  0  0  0  0
    8.5212   35.9722   69.3555 H   0  0  0  0  0  0
    9.7749   38.5527   71.4401 H   0  0  0  0  0  0
   10.8360   38.2420   73.5828 H   0  0  0  0  0  0
    9.6692   34.1204   73.5845 H   0  0  0  0  0  0
    8.4021   34.4735   71.5375 H   0  0  0  0  0  0
   11.4588   34.7782   76.4425 H   0  0  0  0  0  0
    8.0437   39.4160   70.9547 H   0  0  0  0  0  0
    7.1436   39.8724   69.5394 H   0  0  0  0  0  0
    6.5617   38.5744   70.5734 H   0  0  0  0  0  0
  1 12  1  0  0  0
  1  6  1  0  0  0
  1  2  2  0  0  0
  2  3  1  0  0  0
  2 34  1  0  0  0
  3  4  2  0  0  0
  3 35  1  0  0  0
  4  5  1  0  0  0
  4  7  1  0  0  0
  5  6  2  0  0  0
  5 36  1  0  0  0
  6 37  1  0  0  0
  7  8  1  0  0  0
  7 38  1  0  0  0
  8  9  1  0  0  0
  8 10  2  0  0  0
  9 11  1  0  0  0
  9 39  1  0  0  0
  9 40  1  0  0  0
 11 19  1  0  0  0
 11 41  1  0  0  0
 12 13  1  0  0  0
 13 18  1  0  0  0
 13 14  2  0  0  0
 14 15  1  0  0  0
 14 42  1  0  0  0
 15 16  2  0  0  0
 15 43  1  0  0  0
 16 17  1  0  0  0
 16 44  1  0  0  0
 17 18  2  0  0  0
 17 45  1  0  0  0
 18 46  1  0  0  0
 19 20  1  0  0  0
 19 47  1  0  0  0
 19 48  1  0  0  0
 20 21  1  0  0  0
 20 49  1  0  0  0
 20 50  1  0  0  0
 21 22  1  0  0  0
 21 51  1  0  0  0
 21 52  1  0  0  0
 22 23  1  0  0  0
 22 33  1  0  0  0
 23 24  1  0  0  0
 23 53  1  0  0  0
 23 54  1  0  0  0
 24 25  2  0  0  0
 24 29  1  0  0  0
 25 26  1  0  0  0
 25 55  1  0  0  0
 26 27  2  0  0  0
 26 56  1  0  0  0
 27 28  1  0  0  0
 27 30  1  0  0  0
 28 29  2  0  0  0
 28 57  1  0  0  0
 29 58  1  0  0  0
 30 31  1  0  0  0
 30 32  2  0  0  0
 31 59  1  0  0  0
 33 60  1  0  0  0
 33 61  1  0  0  0
 33 62  1  0  0  0
M  END
> <s_m_entry_id>
7070

> <s_m_entry_name>
dock_pv.500

> <s_m_Source_Path>
/home/csk/Desktop/cluster/DUD-E-result/lkha4

> <s_m_Source_File>
dock_pv.maegz

> <i_m_Source_File_Index>
500

> <chembl_id>
CHEMBL482252

> <chembl_pref_name>
None

> <i_lp_mmshare_version>
53161

> <i_f3d_flags>
0

> <r_lp_tautomer_probability>
1

> <s_lp_Force_Field>
OPLS_2005

> <r_lp_Energy>
34.92563

> <b_lp_Chiralities_Consistent>
1

> <s_lp_Variant>
CHEMBL4618_lig239-1

> <s_i_glide_gridfile>
glide-grid_3chp

> <i_i_glide_lignum>
274

> <i_i_glide_rotatable_bonds>
14

> <r_i_docking_score>
-7.26275629660755

> <r_i_glide_ligand_efficiency>
-0.220083524139623

> <r_i_glide_ligand_efficiency_sa>
-0.705925458321548

> <r_i_glide_ligand_efficiency_ln>
-1.61519939582597

> <r_i_glide_gscore>
-7.26275629660755

> <r_i_glide_lipo>
-3.71805880989713

> <r_i_glide_hbond>
-0.11002652961544

> <r_i_glide_metal>
0

> <r_i_glide_rewards>
-0.851450854302642

> <r_i_glide_evdw>
-61.2099761962891

> <r_i_glide_ecoul>
-5.48366689682007

> <r_i_glide_erotb>
1.29982874154512

> <r_i_glide_esite>
0

> <r_i_glide_emodel>
-86.5225285361515

> <r_i_glide_energy>
-66.6936430931091

> <r_i_glide_einternal>
15.4833564758301

> <i_i_glide_confnum>
197

> <i_i_glide_posenum>
168

> <r_i_glide_eff_state_penalty>
0

> <s_user_duplicate_titles>
CHEMBL4618_lig239,466980

> <s_m_subgroup_title>
dock_pv

> <s_m_subgroupid>
dock_pv

> <b_m_subgroup_collapsed>
1

$$$$
CHEMBL4618_lig413
                    3D
 Schrodinger Suite 2021-1.
 45 48  0  0  1  0            999 V2000
   19.2124   44.1885   67.4021 C   0  0  0  0  0  0
   18.9137   43.3390   66.3326 C   0  0  0  0  0  0
   16.8783   44.8014   67.7032 N   0  0  0  0  0  0
   18.1876   44.8788   68.0504 C   0  0  0  0  0  0
   16.5749   43.9791   66.6939 C   0  0  0  0  0  0
   17.5532   43.2264   65.9835 C   0  0  0  0  0  0
   16.7389   42.2762   64.7401 S   0  0  0  0  0  0
   15.2393   43.0037   65.2519 C   0  0  0  0  0  0
   15.2925   43.8160   66.2697 N   0  0  0  0  0  0
   14.1323   42.6905   64.5038 O   0  0  0  0  0  0
   12.9212   42.5741   65.1361 C   0  0  0  0  0  0
   12.6883   41.4717   65.9450 C   0  0  0  0  0  0
   11.4613   41.3305   66.5763 C   0  0  0  0  0  0
   10.4228   42.2377   66.3630 C   0  0  0  0  0  0
   10.6615   43.3436   65.5408 C   0  0  0  0  0  0
   11.9134   43.5177   64.9393 C   0  0  0  0  0  0
    9.0515   42.0484   67.0385 C   0  0  0  0  0  0
    8.8655   40.7375   67.6900 N   0  0  0  0  0  0
    7.8347   40.7412   68.7400 C   0  0  0  0  0  0
    7.7788   39.3820   69.4781 C   0  0  0  0  0  0
    7.6540   38.1785   68.5336 C   0  0  0  0  0  0
    8.7572   38.2740   67.4845 C   0  0  0  0  0  0
    8.7180   39.6168   66.7405 C   0  0  0  0  0  0
   20.0429   42.6160   65.6254 C   0  0  0  0  0  0
   20.2341   44.3027   67.7348 H   0  0  0  0  0  0
   18.4078   45.5172   68.8915 H   0  0  0  0  0  0
   13.4597   40.7311   66.0939 H   0  0  0  0  0  0
   11.3159   40.4962   67.2395 H   0  0  0  0  0  0
    9.8809   44.0733   65.3866 H   0  0  0  0  0  0
   12.1168   44.3751   64.3199 H   0  0  0  0  0  0
    8.2540   42.2166   66.3129 H   0  0  0  0  0  0
    8.9596   42.8401   67.7852 H   0  0  0  0  0  0
    6.8608   41.0182   68.3402 H   0  0  0  0  0  0
    8.0890   41.5197   69.4610 H   0  0  0  0  0  0
    6.9220   39.3600   70.1376 H   0  0  0  0  0  0
    8.6422   39.2871   70.1396 H   0  0  0  0  0  0
    7.7347   37.2435   69.0899 H   0  0  0  0  0  0
    6.6799   38.1716   68.0436 H   0  0  0  0  0  0
    9.7209   38.1824   67.9722 H   0  0  0  0  0  0
    8.6969   37.4398   66.7869 H   0  0  0  0  0  0
    7.7938   39.7170   66.1737 H   0  0  0  0  0  0
    9.5246   39.6213   66.0071 H   0  0  0  0  0  0
   21.0159   43.0694   65.8289 H   0  0  0  0  0  0
   20.0736   41.5730   65.9402 H   0  0  0  0  0  0
   19.8930   42.6472   64.5463 H   0  0  0  0  0  0
  1  2  2  0  0  0
  1  4  1  0  0  0
  1 25  1  0  0  0
  2  6  1  0  0  0
  2 24  1  0  0  0
  3  5  1  0  0  0
  3  4  2  0  0  0
  4 26  1  0  0  0
  5  6  2  0  0  0
  5  9  1  0  0  0
  6  7  1  0  0  0
  7  8  1  0  0  0
  8  9  2  0  0  0
  8 10  1  0  0  0
 10 11  1  0  0  0
 11 12  2  0  0  0
 11 16  1  0  0  0
 12 13  1  0  0  0
 12 27  1  0  0  0
 13 14  2  0  0  0
 13 28  1  0  0  0
 14 15  1  0  0  0
 14 17  1  0  0  0
 15 16  2  0  0  0
 15 29  1  0  0  0
 16 30  1  0  0  0
 17 18  1  0  0  0
 17 31  1  0  0  0
 17 32  1  0  0  0
 18 19  1  0  0  0
 18 23  1  0  0  0
 19 20  1  0  0  0
 19 33  1  0  0  0
 19 34  1  0  0  0
 20 21  1  0  0  0
 20 35  1  0  0  0
 20 36  1  0  0  0
 21 22  1  0  0  0
 21 37  1  0  0  0
 21 38  1  0  0  0
 22 23  1  0  0  0
 22 39  1  0  0  0
 22 40  1  0  0  0
 23 41  1  0  0  0
 23 42  1  0  0  0
 24 43  1  0  0  0
 24 44  1  0  0  0
 24 45  1  0  0  0
M  END
> <s_m_entry_id>
7071

> <s_m_entry_name>
dock_pv.501

> <s_m_Source_Path>
/home/csk/Desktop/cluster/DUD-E-result/lkha4

> <s_m_Source_File>
dock_pv.maegz

> <i_m_Source_File_Index>
501

> <chembl_id>
CHEMBL2207733

> <chembl_pref_name>
None

> <i_lp_mmshare_version>
53161

> <i_f3d_flags>
0

> <r_lp_tautomer_probability>
1

> <s_lp_Force_Field>
OPLS_2005

> <r_lp_Energy>
28.509263

> <b_lp_Chiralities_Consistent>
1

> <s_lp_Variant>
CHEMBL4618_lig413-1

> <s_i_glide_gridfile>
glide-grid_3chp

> <i_i_glide_lignum>
480

> <i_i_glide_rotatable_bonds>
4

> <r_i_docking_score>
-7.2165504454316

> <r_i_glide_ligand_efficiency>
-0.300689601892983

> <r_i_glide_ligand_efficiency_sa>
-0.867338897333305

> <r_i_glide_ligand_efficiency_ln>
-1.72725166751397

> <r_i_glide_gscore>
-7.2165504454316

> <r_i_glide_lipo>
-3.5775283265753

> <r_i_glide_hbond>
0

> <r_i_glide_metal>
0

> <r_i_glide_rewards>
-1.90290737291955

> <r_i_glide_evdw>
-46.6830101013184

> <r_i_glide_ecoul>
-0.392720401287079

> <r_i_glide_erotb>
0.656943819322224

> <r_i_glide_esite>
0

> <r_i_glide_emodel>
-63.5385450919273

> <r_i_glide_energy>
-47.0757305026054

> <r_i_glide_einternal>
3.79976558685303

> <i_i_glide_confnum>
43

> <i_i_glide_posenum>
359

> <r_i_glide_eff_state_penalty>
0

> <s_user_duplicate_titles>
CHEMBL4618_lig413

> <s_m_subgroup_title>
dock_pv

> <s_m_subgroupid>
dock_pv

> <b_m_subgroup_collapsed>
1

$$$$
CHEMBL4618_lig88
                    3D
 Schrodinger Suite 2021-1.
 47 49  0  0  1  0            999 V2000
    8.8848   42.7632   67.5060 S   0  0  0  0  0  0
   10.3494   42.5052   66.5069 C   0  0  0  0  0  0
    7.8347   41.2305   67.3750 C   0  0  0  0  0  0
    9.3189   42.9559   68.8924 O   0  0  0  0  0  0
    8.1211   43.8179   66.8398 O   0  0  0  0  0  0
   16.9208   42.3506   65.5099 N   0  0  0  0  0  0
   10.6504   43.4554   65.5401 C   0  0  0  0  0  0
   11.2339   41.4552   66.7399 C   0  0  0  0  0  0
   12.7862   42.4200   65.1396 C   0  0  0  0  0  0
    8.2277   40.0081   68.1688 C   0  0  0  0  0  0
   11.8676   43.4237   64.8776 C   0  0  0  0  0  0
   12.4541   41.4158   66.0581 C   0  0  0  0  0  0
   13.9599   42.5231   64.4285 O   0  0  0  0  0  0
   16.2977   42.0902   64.2047 C   0  0  0  0  0  0
   14.9001   41.4599   64.3786 C   0  0  0  0  0  0
   16.2410   43.3925   66.2815 C   0  0  0  0  0  0
   18.2440   42.9496   65.3676 C   0  0  0  0  0  0
    8.2958   40.1255   69.5400 C   0  0  0  0  0  0
    8.3249   38.7521   67.5686 C   0  0  0  0  0  0
   18.5969   43.4630   66.7620 C   0  0  0  0  0  0
   17.2349   43.7921   67.3748 C   0  0  0  0  0  0
    8.4826   39.0111   70.3477 C   0  0  0  0  0  0
    8.4266   37.6244   68.3771 C   0  0  0  0  0  0
    8.5160   37.7548   69.7604 C   0  0  0  0  0  0
    6.8675   41.5602   67.7534 H   0  0  0  0  0  0
    7.7210   41.0178   66.3329 H   0  0  0  0  0  0
    9.9691   44.2679   65.3486 H   0  0  0  0  0  0
   11.0033   40.7069   67.4855 H   0  0  0  0  0  0
   12.1207   44.1928   64.1647 H   0  0  0  0  0  0
   13.1350   40.6159   66.2876 H   0  0  0  0  0  0
   16.2227   43.0142   63.6280 H   0  0  0  0  0  0
   16.9352   41.4374   63.6077 H   0  0  0  0  0  0
   14.6485   40.8127   63.5423 H   0  0  0  0  0  0
   14.9001   40.8292   65.2620 H   0  0  0  0  0  0
   15.3043   43.0161   66.6929 H   0  0  0  0  0  0
   15.9410   44.2350   65.6541 H   0  0  0  0  0  0
   18.2521   43.7505   64.6257 H   0  0  0  0  0  0
   18.9551   42.2157   64.9938 H   0  0  0  0  0  0
    8.1214   41.0927   69.9765 H   0  0  0  0  0  0
    8.2415   38.6378   66.4969 H   0  0  0  0  0  0
   19.2440   44.3385   66.7017 H   0  0  0  0  0  0
   19.1299   42.7028   67.3337 H   0  0  0  0  0  0
   17.0611   43.2278   68.2921 H   0  0  0  0  0  0
   17.1383   44.8500   67.6192 H   0  0  0  0  0  0
    8.5203   39.1174   71.4221 H   0  0  0  0  0  0
    8.4581   36.6392   67.9418 H   0  0  0  0  0  0
    8.6105   36.8733   70.3776 H   0  0  0  0  0  0
  1  2  1  0  0  0
  1  3  1  0  0  0
  1  4  2  0  0  0
  1  5  2  0  0  0
  2  7  1  0  0  0
  2  8  2  0  0  0
  3 10  1  0  0  0
  3 25  1  0  0  0
  3 26  1  0  0  0
  6 14  1  0  0  0
  6 16  1  0  0  0
  6 17  1  0  0  0
  7 11  2  0  0  0
  7 27  1  0  0  0
  8 12  1  0  0  0
  8 28  1  0  0  0
  9 12  2  0  0  0
  9 13  1  0  0  0
  9 11  1  0  0  0
 10 18  2  0  0  0
 10 19  1  0  0  0
 11 29  1  0  0  0
 12 30  1  0  0  0
 13 15  1  0  0  0
 14 15  1  0  0  0
 14 31  1  0  0  0
 14 32  1  0  0  0
 15 33  1  0  0  0
 15 34  1  0  0  0
 16 21  1  0  0  0
 16 35  1  0  0  0
 16 36  1  0  0  0
 17 20  1  0  0  0
 17 37  1  0  0  0
 17 38  1  0  0  0
 18 22  1  0  0  0
 18 39  1  0  0  0
 19 23  2  0  0  0
 19 40  1  0  0  0
 20 21  1  0  0  0
 20 41  1  0  0  0
 20 42  1  0  0  0
 21 43  1  0  0  0
 21 44  1  0  0  0
 22 24  2  0  0  0
 22 45  1  0  0  0
 23 24  1  0  0  0
 23 46  1  0  0  0
 24 47  1  0  0  0
M  END
> <s_m_entry_id>
7072

> <s_m_entry_name>
dock_pv.502

> <s_m_Source_Path>
/home/csk/Desktop/cluster/DUD-E-result/lkha4

> <s_m_Source_File>
dock_pv.maegz

> <i_m_Source_File_Index>
502

> <chembl_id>
CHEMBL162966

> <chembl_pref_name>
None

> <i_lp_mmshare_version>
53161

> <i_f3d_flags>
0

> <r_lp_tautomer_probability>
1

> <s_lp_Force_Field>
OPLS_2005

> <r_lp_Energy>
33.391085

> <b_lp_Chiralities_Consistent>
1

> <s_lp_Variant>
CHEMBL4618_lig88-1

> <s_i_glide_gridfile>
glide-grid_3chp

> <i_i_glide_lignum>
111

> <i_i_glide_rotatable_bonds>
7

> <r_i_docking_score>
-7.19986779073287

> <r_i_glide_ligand_efficiency>
-0.299994491280536

> <r_i_glide_ligand_efficiency_sa>
-0.865333851371194

> <r_i_glide_ligand_efficiency_ln>
-1.72325874272742

> <r_i_glide_gscore>
-7.19986779073287

> <r_i_glide_lipo>
-3.70173503275216

> <r_i_glide_hbond>
-0.32

> <r_i_glide_metal>
0

> <r_i_glide_rewards>
-1.95006955072654

> <r_i_glide_evdw>
-36.1664581298828

> <r_i_glide_ecoul>
-2.18691396713257

> <r_i_glide_erotb>
0.955251990648774

> <r_i_glide_esite>
-0.0469551963389209

> <r_i_glide_emodel>
-42.9019550167769

> <r_i_glide_energy>
-38.3533720970154

> <r_i_glide_einternal>
8.05203628540039

> <i_i_glide_confnum>
19

> <i_i_glide_posenum>
360

> <r_i_glide_eff_state_penalty>
0

> <s_user_duplicate_titles>
CHEMBL4618_lig88

> <s_m_subgroup_title>
dock_pv

> <s_m_subgroupid>
dock_pv

> <b_m_subgroup_collapsed>
1

$$$$
CHEMBL4618_lig187
                    3D
 Schrodinger Suite 2021-1.
 41 42  0  0  1  0            999 V2000
   16.5211   41.4160   63.5679 N   0  0  0  0  0  0
   15.2418   42.0451   63.8417 C   0  0  0  0  0  0
   15.2449   42.9841   65.0635 C   0  0  0  0  0  0
   13.8313   43.5394   65.4118 C   0  0  0  0  0  0
   12.8084   42.4711   65.8328 C   0  0  0  0  0  0
   13.1999   41.3124   65.9400 O   0  0  0  0  0  0
   11.5392   42.8713   66.0980 N   0  0  0  0  0  0
   10.4886   42.0776   66.6254 C   0  0  0  0  0  0
    9.3848   42.7147   67.1977 C   0  0  0  0  0  0
    8.4180   41.9764   67.8893 C   0  0  0  0  0  0
    8.5225   40.5857   67.9877 C   0  0  0  0  0  0
    9.5710   39.9503   67.3229 C   0  0  0  0  0  0
   10.5209   40.6809   66.6385 C   0  0  0  0  0  0
    7.5825   39.9059   68.7400 O   0  0  0  0  0  0
    7.5518   38.4689   68.7179 C   0  0  0  0  0  0
    8.0891   37.8382   69.9978 C   0  0  0  0  0  0
    8.5210   38.5920   71.0927 C   0  0  0  0  0  0
    8.9270   37.9426   72.2586 C   0  0  0  0  0  0
    8.9293   36.5583   72.3352 C   0  0  0  0  0  0
    8.5210   35.8110   71.2428 C   0  0  0  0  0  0
    8.1033   36.4485   70.0805 C   0  0  0  0  0  0
   16.3546   41.0813   62.6121 H   0  0  0  0  0  0
   17.1788   42.1802   63.3906 H   0  0  0  0  0  0
   14.9497   42.6163   62.9601 H   0  0  0  0  0  0
   14.5119   41.2424   63.9403 H   0  0  0  0  0  0
   15.6555   42.4754   65.9324 H   0  0  0  0  0  0
   15.9249   43.8153   64.8767 H   0  0  0  0  0  0
   13.9350   44.2158   66.2565 H   0  0  0  0  0  0
   13.4383   44.1221   64.5776 H   0  0  0  0  0  0
   11.3482   43.8599   66.0353 H   0  0  0  0  0  0
    9.2877   43.7889   67.1407 H   0  0  0  0  0  0
    7.5908   42.4871   68.3627 H   0  0  0  0  0  0
    9.7202   38.8848   67.3404 H   0  0  0  0  0  0
   11.2812   40.1154   66.1290 H   0  0  0  0  0  0
    6.5210   38.1595   68.6204 H   0  0  0  0  0  0
    7.9952   38.0006   67.8418 H   0  0  0  0  0  0
    8.5212   39.6720   71.0549 H   0  0  0  0  0  0
    9.2501   38.5058   73.1169 H   0  0  0  0  0  0
    9.2473   36.0657   73.2426 H   0  0  0  0  0  0
    8.5205   34.7322   71.2971 H   0  0  0  0  0  0
    7.7627   35.8498   69.2482 H   0  0  0  0  0  0
  1  2  1  0  0  0
  1 22  1  0  0  0
  1 23  1  0  0  0
  2  3  1  0  0  0
  2 24  1  0  0  0
  2 25  1  0  0  0
  3  4  1  0  0  0
  3 26  1  0  0  0
  3 27  1  0  0  0
  4  5  1  0  0  0
  4 28  1  0  0  0
  4 29  1  0  0  0
  5  6  2  0  0  0
  5  7  1  0  0  0
  7  8  1  0  0  0
  7 30  1  0  0  0
  8  9  2  0  0  0
  8 13  1  0  0  0
  9 10  1  0  0  0
  9 31  1  0  0  0
 10 11  2  0  0  0
 10 32  1  0  0  0
 11 12  1  0  0  0
 11 14  1  0  0  0
 12 13  2  0  0  0
 12 33  1  0  0  0
 13 34  1  0  0  0
 14 15  1  0  0  0
 15 16  1  0  0  0
 15 35  1  0  0  0
 15 36  1  0  0  0
 16 17  2  0  0  0
 16 21  1  0  0  0
 17 18  1  0  0  0
 17 37  1  0  0  0
 18 19  2  0  0  0
 18 38  1  0  0  0
 19 20  1  0  0  0
 19 39  1  0  0  0
 20 21  2  0  0  0
 20 40  1  0  0  0
 21 41  1  0  0  0
M  END
> <s_m_entry_id>
7073

> <s_m_entry_name>
dock_pv.503

> <s_m_Source_Path>
/home/csk/Desktop/cluster/DUD-E-result/lkha4

> <s_m_Source_File>
dock_pv.maegz

> <i_m_Source_File_Index>
503

> <chembl_id>
CHEMBL478718

> <chembl_pref_name>
None

> <i_lp_mmshare_version>
53161

> <i_f3d_flags>
0

> <r_lp_tautomer_probability>
1

> <s_lp_Force_Field>
OPLS_2005

> <r_lp_Energy>
21.617139

> <b_lp_Chiralities_Consistent>
1

> <s_lp_Variant>
CHEMBL4618_lig187-1

> <s_i_glide_gridfile>
glide-grid_3chp

> <i_i_glide_lignum>
214

> <i_i_glide_rotatable_bonds>
8

> <r_i_docking_score>
-7.19169580262518

> <r_i_glide_ligand_efficiency>
-0.342461704886914

> <r_i_glide_ligand_efficiency_sa>
-0.944825876138354

> <r_i_glide_ligand_efficiency_ln>
-1.77813225500938

> <r_i_glide_gscore>
-7.19169580262518

> <r_i_glide_lipo>
-4.22052614711551

> <r_i_glide_hbond>
-0.210612644291533

> <r_i_glide_metal>
0

> <r_i_glide_rewards>
-2.05912227515257

> <r_i_glide_evdw>
-38.1241645812988

> <r_i_glide_ecoul>
-12.8907470703125

> <r_i_glide_erotb>
3.13838555354625

> <r_i_glide_esite>
0

> <r_i_glide_emodel>
-72.7616435915428

> <r_i_glide_energy>
-51.0149116516113

> <r_i_glide_einternal>
5.81522750854492

> <i_i_glide_confnum>
62

> <i_i_glide_posenum>
172

> <r_i_glide_eff_state_penalty>
0

> <s_user_duplicate_titles>
CHEMBL4618_lig187,507003

> <s_m_subgroup_title>
dock_pv

> <s_m_subgroupid>
dock_pv

> <b_m_subgroup_collapsed>
1

$$$$
CHEMBL4618_lig311
                    3D
 Schrodinger Suite 2021-1.
 64 68  0  0  1  0            999 V2000
    8.8156   37.8206   71.6755 C   0  0  0  0  0  0
    8.5210   36.6027   71.0573 C   0  0  0  0  0  0
    7.9114   36.6160   69.8042 C   0  0  0  0  0  0
    7.5815   37.8058   69.1695 C   0  0  0  0  0  0
    7.9107   39.0152   69.7709 C   0  0  0  0  0  0
    8.5210   39.0104   71.0217 C   0  0  0  0  0  0
    7.6318   40.2105   69.1400 O   0  0  0  0  0  0
    8.5210   40.7035   68.2100 C   0  0  0  0  0  0
    8.6634   42.0859   68.0460 C   0  0  0  0  0  0
    9.6064   42.5954   67.1434 C   0  0  0  0  0  0
   10.4094   41.7267   66.3988 C   0  0  0  0  0  0
   10.1943   40.3554   66.5252 C   0  0  0  0  0  0
    9.2705   39.8462   67.4079 C   0  0  0  0  0  0
   11.4059   42.2366   65.5400 N   0  0  0  0  0  0
   15.3691   42.4942   65.0593 N   0  0  1  0  0  0
   16.5249   43.4161   65.0278 C   0  0  0  0  0  0
   17.6118   43.2281   66.0814 C   0  0  0  0  0  0
   18.8158   42.6220   65.7315 C   0  0  0  0  0  0
   19.8907   42.6163   66.6171 C   0  0  0  0  0  0
   19.7696   43.2257   67.8756 C   0  0  0  0  0  0
   18.5447   43.8027   68.2361 C   0  0  0  0  0  0
   17.4765   43.8073   67.3450 C   0  0  0  0  0  0
   20.9499   43.3502   68.8078 C   0  0  0  0  0  0
   21.9522   42.4513   68.5945 O   0  0  0  0  0  0
   20.9954   44.2108   69.6895 O   0  0  0  0  0  0
   14.5210   42.6160   66.2403 C   0  0  2  0  0  0
   13.5742   41.3777   66.2304 C   0  0  0  0  0  0
   12.5580   41.3902   65.1400 C   0  0  2  0  0  0
   13.3210   41.8256   63.8609 C   0  0  0  0  0  0
   14.3816   42.9212   64.0499 C   0  0  1  0  0  0
   13.8153   43.9328   66.1314 C   0  0  0  0  0  0
   13.6673   44.1659   64.6307 C   0  0  0  0  0  0
   14.8515   43.0498   63.0759 H   0  0  0  0  0  0
   15.1067   42.6450   67.1400 H   0  0  0  0  0  0
    8.8301   35.3686   71.5935 O   0  0  0  0  0  0
    9.5308   35.3019   72.8317 C   0  0  0  0  0  0
    9.2755   37.8657   72.6508 H   0  0  0  0  0  0
    7.7210   35.6899   69.2960 H   0  0  0  0  0  0
    7.1056   37.7928   68.1999 H   0  0  0  0  0  0
    8.7252   39.9384   71.5107 H   0  0  0  0  0  0
    8.0547   42.7617   68.6307 H   0  0  0  0  0  0
    9.7184   43.6638   67.0405 H   0  0  0  0  0  0
   10.7257   39.6285   65.9401 H   0  0  0  0  0  0
    9.1748   38.7742   67.4607 H   0  0  0  0  0  0
   11.6108   43.2193   65.6392 H   0  0  0  0  0  0
   16.2080   44.4526   65.1400 H   0  0  0  0  0  0
   16.9807   43.3598   64.0375 H   0  0  0  0  0  0
   18.9417   42.2160   64.7400 H   0  0  0  0  0  0
   20.8202   42.1814   66.2763 H   0  0  0  0  0  0
   18.4177   44.2795   69.1983 H   0  0  0  0  0  0
   16.5616   44.3048   67.6294 H   0  0  0  0  0  0
   21.7351   41.8164   67.9105 H   0  0  0  0  0  0
   14.1209   40.4459   66.0972 H   0  0  0  0  0  0
   13.0367   41.2871   67.1400 H   0  0  0  0  0  0
   12.2603   40.3559   64.9905 H   0  0  0  0  0  0
   12.6408   42.2420   63.1400 H   0  0  0  0  0  0
   13.7592   40.9333   63.4222 H   0  0  0  0  0  0
   12.8877   43.9533   66.7002 H   0  0  0  0  0  0
   14.5210   44.6160   66.5781 H   0  0  0  0  0  0
   12.6282   44.2551   64.3141 H   0  0  0  0  0  0
   14.1210   45.0999   64.3400 H   0  0  0  0  0  0
    9.7208   34.2586   73.0851 H   0  0  0  0  0  0
   10.4976   35.8037   72.7743 H   0  0  0  0  0  0
    8.9491   35.7403   73.6443 H   0  0  0  0  0  0
  1  6  2  0  0  0
  1  2  1  0  0  0
  1 37  1  0  0  0
  2  3  2  0  0  0
  2 35  1  0  0  0
  3  4  1  0  0  0
  3 38  1  0  0  0
  4  5  2  0  0  0
  4 39  1  0  0  0
  5  7  1  0  0  0
  5  6  1  0  0  0
  6 40  1  0  0  0
  7  8  1  0  0  0
  8 13  1  0  0  0
  8  9  2  0  0  0
  9 10  1  0  0  0
  9 41  1  0  0  0
 10 11  2  0  0  0
 10 42  1  0  0  0
 11 12  1  0  0  0
 11 14  1  0  0  0
 12 13  2  0  0  0
 12 43  1  0  0  0
 13 44  1  0  0  0
 14 28  1  0  0  0
 14 45  1  0  0  0
 15 16  1  0  0  0
 15 26  1  0  0  0
 15 30  1  0  0  0
 16 17  1  0  0  0
 16 46  1  0  0  0
 16 47  1  0  0  0
 17 18  2  0  0  0
 17 22  1  0  0  0
 18 19  1  0  0  0
 18 48  1  0  0  0
 19 20  2  0  0  0
 19 49  1  0  0  0
 20 21  1  0  0  0
 20 23  1  0  0  0
 21 22  2  0  0  0
 21 50  1  0  0  0
 22 51  1  0  0  0
 23 24  1  0  0  0
 23 25  2  0  0  0
 24 52  1  0  0  0
 26 27  1  0  0  0
 26 31  1  0  0  0
 26 34  1  0  0  0
 27 28  1  0  0  0
 27 53  1  0  0  0
 27 54  1  0  0  0
 28 29  1  0  0  0
 28 55  1  0  0  0
 29 30  1  0  0  0
 29 56  1  0  0  0
 29 57  1  0  0  0
 30 32  1  0  0  0
 30 33  1  0  0  0
 31 32  1  0  0  0
 31 58  1  0  0  0
 31 59  1  0  0  0
 32 60  1  0  0  0
 32 61  1  0  0  0
 35 36  1  0  0  0
 36 62  1  0  0  0
 36 63  1  0  0  0
 36 64  1  0  0  0
M  END
> <s_m_entry_id>
7074

> <s_m_entry_name>
dock_pv.504

> <s_m_Source_Path>
/home/csk/Desktop/cluster/DUD-E-result/lkha4

> <s_m_Source_File>
dock_pv.maegz

> <i_m_Source_File_Index>
504

> <chembl_id>
CHEMBL481691

> <chembl_pref_name>
None

> <i_lp_mmshare_version>
53161

> <i_f3d_flags>
0

> <r_lp_tautomer_probability>
1

> <s_lp_Force_Field>
OPLS_2005

> <r_lp_Energy>
66.10188

> <b_lp_Chiralities_Consistent>
1

> <s_lp_Variant>
CHEMBL4618_lig311-1

> <s_i_glide_gridfile>
glide-grid_3chp

> <i_i_glide_lignum>
349

> <i_i_glide_rotatable_bonds>
9

> <r_i_docking_score>
-7.18110429561157

> <r_i_glide_ligand_efficiency>
-0.211208949870929

> <r_i_glide_ligand_efficiency_sa>
-0.684235005732998

> <r_i_glide_ligand_efficiency_ln>
-1.58650736205343

> <r_i_glide_gscore>
-7.18110429561157

> <r_i_glide_lipo>
-4.88932519891841

> <r_i_glide_hbond>
-0.21772831434141

> <r_i_glide_metal>
0

> <r_i_glide_rewards>
-0.275893438483988

> <r_i_glide_evdw>
-23.9103717803955

> <r_i_glide_ecoul>
-8.48161220550537

> <r_i_glide_erotb>
0.669603075977818

> <r_i_glide_esite>
0

> <r_i_glide_emodel>
-31.8169965005886

> <r_i_glide_energy>
-32.3919839859009

> <r_i_glide_einternal>
9.04728889465332

> <i_i_glide_confnum>
5

> <i_i_glide_posenum>
114

> <r_i_glide_eff_state_penalty>
0

> <s_user_duplicate_titles>
CHEMBL4618_lig311

> <s_m_subgroup_title>
dock_pv

> <s_m_subgroupid>
dock_pv

> <b_m_subgroup_collapsed>
1

$$$$
CHEMBL4618_lig314
                    3D
 Schrodinger Suite 2021-1.
 60 64  0  0  1  0            999 V2000
    8.5631   36.6497   71.1436 C   0  0  0  0  0  0
    7.7531   36.6622   70.0132 C   0  0  0  0  0  0
    7.4921   37.8416   69.3345 C   0  0  0  0  0  0
    8.0396   39.0382   69.7743 C   0  0  0  0  0  0
    8.9189   39.0132   70.8518 C   0  0  0  0  0  0
    9.1699   37.8327   71.5548 C   0  0  0  0  0  0
    7.7211   40.2245   69.1425 O   0  0  0  0  0  0
    8.5841   40.7253   68.2034 C   0  0  0  0  0  0
    9.3204   39.8639   67.3979 C   0  0  0  0  0  0
   10.2405   40.3742   66.5164 C   0  0  0  0  0  0
   10.4496   41.7462   66.3950 C   0  0  0  0  0  0
    9.6512   42.6160   67.1398 C   0  0  0  0  0  0
    8.7161   42.1070   68.0457 C   0  0  0  0  0  0
   11.4395   42.2611   65.5400 N   0  0  0  0  0  0
   15.3789   42.5344   65.0416 N   0  0  1  0  0  0
   16.5291   43.4652   65.0279 C   0  0  0  0  0  0
   17.6092   43.2572   66.0837 C   0  0  0  0  0  0
   17.4747   43.8158   67.3576 C   0  0  0  0  0  0
   18.5152   43.7240   68.2781 C   0  0  0  0  0  0
   19.7076   43.0739   67.9358 C   0  0  0  0  0  0
   19.8379   42.5185   66.6547 C   0  0  0  0  0  0
   18.7952   42.6160   65.7374 C   0  0  0  0  0  0
   20.8465   43.0161   68.9240 C   0  0  0  0  0  0
   21.7816   42.0615   68.6609 O   0  0  0  0  0  0
   20.9214   43.7724   69.8939 O   0  0  0  0  0  0
   14.5381   42.6160   66.2323 C   0  0  2  0  0  0
   13.6127   41.3695   66.1987 C   0  0  0  0  0  0
   12.5793   41.4142   65.1306 C   0  0  2  0  0  0
   13.3210   41.8735   63.8455 C   0  0  0  0  0  0
   14.3799   42.9689   64.0449 C   0  0  1  0  0  0
   13.8245   43.9349   66.1481 C   0  0  0  0  0  0
   13.6683   44.2008   64.6484 C   0  0  0  0  0  0
   14.8340   43.1187   63.0682 H   0  0  0  0  0  0
   15.1242   42.6363   67.1345 H   0  0  0  0  0  0
    6.5210   37.8160   67.9258 Cl  0  0  0  0  0  0
    8.7469   35.7244   71.6701 H   0  0  0  0  0  0
    7.3210   35.7644   69.6429 H   0  0  0  0  0  0
    9.3794   39.9293   71.1400 H   0  0  0  0  0  0
    9.8272   37.8340   72.4120 H   0  0  0  0  0  0
    9.2147   38.7916   67.4620 H   0  0  0  0  0  0
   10.7765   39.6454   65.9400 H   0  0  0  0  0  0
    9.7631   43.6842   67.0354 H   0  0  0  0  0  0
    8.1104   42.7788   68.6379 H   0  0  0  0  0  0
   11.6529   43.2406   65.6528 H   0  0  0  0  0  0
   16.2092   44.5006   65.1400 H   0  0  0  0  0  0
   16.9907   43.4155   64.0402 H   0  0  0  0  0  0
   16.5741   44.3416   67.6366 H   0  0  0  0  0  0
   18.3852   44.1655   69.2567 H   0  0  0  0  0  0
   20.7487   42.0218   66.3465 H   0  0  0  0  0  0
   18.9214   42.2190   64.7401 H   0  0  0  0  0  0
   22.4643   42.0528   69.3331 H   0  0  0  0  0  0
   14.1787   40.4782   65.9400 H   0  0  0  0  0  0
   13.1361   41.1907   67.1400 H   0  0  0  0  0  0
   12.2760   40.3853   64.9586 H   0  0  0  0  0  0
   12.6278   42.3014   63.1400 H   0  0  0  0  0  0
   13.7506   40.9909   63.3804 H   0  0  0  0  0  0
   12.9014   43.9386   66.7242 H   0  0  0  0  0  0
   14.5210   44.6160   66.6087 H   0  0  0  0  0  0
   12.6270   44.2932   64.3405 H   0  0  0  0  0  0
   14.1210   45.1314   64.3400 H   0  0  0  0  0  0
  1  6  1  0  0  0
  1  2  2  0  0  0
  1 36  1  0  0  0
  2  3  1  0  0  0
  2 37  1  0  0  0
  3  4  2  0  0  0
  3 35  1  0  0  0
  4  7  1  0  0  0
  4  5  1  0  0  0
  5  6  2  0  0  0
  5 38  1  0  0  0
  6 39  1  0  0  0
  7  8  1  0  0  0
  8 13  1  0  0  0
  8  9  2  0  0  0
  9 10  1  0  0  0
  9 40  1  0  0  0
 10 11  2  0  0  0
 10 41  1  0  0  0
 11 12  1  0  0  0
 11 14  1  0  0  0
 12 13  2  0  0  0
 12 42  1  0  0  0
 13 43  1  0  0  0
 14 28  1  0  0  0
 14 44  1  0  0  0
 15 16  1  0  0  0
 15 26  1  0  0  0
 15 30  1  0  0  0
 16 17  1  0  0  0
 16 45  1  0  0  0
 16 46  1  0  0  0
 17 18  2  0  0  0
 17 22  1  0  0  0
 18 19  1  0  0  0
 18 47  1  0  0  0
 19 20  2  0  0  0
 19 48  1  0  0  0
 20 21  1  0  0  0
 20 23  1  0  0  0
 21 22  2  0  0  0
 21 49  1  0  0  0
 22 50  1  0  0  0
 23 24  1  0  0  0
 23 25  2  0  0  0
 24 51  1  0  0  0
 26 27  1  0  0  0
 26 31  1  0  0  0
 26 34  1  0  0  0
 27 28  1  0  0  0
 27 52  1  0  0  0
 27 53  1  0  0  0
 28 29  1  0  0  0
 28 54  1  0  0  0
 29 30  1  0  0  0
 29 55  1  0  0  0
 29 56  1  0  0  0
 30 32  1  0  0  0
 30 33  1  0  0  0
 31 32  1  0  0  0
 31 57  1  0  0  0
 31 58  1  0  0  0
 32 59  1  0  0  0
 32 60  1  0  0  0
M  END
> <s_m_entry_id>
7075

> <s_m_entry_name>
dock_pv.505

> <s_m_Source_Path>
/home/csk/Desktop/cluster/DUD-E-result/lkha4

> <s_m_Source_File>
dock_pv.maegz

> <i_m_Source_File_Index>
505

> <chembl_id>
CHEMBL520746

> <chembl_pref_name>
None

> <i_lp_mmshare_version>
53161

> <i_f3d_flags>
0

> <r_lp_tautomer_probability>
1

> <s_lp_Force_Field>
OPLS_2005

> <r_lp_Energy>
63.377988

> <b_lp_Chiralities_Consistent>
1

> <s_lp_Variant>
CHEMBL4618_lig314-1

> <s_i_glide_gridfile>
glide-grid_3chp

> <i_i_glide_lignum>
352

> <i_i_glide_rotatable_bonds>
8

> <r_i_docking_score>
-7.15415282550154

> <r_i_glide_ligand_efficiency>
-0.216792509863683

> <r_i_glide_ligand_efficiency_sa>
-0.695369417063268

> <r_i_glide_ligand_efficiency_ln>
-1.59104654617067

> <r_i_glide_gscore>
-7.15415282550154

> <r_i_glide_lipo>
-4.85922813805529

> <r_i_glide_hbond>
-0.0904862322049911

> <r_i_glide_metal>
0

> <r_i_glide_rewards>
-0.805061261052666

> <r_i_glide_evdw>
-20.4058303833008

> <r_i_glide_ecoul>
-6.91394758224487

> <r_i_glide_erotb>
0.658006462313177

> <r_i_glide_esite>
0

> <r_i_glide_emodel>
-31.3112319465375

> <r_i_glide_energy>
-27.3197779655457

> <r_i_glide_einternal>
7.2661280632019

> <i_i_glide_confnum>
5

> <i_i_glide_posenum>
304

> <r_i_glide_eff_state_penalty>
0

> <s_user_duplicate_titles>
CHEMBL4618_lig314

> <s_m_subgroup_title>
dock_pv

> <s_m_subgroupid>
dock_pv

> <b_m_subgroup_collapsed>
1

$$$$
CHEMBL4618_lig351
                    3D
 Schrodinger Suite 2021-1.
 42 44  0  0  1  0            999 V2000
   13.3246   43.3861   64.0158 C   0  0  0  0  0  0
   14.2612   43.2091   65.0239 C   0  0  0  0  0  0
   13.8465   43.0675   66.3403 C   0  0  0  0  0  0
   12.4883   43.0627   66.6461 C   0  0  0  0  0  0
   11.5430   43.2399   65.6395 C   0  0  0  0  0  0
   11.9714   43.4160   64.3349 C   0  0  0  0  0  0
   10.1914   43.2964   65.9013 O   0  0  0  0  0  0
    9.6011   42.3616   66.7234 C   0  0  0  0  0  0
    8.5203   42.7491   67.5132 C   0  0  0  0  0  0
    7.8838   41.8200   68.3309 C   0  0  0  0  0  0
    8.2960   40.4889   68.3400 C   0  0  0  0  0  0
    9.3666   40.0988   67.5283 C   0  0  0  0  0  0
   10.0217   41.0299   66.7399 C   0  0  0  0  0  0
    7.5907   39.6450   69.1661 O   0  0  0  0  0  0
    7.7900   38.2323   69.1361 C   0  0  0  0  0  0
    8.0173   37.7236   70.5674 C   0  0  1  0  0  0
    8.0741   36.1925   70.5594 C   0  0  0  0  0  0
    8.2204   35.6152   71.9751 C   0  0  0  0  0  0
    9.4450   36.2431   72.6568 C   0  0  0  0  0  0
    9.4401   37.7810   72.5381 C   0  0  0  0  0  0
    9.2626   38.2242   71.1519 N   0  0  2  0  0  0
   13.6584   43.5102   62.9974 H   0  0  0  0  0  0
   15.3129   43.2232   64.7760 H   0  0  0  0  0  0
   14.5792   43.0163   67.1274 H   0  0  0  0  0  0
   12.1514   43.0153   67.6662 H   0  0  0  0  0  0
   11.2418   43.5495   63.5537 H   0  0  0  0  0  0
    8.1689   43.7711   67.4929 H   0  0  0  0  0  0
    7.0491   42.1329   68.9428 H   0  0  0  0  0  0
    9.7292   39.0893   67.4764 H   0  0  0  0  0  0
   10.8380   40.7017   66.1143 H   0  0  0  0  0  0
    8.5802   37.8510   68.4971 H   0  0  0  0  0  0
    6.8759   37.8013   68.7279 H   0  0  0  0  0  0
    7.1826   38.0785   71.1751 H   0  0  0  0  0  0
    8.9207   35.8680   69.9618 H   0  0  0  0  0  0
    7.2139   35.8166   70.0150 H   0  0  0  0  0  0
    8.3169   34.5299   71.9353 H   0  0  0  0  0  0
    7.3311   35.8324   72.5702 H   0  0  0  0  0  0
   10.3736   35.8404   72.2518 H   0  0  0  0  0  0
    9.4576   35.9617   73.7104 H   0  0  0  0  0  0
   10.3771   38.1845   72.9245 H   0  0  0  0  0  0
    8.6318   38.1959   73.1401 H   0  0  0  0  0  0
    9.2021   39.2333   71.1282 H   0  0  0  0  0  0
  1  6  1  0  0  0
  1  2  2  0  0  0
  1 22  1  0  0  0
  2  3  1  0  0  0
  2 23  1  0  0  0
  3  4  2  0  0  0
  3 24  1  0  0  0
  4  5  1  0  0  0
  4 25  1  0  0  0
  5  6  2  0  0  0
  5  7  1  0  0  0
  6 26  1  0  0  0
  7  8  1  0  0  0
  8 13  1  0  0  0
  8  9  2  0  0  0
  9 10  1  0  0  0
  9 27  1  0  0  0
 10 11  2  0  0  0
 10 28  1  0  0  0
 11 12  1  0  0  0
 11 14  1  0  0  0
 12 13  2  0  0  0
 12 29  1  0  0  0
 13 30  1  0  0  0
 14 15  1  0  0  0
 15 16  1  0  0  0
 15 31  1  0  0  0
 15 32  1  0  0  0
 16 17  1  0  0  0
 16 21  1  0  0  0
 16 33  1  0  0  0
 17 18  1  0  0  0
 17 34  1  0  0  0
 17 35  1  0  0  0
 18 19  1  0  0  0
 18 36  1  0  0  0
 18 37  1  0  0  0
 19 20  1  0  0  0
 19 38  1  0  0  0
 19 39  1  0  0  0
 20 21  1  0  0  0
 20 40  1  0  0  0
 20 41  1  0  0  0
 21 42  1  0  0  0
M  END
> <s_m_entry_id>
7076

> <s_m_entry_name>
dock_pv.506

> <s_m_Source_Path>
/home/csk/Desktop/cluster/DUD-E-result/lkha4

> <s_m_Source_File>
dock_pv.maegz

> <i_m_Source_File_Index>
506

> <chembl_id>
CHEMBL1097151

> <chembl_pref_name>
None

> <i_lp_mmshare_version>
53161

> <i_f3d_flags>
0

> <r_lp_tautomer_probability>
1

> <s_lp_Force_Field>
OPLS_2005

> <r_lp_Energy>
26.925017

> <b_lp_Chiralities_Consistent>
1

> <s_lp_Variant>
CHEMBL4618_lig351-2

> <s_i_glide_gridfile>
glide-grid_3chp

> <i_i_glide_lignum>
397

> <i_i_glide_rotatable_bonds>
5

> <r_i_docking_score>
-7.1109910422003

> <r_i_glide_ligand_efficiency>
-0.338618621057157

> <r_i_glide_ligand_efficiency_sa>
-0.93422309925934

> <r_i_glide_ligand_efficiency_ln>
-1.75817816607365

> <r_i_glide_gscore>
-7.1109910422003

> <r_i_glide_lipo>
-4.38266433558826

> <r_i_glide_hbond>
0

> <r_i_glide_metal>
0

> <r_i_glide_rewards>
-1.92610743206584

> <r_i_glide_evdw>
-37.5452346801758

> <r_i_glide_ecoul>
-0.350777924060822

> <r_i_glide_erotb>
1.12765914807172

> <r_i_glide_esite>
0

> <r_i_glide_emodel>
-51.5972525857875

> <r_i_glide_energy>
-37.8960126042366

> <r_i_glide_einternal>
1.75420701503754

> <i_i_glide_confnum>
24

> <i_i_glide_posenum>
131

> <r_i_glide_eff_state_penalty>
0

> <s_user_duplicate_titles>
CHEMBL4618_lig351,CHEMBL4618_lig353,627411

> <s_m_subgroup_title>
dock_pv

> <s_m_subgroupid>
dock_pv

> <b_m_subgroup_collapsed>
1

$$$$
CHEMBL4618_lig249
                    3D
 Schrodinger Suite 2021-1.
 67 69  0  0  1  0            999 V2000
    8.1176   39.6444   68.6049 C   0  0  0  0  0  0
    8.0034   41.0231   68.7967 C   0  0  0  0  0  0
    8.7694   41.9017   68.0340 C   0  0  0  0  0  0
    9.6507   41.3937   67.0777 C   0  0  0  0  0  0
    9.6843   40.0161   66.8274 C   0  0  0  0  0  0
    8.9212   39.1442   67.5907 C   0  0  0  0  0  0
   10.4632   42.3009   66.3771 N   0  0  0  0  0  0
   11.7200   42.0629   65.9448 C   0  0  0  0  0  0
   12.3601   43.1784   65.1003 C   0  0  0  0  0  0
   12.3311   41.0170   66.1802 O   0  0  0  0  0  0
   13.7341   42.8212   64.7405 N   0  0  1  0  0  0
    7.3700   38.7787   69.3634 O   0  0  0  0  0  0
    8.0106   38.0037   70.3019 C   0  0  0  0  0  0
    8.7050   38.5868   71.3619 C   0  0  0  0  0  0
    9.3146   37.7832   72.3259 C   0  0  0  0  0  0
    9.2157   36.4020   72.2411 C   0  0  0  0  0  0
    8.5215   35.8163   71.1929 C   0  0  0  0  0  0
    7.9202   36.6162   70.2225 C   0  0  0  0  0  0
   13.9576   42.8861   63.2996 C   0  0  0  0  0  0
   14.7263   43.5898   65.4876 C   0  0  0  0  0  0
   16.1710   43.0739   65.3345 C   0  0  0  0  0  0
   17.1433   43.8132   66.2630 C   0  0  0  0  0  0
   18.4081   43.1108   66.5132 N   0  0  2  0  0  0
   19.2833   43.9032   67.3872 C   0  0  0  0  0  0
   19.1344   42.8528   65.2693 C   0  0  0  0  0  0
   18.7157   44.1163   68.7862 C   0  0  0  0  0  0
   19.0060   43.2017   69.7992 C   0  0  0  0  0  0
   18.4714   43.3831   71.0708 C   0  0  0  0  0  0
   17.6281   44.4681   71.3178 C   0  0  0  0  0  0
   17.3270   45.3823   70.3070 C   0  0  0  0  0  0
   17.8916   45.2165   69.0471 C   0  0  0  0  0  0
   16.9185   44.6621   72.9405 S   0  0  0  0  0  0
   15.9363   43.2470   73.1400 N   0  0  0  0  0  0
   18.0208   44.5717   73.9022 O   0  0  0  0  0  0
   16.0201   45.8184   72.9083 O   0  0  0  0  0  0
    7.3256   41.4124   69.5399 H   0  0  0  0  0  0
    8.6923   42.9661   68.2083 H   0  0  0  0  0  0
   10.3127   39.6035   66.0484 H   0  0  0  0  0  0
    8.9686   38.0801   67.4069 H   0  0  0  0  0  0
   10.0790   43.2213   66.2336 H   0  0  0  0  0  0
   11.7219   43.3309   64.2279 H   0  0  0  0  0  0
   12.3000   44.1176   65.6540 H   0  0  0  0  0  0
    8.7461   39.6623   71.4367 H   0  0  0  0  0  0
    9.8582   38.2160   73.1480 H   0  0  0  0  0  0
    9.6835   35.7776   72.9889 H   0  0  0  0  0  0
    8.4559   34.7388   71.1400 H   0  0  0  0  0  0
    7.3773   36.1590   69.4132 H   0  0  0  0  0  0
   14.9785   42.6198   63.0236 H   0  0  0  0  0  0
   13.3210   42.1670   62.7894 H   0  0  0  0  0  0
   13.7207   43.8790   62.9141 H   0  0  0  0  0  0
   14.6765   44.6160   65.1402 H   0  0  0  0  0  0
   14.4621   43.6358   66.5455 H   0  0  0  0  0  0
   16.2676   41.9893   65.3335 H   0  0  0  0  0  0
   16.4995   43.3796   64.3400 H   0  0  0  0  0  0
   17.3551   44.7977   65.8423 H   0  0  0  0  0  0
   16.6212   43.9983   67.2010 H   0  0  0  0  0  0
   20.2476   43.4009   67.4912 H   0  0  0  0  0  0
   19.5007   44.8716   66.9320 H   0  0  0  0  0  0
   20.0728   42.3325   65.4651 H   0  0  0  0  0  0
   18.5561   42.2176   64.5985 H   0  0  0  0  0  0
   19.3668   43.7780   64.7401 H   0  0  0  0  0  0
   19.6373   42.3461   69.5994 H   0  0  0  0  0  0
   18.7029   42.6734   71.8552 H   0  0  0  0  0  0
   16.6618   46.2165   70.4883 H   0  0  0  0  0  0
   17.6510   45.9175   68.2615 H   0  0  0  0  0  0
   15.1736   43.1909   72.4609 H   0  0  0  0  0  0
   16.4718   42.3772   73.1786 H   0  0  0  0  0  0
  1 12  1  0  0  0
  1  6  1  0  0  0
  1  2  2  0  0  0
  2  3  1  0  0  0
  2 36  1  0  0  0
  3  4  2  0  0  0
  3 37  1  0  0  0
  4  5  1  0  0  0
  4  7  1  0  0  0
  5  6  2  0  0  0
  5 38  1  0  0  0
  6 39  1  0  0  0
  7  8  1  0  0  0
  7 40  1  0  0  0
  8  9  1  0  0  0
  8 10  2  0  0  0
  9 11  1  0  0  0
  9 41  1  0  0  0
  9 42  1  0  0  0
 11 19  1  0  0  0
 11 20  1  0  0  0
 12 13  1  0  0  0
 13 18  1  0  0  0
 13 14  2  0  0  0
 14 15  1  0  0  0
 14 43  1  0  0  0
 15 16  2  0  0  0
 15 44  1  0  0  0
 16 17  1  0  0  0
 16 45  1  0  0  0
 17 18  2  0  0  0
 17 46  1  0  0  0
 18 47  1  0  0  0
 19 48  1  0  0  0
 19 49  1  0  0  0
 19 50  1  0  0  0
 20 21  1  0  0  0
 20 51  1  0  0  0
 20 52  1  0  0  0
 21 22  1  0  0  0
 21 53  1  0  0  0
 21 54  1  0  0  0
 22 23  1  0  0  0
 22 55  1  0  0  0
 22 56  1  0  0  0
 23 24  1  0  0  0
 23 25  1  0  0  0
 24 26  1  0  0  0
 24 57  1  0  0  0
 24 58  1  0  0  0
 25 59  1  0  0  0
 25 60  1  0  0  0
 25 61  1  0  0  0
 26 27  2  0  0  0
 26 31  1  0  0  0
 27 28  1  0  0  0
 27 62  1  0  0  0
 28 29  2  0  0  0
 28 63  1  0  0  0
 29 30  1  0  0  0
 29 32  1  0  0  0
 30 31  2  0  0  0
 30 64  1  0  0  0
 31 65  1  0  0  0
 32 33  1  0  0  0
 32 34  2  0  0  0
 32 35  2  0  0  0
 33 66  1  0  0  0
 33 67  1  0  0  0
M  END
> <s_m_entry_id>
7078

> <s_m_entry_name>
dock_pv.508

> <s_m_Source_Path>
/home/csk/Desktop/cluster/DUD-E-result/lkha4

> <s_m_Source_File>
dock_pv.maegz

> <i_m_Source_File_Index>
508

> <chembl_id>
CHEMBL479562

> <chembl_pref_name>
None

> <i_lp_mmshare_version>
53161

> <i_f3d_flags>
0

> <r_lp_tautomer_probability>
1

> <s_lp_Force_Field>
OPLS_2005

> <r_lp_Energy>
46.992062

> <b_lp_Chiralities_Consistent>
1

> <s_lp_Variant>
CHEMBL4618_lig249-1

> <s_i_glide_gridfile>
glide-grid_3chp

> <i_i_glide_lignum>
286

> <i_i_glide_rotatable_bonds>
13

> <r_i_docking_score>
-7.02954788402603

> <r_i_glide_ligand_efficiency>
-0.200844225257887

> <r_i_glide_ligand_efficiency_sa>
-0.65697477805841

> <r_i_glide_ligand_efficiency_ln>
-1.54314177295327

> <r_i_glide_gscore>
-7.02954788402603

> <r_i_glide_lipo>
-4.28764584552206

> <r_i_glide_hbond>
0

> <r_i_glide_metal>
0

> <r_i_glide_rewards>
0.158310719223838

> <r_i_glide_evdw>
-63.9275436401367

> <r_i_glide_ecoul>
-4.64056921005249

> <r_i_glide_erotb>
0.992249805786904

> <r_i_glide_esite>
0

> <r_i_glide_emodel>
-88.7354196278656

> <r_i_glide_energy>
-68.5681128501892

> <r_i_glide_einternal>
11.3294677734375

> <i_i_glide_confnum>
59

> <i_i_glide_posenum>
149

> <r_i_glide_eff_state_penalty>
0

> <s_user_duplicate_titles>
CHEMBL4618_lig249,466725

> <s_m_subgroup_title>
dock_pv

> <s_m_subgroupid>
dock_pv

> <b_m_subgroup_collapsed>
1

$$$$
CHEMBL4618_lig202
                    3D
 Schrodinger Suite 2021-1.
 39 40  0  0  1  0            999 V2000
    8.4927   39.9151   68.6022 C   0  0  0  0  0  0
    8.0601   41.2408   68.7483 C   0  0  0  0  0  0
    8.5221   42.2228   67.8637 C   0  0  0  0  0  0
    9.4364   41.8682   66.8695 C   0  0  0  0  0  0
    9.8238   40.5365   66.7199 C   0  0  0  0  0  0
    9.3211   39.5602   67.5516 C   0  0  0  0  0  0
    9.9965   42.8184   66.0033 N   0  0  0  0  0  0
   11.3305   43.0144   65.9391 C   0  0  0  0  0  0
   12.1022   42.6186   66.8088 O   0  0  0  0  0  0
   11.9239   43.6923   64.7034 C   0  0  0  0  0  0
   13.4776   43.6092   64.6011 C   0  0  0  0  0  0
   14.1571   42.2224   64.2970 C   0  0  1  0  0  0
   15.6510   42.0917   64.7505 C   0  0  0  0  0  0
   13.4306   41.0562   64.8457 N   0  0  0  0  0  0
   16.4409   43.1550   64.7401 N   0  0  0  0  0  0
   16.1193   41.0163   65.1371 O   0  0  0  0  0  0
    8.1946   38.8929   69.5124 N   0  0  0  0  0  0
    8.5162   38.8605   70.8495 C   0  0  0  0  0  0
    8.2016   37.6167   71.3747 C   0  0  0  0  0  0
    7.7215   36.8471   70.3157 C   0  0  0  0  0  0
    7.7202   37.6441   69.1889 C   0  0  0  0  0  0
    7.3807   41.5191   69.5378 H   0  0  0  0  0  0
    8.1997   43.2485   67.9770 H   0  0  0  0  0  0
   10.5174   40.2496   65.9408 H   0  0  0  0  0  0
    9.6626   38.5415   67.4274 H   0  0  0  0  0  0
    9.3722   43.3031   65.3769 H   0  0  0  0  0  0
   11.6511   44.7377   64.7804 H   0  0  0  0  0  0
   11.4552   43.3363   63.7888 H   0  0  0  0  0  0
   13.9072   44.0595   65.4988 H   0  0  0  0  0  0
   13.7224   44.3015   63.8023 H   0  0  0  0  0  0
   14.1681   42.1252   63.2126 H   0  0  0  0  0  0
   14.0382   40.2571   65.0081 H   0  0  0  0  0  0
   12.9952   41.2992   65.7317 H   0  0  0  0  0  0
   17.4179   43.0664   64.9750 H   0  0  0  0  0  0
   16.1252   43.9833   64.2371 H   0  0  0  0  0  0
    8.9226   39.7382   71.3207 H   0  0  0  0  0  0
    8.3252   37.2960   72.4002 H   0  0  0  0  0  0
    7.4075   35.8159   70.3408 H   0  0  0  0  0  0
    7.4409   37.4235   68.1688 H   0  0  0  0  0  0
  1  6  1  0  0  0
  1  2  2  0  0  0
  1 17  1  0  0  0
  2  3  1  0  0  0
  2 22  1  0  0  0
  3  4  2  0  0  0
  3 23  1  0  0  0
  4  7  1  0  0  0
  4  5  1  0  0  0
  5  6  2  0  0  0
  5 24  1  0  0  0
  6 25  1  0  0  0
  7  8  1  0  0  0
  7 26  1  0  0  0
  8  9  2  0  0  0
  8 10  1  0  0  0
 10 11  1  0  0  0
 10 27  1  0  0  0
 10 28  1  0  0  0
 11 12  1  0  0  0
 11 29  1  0  0  0
 11 30  1  0  0  0
 12 13  1  0  0  0
 12 14  1  0  0  0
 12 31  1  0  0  0
 13 15  1  0  0  0
 13 16  2  0  0  0
 14 32  1  0  0  0
 14 33  1  0  0  0
 15 34  1  0  0  0
 15 35  1  0  0  0
 17 18  1  0  0  0
 17 21  1  0  0  0
 18 19  2  0  0  0
 18 36  1  0  0  0
 19 20  1  0  0  0
 19 37  1  0  0  0
 20 21  2  0  0  0
 20 38  1  0  0  0
 21 39  1  0  0  0
M  END
> <s_m_entry_id>
7080

> <s_m_entry_name>
dock_pv.510

> <s_m_Source_Path>
/home/csk/Desktop/cluster/DUD-E-result/lkha4

> <s_m_Source_File>
dock_pv.maegz

> <i_m_Source_File_Index>
510

> <chembl_id>
CHEMBL478549

> <chembl_pref_name>
None

> <i_lp_mmshare_version>
53161

> <i_f3d_flags>
0

> <r_lp_tautomer_probability>
1

> <s_lp_Force_Field>
OPLS_2005

> <r_lp_Energy>
12.613211

> <b_lp_Chiralities_Consistent>
1

> <s_lp_Variant>
CHEMBL4618_lig202-1

> <s_i_glide_gridfile>
glide-grid_3chp

> <i_i_glide_lignum>
230

> <i_i_glide_rotatable_bonds>
7

> <r_i_docking_score>
-7.01677871331557

> <r_i_glide_ligand_efficiency>
-0.334132319681694

> <r_i_glide_ligand_efficiency_sa>
-0.921845733944603

> <r_i_glide_ligand_efficiency_ln>
-1.73488435813084

> <r_i_glide_gscore>
-7.01677871331557

> <r_i_glide_lipo>
-3.72859153362598

> <r_i_glide_hbond>
-0.688477513024599

> <r_i_glide_metal>
0

> <r_i_glide_rewards>
-0.574583277005338

> <r_i_glide_evdw>
-36.8211898803711

> <r_i_glide_ecoul>
-17.6125411987305

> <r_i_glide_erotb>
2.65781428416848

> <r_i_glide_esite>
-0.2

> <r_i_glide_emodel>
-68.3387411414042

> <r_i_glide_energy>
-54.4337310791016

> <r_i_glide_einternal>
16.7924861907959

> <i_i_glide_confnum>
74

> <i_i_glide_posenum>
92

> <r_i_glide_eff_state_penalty>
0

> <s_user_duplicate_titles>
CHEMBL4618_lig202

> <s_m_subgroup_title>
dock_pv

> <s_m_subgroupid>
dock_pv

> <b_m_subgroup_collapsed>
1

$$$$
CHEMBL4618_lig425
                    3D
 Schrodinger Suite 2021-1.
 55 58  0  0  1  0            999 V2000
   17.7964   45.0153   66.8364 C   0  0  0  0  0  0
   16.4328   44.3477   67.1043 C   0  0  0  0  0  0
   18.9035   44.0940   67.0097 N   0  0  0  0  0  0
   15.8735   42.1948   64.1005 N   0  0  0  0  0  0
   16.6273   43.0213   64.8762 C   0  0  0  0  0  0
   15.9069   43.4610   65.9803 C   0  0  0  0  0  0
   14.5801   42.8669   65.8416 C   0  0  0  0  0  0
   13.3461   42.8933   66.5570 C   0  0  0  0  0  0
   12.3747   41.8934   66.3401 C   0  0  0  0  0  0
   12.6731   40.9225   65.3855 C   0  0  0  0  0  0
   13.7210   41.0161   64.4800 C   0  0  0  0  0  0
   14.6862   41.9625   64.7442 C   0  0  0  0  0  0
   11.1883   41.8484   67.0992 O   0  0  0  0  0  0
   10.2844   40.7210   66.9045 C   0  0  0  0  0  0
    8.8823   40.6292   67.5798 C   0  0  0  0  0  0
    8.9208   40.4569   68.9935 O   0  0  0  0  0  0
    8.7248   39.2339   69.6204 C   0  0  0  0  0  0
    9.4949   39.0161   70.7519 C   0  0  0  0  0  0
    9.2559   38.0339   71.6621 C   0  0  0  0  0  0
    8.2042   37.1821   71.4688 C   0  0  0  0  0  0
    7.4453   37.2844   70.2855 C   0  0  0  0  0  0
    7.7197   38.3013   69.3481 C   0  0  0  0  0  0
    7.9959   36.2961   72.5005 O   0  0  0  0  0  0
    9.0291   35.4160   72.7413 C   0  0  0  0  0  0
    9.8458   35.3758   73.8932 C   0  0  0  0  0  0
   10.8296   34.3920   74.0116 C   0  0  0  0  0  0
   10.9212   33.3939   73.0615 C   0  0  0  0  0  0
   10.1199   33.4018   71.9400 C   0  0  0  0  0  0
    9.1887   34.4200   71.7977 C   0  0  0  0  0  0
    9.6390   36.2179   75.0624 N   0  3  0  0  0  0
    8.5210   36.2161   75.5599 O   0  0  0  0  0  0
   10.6299   36.7605   75.5439 O   0  5  0  0  0  0
   17.9419   45.8388   67.5359 H   0  0  0  0  0  0
   17.8321   45.4278   65.8295 H   0  0  0  0  0  0
   16.5217   43.7824   68.0300 H   0  0  0  0  0  0
   15.7210   45.1398   67.3098 H   0  0  0  0  0  0
   18.8106   43.6002   67.8867 H   0  0  0  0  0  0
   18.8832   43.3912   66.2834 H   0  0  0  0  0  0
   16.1717   41.8560   63.1910 H   0  0  0  0  0  0
   17.6187   43.2865   64.5312 H   0  0  0  0  0  0
   13.1975   43.5946   67.3617 H   0  0  0  0  0  0
   12.0152   40.0866   65.2136 H   0  0  0  0  0  0
   13.8313   40.3002   63.6766 H   0  0  0  0  0  0
   10.0760   40.6497   65.8459 H   0  0  0  0  0  0
   10.8190   39.8232   67.1848 H   0  0  0  0  0  0
    8.3408   41.5549   67.3839 H   0  0  0  0  0  0
    8.3008   39.8382   67.1043 H   0  0  0  0  0  0
   10.2089   39.7081   71.1399 H   0  0  0  0  0  0
    9.8415   37.9898   72.5689 H   0  0  0  0  0  0
    6.6243   36.6162   70.0946 H   0  0  0  0  0  0
    7.0830   38.4192   68.4849 H   0  0  0  0  0  0
   11.4561   34.3380   74.8923 H   0  0  0  0  0  0
   11.6552   32.6161   73.1816 H   0  0  0  0  0  0
   10.2026   32.6204   71.1994 H   0  0  0  0  0  0
    8.5239   34.4431   70.9547 H   0  0  0  0  0  0
  1  2  1  0  0  0
  1  3  1  0  0  0
  1 33  1  0  0  0
  1 34  1  0  0  0
  2  6  1  0  0  0
  2 35  1  0  0  0
  2 36  1  0  0  0
  3 37  1  0  0  0
  3 38  1  0  0  0
  4  5  1  0  0  0
  4 12  1  0  0  0
  4 39  1  0  0  0
  5  6  2  0  0  0
  5 40  1  0  0  0
  6  7  1  0  0  0
  7  8  1  0  0  0
  7 12  2  0  0  0
  8  9  2  0  0  0
  8 41  1  0  0  0
  9 10  1  0  0  0
  9 13  1  0  0  0
 10 11  2  0  0  0
 10 42  1  0  0  0
 11 12  1  0  0  0
 11 43  1  0  0  0
 13 14  1  0  0  0
 14 15  1  0  0  0
 14 44  1  0  0  0
 14 45  1  0  0  0
 15 16  1  0  0  0
 15 46  1  0  0  0
 15 47  1  0  0  0
 16 17  1  0  0  0
 17 18  1  0  0  0
 17 22  2  0  0  0
 18 19  2  0  0  0
 18 48  1  0  0  0
 19 20  1  0  0  0
 19 49  1  0  0  0
 20 21  2  0  0  0
 20 23  1  0  0  0
 21 22  1  0  0  0
 21 50  1  0  0  0
 22 51  1  0  0  0
 23 24  1  0  0  0
 24 25  1  0  0  0
 24 29  2  0  0  0
 25 26  2  0  0  0
 25 30  1  0  0  0
 26 27  1  0  0  0
 26 52  1  0  0  0
 27 28  2  0  0  0
 27 53  1  0  0  0
 28 29  1  0  0  0
 28 54  1  0  0  0
 29 55  1  0  0  0
 30 31  2  0  0  0
 30 32  1  0  0  0
M  CHG  2  30   1  32  -1
M  END
> <s_m_entry_id>
7081

> <s_m_entry_name>
dock_pv.511

> <s_m_Source_Path>
/home/csk/Desktop/cluster/DUD-E-result/lkha4

> <s_m_Source_File>
dock_pv.maegz

> <i_m_Source_File_Index>
511

> <chembl_id>
CHEMBL2316061

> <chembl_pref_name>
None

> <i_lp_mmshare_version>
53161

> <i_f3d_flags>
0

> <r_lp_tautomer_probability>
1

> <s_lp_Force_Field>
OPLS_2005

> <r_lp_Energy>
29.864256

> <b_lp_Chiralities_Consistent>
1

> <s_lp_Variant>
CHEMBL4618_lig425-1

> <s_i_glide_gridfile>
glide-grid_3chp

> <i_i_glide_lignum>
492

> <i_i_glide_rotatable_bonds>
10

> <r_i_docking_score>
-7.00557008827326

> <r_i_glide_ligand_efficiency>
-0.218924065258539

> <r_i_glide_ligand_efficiency_sa>
-0.695040582182178

> <r_i_glide_ligand_efficiency_ln>
-1.56873810739261

> <r_i_glide_gscore>
-7.00557008827326

> <r_i_glide_lipo>
-5.12460121634648

> <r_i_glide_hbond>
0

> <r_i_glide_metal>
0

> <r_i_glide_rewards>
-0.63005703420471

> <r_i_glide_evdw>
-24.9306526184082

> <r_i_glide_ecoul>
-4.90755271911621

> <r_i_glide_erotb>
0.847640119218636

> <r_i_glide_esite>
-0.115886418152857

> <r_i_glide_emodel>
-39.9603667605995

> <r_i_glide_energy>
-29.8382053375244

> <r_i_glide_einternal>
16.8905925750732

> <i_i_glide_confnum>
17

> <i_i_glide_posenum>
159

> <r_i_glide_eff_state_penalty>
0

> <s_user_duplicate_titles>
CHEMBL4618_lig425

> <s_m_subgroup_title>
dock_pv

> <s_m_subgroupid>
dock_pv

> <b_m_subgroup_collapsed>
1

$$$$
CHEMBL4618_lig461
                    3D
 Schrodinger Suite 2021-1.
 60 60  0  0  1  0            999 V2000
    9.0662   42.5373   67.1581 C   0  0  0  0  0  0
    9.0612   41.1589   67.4096 C   0  0  0  0  0  0
   10.1234   40.4062   66.9205 C   0  0  0  0  0  0
   11.1955   41.0159   66.2672 C   0  0  0  0  0  0
   11.1476   42.3670   65.9399 C   0  0  0  0  0  0
   10.0640   43.1200   66.3778 C   0  0  0  0  0  0
    8.1210   43.3603   67.6926 O   0  0  0  0  0  0
    8.1735   43.4152   69.1128 C   0  0  0  0  0  0
    8.0181   40.6155   68.1387 O   0  0  0  0  0  0
   12.2116   42.9838   65.0439 C   0  0  0  0  0  0
   13.4162   43.5794   65.8024 C   0  0  0  0  0  0
   14.7689   42.9140   65.5400 C   0  0  0  0  0  0
   16.0175   43.7574   65.8594 C   0  0  0  0  0  0
   14.8464   41.7525   65.1395 O   0  0  0  0  0  0
   17.3941   43.0398   65.8726 C   0  0  2  0  0  0
   18.5639   44.0491   65.9532 C   0  0  0  0  0  0
   17.5750   42.2159   64.7400 O   0  0  0  0  0  0
   19.9942   43.4651   65.8586 C   0  0  0  0  0  0
   20.3279   42.4068   66.9257 C   0  0  0  0  0  0
   21.8092   41.9948   66.9247 C   0  0  0  0  0  0
   22.1189   40.9229   67.9770 C   0  0  0  0  0  0
    7.9519   39.2130   68.4082 C   0  0  0  0  0  0
    8.8815   38.8234   69.5458 C   0  0  0  0  0  0
    8.6231   38.0277   70.6032 C   0  0  0  0  0  0
    7.3217   37.2818   70.8232 C   0  0  0  0  0  0
    9.6577   37.7876   71.6900 C   0  0  0  0  0  0
   10.1210   39.3399   67.0568 H   0  0  0  0  0  0
   12.0108   40.4074   65.9051 H   0  0  0  0  0  0
   10.0051   44.1749   66.1556 H   0  0  0  0  0  0
    7.7210   44.3413   69.4625 H   0  0  0  0  0  0
    7.6495   42.5646   69.5399 H   0  0  0  0  0  0
    9.1936   43.4145   69.5036 H   0  0  0  0  0  0
   12.5213   42.2395   64.3104 H   0  0  0  0  0  0
   11.7413   43.7676   64.4485 H   0  0  0  0  0  0
   13.5200   44.6161   65.5115 H   0  0  0  0  0  0
   13.2350   43.5596   66.8776 H   0  0  0  0  0  0
   16.0505   44.5716   65.1401 H   0  0  0  0  0  0
   15.8573   44.2162   66.8350 H   0  0  0  0  0  0
   17.4300   42.3912   66.7478 H   0  0  0  0  0  0
   18.4586   44.7702   65.1413 H   0  0  0  0  0  0
   18.4767   44.6195   66.8791 H   0  0  0  0  0  0
   17.8608   42.7602   63.9877 H   0  0  0  0  0  0
   20.1540   43.0384   64.8656 H   0  0  0  0  0  0
   20.7054   44.2886   65.9409 H   0  0  0  0  0  0
   20.0560   42.7816   67.9140 H   0  0  0  0  0  0
   19.7211   41.5174   66.7533 H   0  0  0  0  0  0
   22.0893   41.6158   65.9397 H   0  0  0  0  0  0
   22.4380   42.8683   67.1031 H   0  0  0  0  0  0
   23.1688   40.6318   67.9405 H   0  0  0  0  0  0
   21.9074   41.2781   68.9862 H   0  0  0  0  0  0
   21.5242   40.0252   67.8084 H   0  0  0  0  0  0
    8.1551   38.6139   67.5200 H   0  0  0  0  0  0
    6.9211   38.9983   68.6629 H   0  0  0  0  0  0
    9.8555   39.2640   69.4703 H   0  0  0  0  0  0
    6.8905   37.5344   71.7923 H   0  0  0  0  0  0
    7.5456   36.2160   70.8010 H   0  0  0  0  0  0
    6.5635   37.4545   70.0635 H   0  0  0  0  0  0
    9.3125   38.2138   72.6333 H   0  0  0  0  0  0
    9.8172   36.7199   71.8403 H   0  0  0  0  0  0
   10.6201   38.2408   71.4508 H   0  0  0  0  0  0
  1  2  2  0  0  0
  1  6  1  0  0  0
  1  7  1  0  0  0
  2  3  1  0  0  0
  2  9  1  0  0  0
  3  4  2  0  0  0
  3 27  1  0  0  0
  4  5  1  0  0  0
  4 28  1  0  0  0
  5  6  2  0  0  0
  5 10  1  0  0  0
  6 29  1  0  0  0
  7  8  1  0  0  0
  8 30  1  0  0  0
  8 31  1  0  0  0
  8 32  1  0  0  0
  9 22  1  0  0  0
 10 11  1  0  0  0
 10 33  1  0  0  0
 10 34  1  0  0  0
 11 12  1  0  0  0
 11 35  1  0  0  0
 11 36  1  0  0  0
 12 13  1  0  0  0
 12 14  2  0  0  0
 13 15  1  0  0  0
 13 37  1  0  0  0
 13 38  1  0  0  0
 15 16  1  0  0  0
 15 17  1  0  0  0
 15 39  1  0  0  0
 16 18  1  0  0  0
 16 40  1  0  0  0
 16 41  1  0  0  0
 17 42  1  0  0  0
 18 19  1  0  0  0
 18 43  1  0  0  0
 18 44  1  0  0  0
 19 20  1  0  0  0
 19 45  1  0  0  0
 19 46  1  0  0  0
 20 21  1  0  0  0
 20 47  1  0  0  0
 20 48  1  0  0  0
 21 49  1  0  0  0
 21 50  1  0  0  0
 21 51  1  0  0  0
 22 23  1  0  0  0
 22 52  1  0  0  0
 22 53  1  0  0  0
 23 24  2  0  0  0
 23 54  1  0  0  0
 24 25  1  0  0  0
 24 26  1  0  0  0
 25 55  1  0  0  0
 25 56  1  0  0  0
 25 57  1  0  0  0
 26 58  1  0  0  0
 26 59  1  0  0  0
 26 60  1  0  0  0
M  END
> <s_m_entry_id>
7082

> <s_m_entry_name>
dock_pv.512

> <s_m_Source_Path>
/home/csk/Desktop/cluster/DUD-E-result/lkha4

> <s_m_Source_File>
dock_pv.maegz

> <i_m_Source_File_Index>
512

> <chembl_id>
CHEMBL3884665

> <chembl_pref_name>
None

> <i_lp_mmshare_version>
53161

> <i_f3d_flags>
0

> <r_lp_tautomer_probability>
0.999999960000001

> <s_lp_Force_Field>
OPLS_2005

> <r_lp_Energy>
15.688638

> <b_lp_Chiralities_Consistent>
1

> <s_lp_Variant>
CHEMBL4618_lig461-1

> <s_i_glide_gridfile>
glide-grid_3chp

> <i_i_glide_lignum>
537

> <i_i_glide_rotatable_bonds>
14

> <r_i_docking_score>
-6.92311768455416

> <r_i_glide_ligand_efficiency>
-0.266273757098237

> <r_i_glide_ligand_efficiency_sa>
-0.788834957666886

> <r_i_glide_ligand_efficiency_ln>
-1.62587147161557

> <r_i_glide_gscore>
-6.92311768455416

> <r_i_glide_lipo>
-4.15463037088506

> <r_i_glide_hbond>
-0.0908010159120595

> <r_i_glide_metal>
0

> <r_i_glide_rewards>
-1.66280101310253

> <r_i_glide_evdw>
-41.5035247802734

> <r_i_glide_ecoul>
-3.23680257797241

> <r_i_glide_erotb>
1.60743231842651

> <r_i_glide_esite>
-0.0616209773714885

> <r_i_glide_emodel>
-57.8769189056947

> <r_i_glide_energy>
-44.7403273582458

> <r_i_glide_einternal>
14.2742567062378

> <i_i_glide_confnum>
59

> <i_i_glide_posenum>
90

> <r_i_glide_eff_state_penalty>
0

> <s_user_duplicate_titles>
CHEMBL4618_lig461

> <s_m_subgroup_title>
dock_pv

> <s_m_subgroupid>
dock_pv

> <b_m_subgroup_collapsed>
1

$$$$
CHEMBL4618_lig337
                    3D
 Schrodinger Suite 2021-1.
 40 41  0  0  1  0            999 V2000
   10.3155   42.9580   66.3125 O   0  0  0  0  0  0
    9.6167   41.9857   67.0072 C   0  0  0  0  0  0
    9.7202   40.6159   66.7399 C   0  0  0  0  0  0
    9.0458   39.6833   67.5084 C   0  0  0  0  0  0
    8.2340   40.1088   68.5616 C   0  0  0  0  0  0
    8.0379   41.4732   68.7619 C   0  0  0  0  0  0
    8.7234   42.4050   67.9906 C   0  0  0  0  0  0
   11.5998   42.7910   65.8176 C   0  0  0  0  0  0
   12.0763   43.7650   64.9433 C   0  0  0  0  0  0
   13.3424   43.6597   64.3694 C   0  0  0  0  0  0
   14.1459   42.5625   64.6715 C   0  0  0  0  0  0
   13.6817   41.5855   65.5387 C   0  0  0  0  0  0
   12.4449   41.7282   66.1479 C   0  0  0  0  0  0
    7.6066   39.2503   69.4329 O   0  0  0  0  0  0
    7.8678   37.8560   69.3397 C   0  0  0  0  0  0
    7.2816   37.1796   70.5761 C   0  0  0  0  0  0
    7.9025   37.6119   71.9241 C   0  0  0  0  0  0
    9.3606   37.1810   72.1635 C   0  0  0  0  0  0
    9.5221   35.6639   72.3448 C   0  0  0  0  0  0
   15.4096   42.4451   64.1544 O   0  0  0  0  0  0
   10.3398   40.2490   65.9399 H   0  0  0  0  0  0
    9.1885   38.6380   67.2797 H   0  0  0  0  0  0
    7.3690   41.8118   69.5389 H   0  0  0  0  0  0
    8.5676   43.4551   68.1709 H   0  0  0  0  0  0
   11.4542   44.6163   64.7406 H   0  0  0  0  0  0
   13.7106   44.4291   63.7070 H   0  0  0  0  0  0
   14.2751   40.7146   65.7582 H   0  0  0  0  0  0
   12.1533   40.9926   66.8703 H   0  0  0  0  0  0
    8.9341   37.6428   69.2826 H   0  0  0  0  0  0
    7.4013   37.4544   68.4382 H   0  0  0  0  0  0
    7.3457   36.1014   70.4405 H   0  0  0  0  0  0
    6.2174   37.4159   70.6014 H   0  0  0  0  0  0
    7.2944   37.2118   72.7366 H   0  0  0  0  0  0
    7.8352   38.6968   72.0123 H   0  0  0  0  0  0
    9.7243   37.6770   73.0653 H   0  0  0  0  0  0
    9.9983   37.5390   71.3563 H   0  0  0  0  0  0
   10.5575   35.3952   72.5456 H   0  0  0  0  0  0
    9.2045   35.1117   71.4607 H   0  0  0  0  0  0
    8.9272   35.3133   73.1877 H   0  0  0  0  0  0
   15.6221   43.1625   63.5406 H   0  0  0  0  0  0
  1  2  1  0  0  0
  1  8  1  0  0  0
  2  3  1  0  0  0
  2  7  2  0  0  0
  3  4  2  0  0  0
  3 21  1  0  0  0
  4  5  1  0  0  0
  4 22  1  0  0  0
  5 14  1  0  0  0
  5  6  2  0  0  0
  6  7  1  0  0  0
  6 23  1  0  0  0
  7 24  1  0  0  0
  8  9  1  0  0  0
  8 13  2  0  0  0
  9 10  2  0  0  0
  9 25  1  0  0  0
 10 11  1  0  0  0
 10 26  1  0  0  0
 11 12  2  0  0  0
 11 20  1  0  0  0
 12 13  1  0  0  0
 12 27  1  0  0  0
 13 28  1  0  0  0
 14 15  1  0  0  0
 15 16  1  0  0  0
 15 29  1  0  0  0
 15 30  1  0  0  0
 16 17  1  0  0  0
 16 31  1  0  0  0
 16 32  1  0  0  0
 17 18  1  0  0  0
 17 33  1  0  0  0
 17 34  1  0  0  0
 18 19  1  0  0  0
 18 35  1  0  0  0
 18 36  1  0  0  0
 19 37  1  0  0  0
 19 38  1  0  0  0
 19 39  1  0  0  0
 20 40  1  0  0  0
M  END
> <s_m_entry_id>
7083

> <s_m_entry_name>
dock_pv.513

> <s_m_Source_Path>
/home/csk/Desktop/cluster/DUD-E-result/lkha4

> <s_m_Source_File>
dock_pv.maegz

> <i_m_Source_File_Index>
513

> <chembl_id>
CHEMBL500079

> <chembl_pref_name>
None

> <i_lp_mmshare_version>
53161

> <i_f3d_flags>
0

> <r_lp_tautomer_probability>
1

> <s_lp_Force_Field>
OPLS_2005

> <r_lp_Energy>
15.514171

> <b_lp_Chiralities_Consistent>
1

> <s_lp_Variant>
CHEMBL4618_lig337-1

> <s_i_glide_gridfile>
glide-grid_3chp

> <i_i_glide_lignum>
381

> <i_i_glide_rotatable_bonds>
8

> <r_i_docking_score>
-6.92183084303122

> <r_i_glide_ligand_efficiency>
-0.346091542151561

> <r_i_glide_ligand_efficiency_sa>
-0.939436978032595

> <r_i_glide_ligand_efficiency_ln>
-1.73230596275026

> <r_i_glide_gscore>
-6.92183084303122

> <r_i_glide_lipo>
-4.82588354917499

> <r_i_glide_hbond>
-0.32

> <r_i_glide_metal>
0

> <r_i_glide_rewards>
-1.87708721097285

> <r_i_glide_evdw>
-40.061824798584

> <r_i_glide_ecoul>
-5.30072975158691

> <r_i_glide_erotb>
2.89934061978386

> <r_i_glide_esite>
0

> <r_i_glide_emodel>
-61.5504460771234

> <r_i_glide_energy>
-45.3625545501709

> <r_i_glide_einternal>
9.5736198425293

> <i_i_glide_confnum>
72

> <i_i_glide_posenum>
352

> <r_i_glide_eff_state_penalty>
0

> <s_user_duplicate_titles>
CHEMBL4618_lig337

> <s_m_subgroup_title>
dock_pv

> <s_m_subgroupid>
dock_pv

> <b_m_subgroup_collapsed>
1

$$$$
CHEMBL4618_lig12
                    3D
 Schrodinger Suite 2021-1.
 44 44  0  0  1  0            999 V2000
    9.9628   41.3280   67.1517 C   0  0  0  0  0  0
    9.1010   40.0092   67.2858 C   0  0  0  0  0  0
   11.0264   41.1941   66.3400 N   0  0  0  0  0  0
   12.0426   42.2293   66.0528 C   0  0  2  0  0  0
    8.5514   39.7461   68.6779 C   0  0  2  0  0  0
   11.5132   43.3725   65.1401 C   0  0  0  0  0  0
    8.9785   39.2290   66.3401 O   0  0  0  0  0  0
    9.6678   42.3517   67.7693 O   0  0  0  0  0  0
    8.3333   38.2231   68.9140 C   0  0  0  0  0  0
   12.1214   43.8153   64.1927 O   0  0  0  0  0  0
   13.3179   41.4954   65.5141 C   0  0  0  0  0  0
    7.3309   40.5474   68.8550 N   0  0  0  0  0  0
   10.2857   43.8160   65.5404 O   0  0  0  0  0  0
    8.5216   37.6326   70.3072 C   0  0  0  0  0  0
   14.5845   42.3256   65.1427 C   0  0  0  0  0  0
    8.1210   36.3021   70.5144 C   0  0  0  0  0  0
    9.3572   38.2161   71.2806 C   0  0  0  0  0  0
   15.7272   41.4309   64.6362 C   0  0  0  0  0  0
   15.0617   43.3073   66.2281 C   0  0  0  0  0  0
    9.7198   37.5135   72.4247 C   0  0  0  0  0  0
    8.5204   35.5996   71.6450 C   0  0  0  0  0  0
    9.3030   36.2078   72.6103 C   0  0  0  0  0  0
   11.1448   40.3139   65.8540 H   0  0  0  0  0  0
   12.2824   42.7004   67.0067 H   0  0  0  0  0  0
    9.3156   40.0873   69.3674 H   0  0  0  0  0  0
    7.3658   37.9155   68.5145 H   0  0  0  0  0  0
    9.0655   37.6621   68.3313 H   0  0  0  0  0  0
   13.0423   40.9103   64.6355 H   0  0  0  0  0  0
   13.6211   40.7578   66.2585 H   0  0  0  0  0  0
    6.9738   40.4624   69.8016 H   0  0  0  0  0  0
    7.5097   41.5360   68.7203 H   0  0  0  0  0  0
    9.9846   43.3843   66.3507 H   0  0  0  0  0  0
   14.3320   42.9298   64.2727 H   0  0  0  0  0  0
    7.5313   35.8161   69.7558 H   0  0  0  0  0  0
    9.7475   39.2084   71.1396 H   0  0  0  0  0  0
   16.3207   41.0292   65.4557 H   0  0  0  0  0  0
   16.3904   42.0011   63.9815 H   0  0  0  0  0  0
   15.3211   40.6152   64.0390 H   0  0  0  0  0  0
   16.0101   43.0161   66.6760 H   0  0  0  0  0  0
   15.2197   44.2838   65.7786 H   0  0  0  0  0  0
   14.3432   43.4399   67.0334 H   0  0  0  0  0  0
   10.3454   37.9793   73.1719 H   0  0  0  0  0  0
    8.2060   34.5740   71.7705 H   0  0  0  0  0  0
    9.5984   35.6622   73.4952 H   0  0  0  0  0  0
  1  2  1  0  0  0
  1  3  1  0  0  0
  1  8  2  0  0  0
  2  5  1  0  0  0
  2  7  2  0  0  0
  3  4  1  0  0  0
  3 23  1  0  0  0
  4  6  1  0  0  0
  4 11  1  0  0  0
  4 24  1  0  0  0
  5  9  1  0  0  0
  5 12  1  0  0  0
  5 25  1  0  0  0
  6 10  2  0  0  0
  6 13  1  0  0  0
  9 14  1  0  0  0
  9 26  1  0  0  0
  9 27  1  0  0  0
 11 15  1  0  0  0
 11 28  1  0  0  0
 11 29  1  0  0  0
 12 30  1  0  0  0
 12 31  1  0  0  0
 13 32  1  0  0  0
 14 16  2  0  0  0
 14 17  1  0  0  0
 15 18  1  0  0  0
 15 19  1  0  0  0
 15 33  1  0  0  0
 16 21  1  0  0  0
 16 34  1  0  0  0
 17 20  2  0  0  0
 17 35  1  0  0  0
 18 36  1  0  0  0
 18 37  1  0  0  0
 18 38  1  0  0  0
 19 39  1  0  0  0
 19 40  1  0  0  0
 19 41  1  0  0  0
 20 22  1  0  0  0
 20 42  1  0  0  0
 21 22  2  0  0  0
 21 43  1  0  0  0
 22 44  1  0  0  0
M  END
> <s_m_entry_id>
7084

> <s_m_entry_name>
dock_pv.514

> <s_m_Source_Path>
/home/csk/Desktop/cluster/DUD-E-result/lkha4

> <s_m_Source_File>
dock_pv.maegz

> <i_m_Source_File_Index>
514

> <chembl_id>
CHEMBL71853

> <chembl_pref_name>
None

> <i_lp_mmshare_version>
53161

> <i_f3d_flags>
0

> <r_lp_tautomer_probability>
1

> <s_lp_Force_Field>
OPLS_2005

> <r_lp_Energy>
10.251099

> <b_lp_Chiralities_Consistent>
1

> <s_lp_Variant>
CHEMBL4618_lig12-1

> <s_i_glide_gridfile>
glide-grid_3chp

> <i_i_glide_lignum>
12

> <i_i_glide_rotatable_bonds>
10

> <r_i_docking_score>
-6.83514495828177

> <r_i_glide_ligand_efficiency>
-0.310688407194626

> <r_i_glide_ligand_efficiency_sa>
-0.870561135641038

> <r_i_glide_ligand_efficiency_ln>
-1.67075874577416

> <r_i_glide_gscore>
-6.83514495828177

> <r_i_glide_lipo>
-2.90901126532495

> <r_i_glide_hbond>
-0.416880214110613

> <r_i_glide_metal>
0

> <r_i_glide_rewards>
-2.13696029136803

> <r_i_glide_evdw>
-41.2814521789551

> <r_i_glide_ecoul>
-4.57225847244263

> <r_i_glide_erotb>
1.37761819233596

> <r_i_glide_esite>
0

> <r_i_glide_emodel>
-58.737476413389

> <r_i_glide_energy>
-45.8537106513977

> <r_i_glide_einternal>
11.7745208740234

> <i_i_glide_confnum>
73

> <i_i_glide_posenum>
29

> <r_i_glide_eff_state_penalty>
0

> <s_user_duplicate_titles>
CHEMBL4618_lig12,110862

> <s_m_subgroup_title>
dock_pv

> <s_m_subgroupid>
dock_pv

> <b_m_subgroup_collapsed>
1

$$$$
CHEMBL4618_lig363
                    3D
 Schrodinger Suite 2021-1.
 51 53  0  0  1  0            999 V2000
    9.0449   38.1199   71.3485 C   0  0  0  0  0  0
    8.5234   36.8815   70.9995 C   0  0  0  0  0  0
    7.7210   36.7598   69.8711 C   0  0  0  0  0  0
    7.3972   37.8666   69.1009 C   0  0  0  0  0  0
    7.8969   39.1088   69.4634 C   0  0  0  0  0  0
    8.7412   39.2260   70.5635 C   0  0  0  0  0  0
    7.5397   40.2206   68.7400 O   0  0  0  0  0  0
    8.4844   40.8677   67.9756 C   0  0  0  0  0  0
    9.5920   40.1996   67.4521 C   0  0  0  0  0  0
   10.5520   40.8962   66.7398 C   0  0  0  0  0  0
   10.4137   42.2662   66.5182 C   0  0  0  0  0  0
    9.2538   42.9110   66.9459 C   0  0  0  0  0  0
    8.2975   42.2185   67.6876 C   0  0  0  0  0  0
   11.3785   43.0110   65.8781 O   0  0  0  0  0  0
   12.7504   42.6365   66.0683 C   0  0  0  0  0  0
   13.6490   43.6885   65.3632 C   0  0  2  0  0  0
   13.3098   43.7493   63.8780 C   0  0  0  0  0  0
   13.8980   42.5242   63.2026 C   0  0  0  0  0  0
   15.4140   42.3928   63.4123 C   0  0  0  0  0  0
   15.8490   42.6047   64.8389 C   0  0  0  0  0  0
   15.1321   43.6725   65.5477 N   0  0  2  0  0  0
    8.9210   35.4915   71.9400 Cl  0  0  0  0  0  0
   15.4470   43.5812   66.9498 C   0  0  0  0  0  0
   16.9145   43.5972   67.4535 C   0  0  0  0  0  0
   17.6361   44.9083   67.2037 C   0  0  0  0  0  0
   17.0794   45.9097   67.9400 O   0  0  0  0  0  0
   18.6240   45.0160   66.4859 O   0  0  0  0  0  0
    9.6803   38.2160   72.2159 H   0  0  0  0  0  0
    7.3210   35.8160   69.5856 H   0  0  0  0  0  0
    6.7550   37.7718   68.2376 H   0  0  0  0  0  0
    9.1238   40.1980   70.8051 H   0  0  0  0  0  0
    9.7210   39.1384   67.6074 H   0  0  0  0  0  0
   11.3888   40.3489   66.3400 H   0  0  0  0  0  0
    9.1129   43.9616   66.7400 H   0  0  0  0  0  0
    7.4185   42.7320   68.0518 H   0  0  0  0  0  0
   12.9690   41.6376   65.6938 H   0  0  0  0  0  0
   12.9341   42.6279   67.1400 H   0  0  0  0  0  0
   13.3058   44.6160   65.7732 H   0  0  0  0  0  0
   13.7210   44.6434   63.4243 H   0  0  0  0  0  0
   12.2358   43.8160   63.7082 H   0  0  0  0  0  0
   13.7210   42.6160   62.1558 H   0  0  0  0  0  0
   13.3912   41.6143   63.5207 H   0  0  0  0  0  0
   15.9852   43.0160   62.7302 H   0  0  0  0  0  0
   15.7381   41.3916   63.1400 H   0  0  0  0  0  0
   16.9181   42.8214   64.8553 H   0  0  0  0  0  0
   15.7083   41.6546   65.3539 H   0  0  0  0  0  0
   15.0314   42.6160   67.1400 H   0  0  0  0  0  0
   14.8063   44.2160   67.5400 H   0  0  0  0  0  0
   17.5023   42.8393   66.9378 H   0  0  0  0  0  0
   16.9699   43.3409   68.5112 H   0  0  0  0  0  0
   16.3514   45.5697   68.4658 H   0  0  0  0  0  0
  1  2  2  0  0  0
  1  6  1  0  0  0
  1 28  1  0  0  0
  2  3  1  0  0  0
  2 22  1  0  0  0
  3  4  2  0  0  0
  3 29  1  0  0  0
  4  5  1  0  0  0
  4 30  1  0  0  0
  5  7  1  0  0  0
  5  6  2  0  0  0
  6 31  1  0  0  0
  7  8  1  0  0  0
  8 13  1  0  0  0
  8  9  2  0  0  0
  9 10  1  0  0  0
  9 32  1  0  0  0
 10 11  2  0  0  0
 10 33  1  0  0  0
 11 14  1  0  0  0
 11 12  1  0  0  0
 12 13  2  0  0  0
 12 34  1  0  0  0
 13 35  1  0  0  0
 14 15  1  0  0  0
 15 16  1  0  0  0
 15 36  1  0  0  0
 15 37  1  0  0  0
 16 17  1  0  0  0
 16 21  1  0  0  0
 16 38  1  0  0  0
 17 18  1  0  0  0
 17 39  1  0  0  0
 17 40  1  0  0  0
 18 19  1  0  0  0
 18 41  1  0  0  0
 18 42  1  0  0  0
 19 20  1  0  0  0
 19 43  1  0  0  0
 19 44  1  0  0  0
 20 21  1  0  0  0
 20 45  1  0  0  0
 20 46  1  0  0  0
 21 23  1  0  0  0
 23 24  1  0  0  0
 23 47  1  0  0  0
 23 48  1  0  0  0
 24 25  1  0  0  0
 24 49  1  0  0  0
 24 50  1  0  0  0
 25 26  1  0  0  0
 25 27  2  0  0  0
 26 51  1  0  0  0
M  END
> <s_m_entry_id>
7085

> <s_m_entry_name>
dock_pv.515

> <s_m_Source_Path>
/home/csk/Desktop/cluster/DUD-E-result/lkha4

> <s_m_Source_File>
dock_pv.maegz

> <i_m_Source_File_Index>
515

> <chembl_id>
CHEMBL1098789

> <chembl_pref_name>
None

> <i_lp_mmshare_version>
53161

> <i_f3d_flags>
0

> <r_lp_tautomer_probability>
1

> <s_lp_Force_Field>
OPLS_2005

> <r_lp_Energy>
34.232707

> <b_lp_Chiralities_Consistent>
1

> <s_lp_Variant>
CHEMBL4618_lig363-1

> <s_i_glide_gridfile>
glide-grid_3chp

> <i_i_glide_lignum>
409

> <i_i_glide_rotatable_bonds>
9

> <r_i_docking_score>
-6.80221743799396

> <r_i_glide_ligand_efficiency>
-0.251933979184961

> <r_i_glide_ligand_efficiency_sa>
-0.755801936724551

> <r_i_glide_ligand_efficiency_ln>
-1.58344407624605

> <r_i_glide_gscore>
-6.80221743799396

> <r_i_glide_lipo>
-4.65140304715972

> <r_i_glide_hbond>
0

> <r_i_glide_metal>
0

> <r_i_glide_rewards>
-1.16262803512037

> <r_i_glide_evdw>
-33.1507339477539

> <r_i_glide_ecoul>
-2.37929511070251

> <r_i_glide_erotb>
1.0262446082792

> <r_i_glide_esite>
0

> <r_i_glide_emodel>
-47.234337474415

> <r_i_glide_energy>
-35.5300290584564

> <r_i_glide_einternal>
5.52900123596191

> <i_i_glide_confnum>
153

> <i_i_glide_posenum>
382

> <r_i_glide_eff_state_penalty>
0

> <s_user_duplicate_titles>
CHEMBL4618_lig363,627540

> <s_m_subgroup_title>
dock_pv

> <s_m_subgroupid>
dock_pv

> <b_m_subgroup_collapsed>
1

$$$$
177096
                    3D
 Schrodinger Suite 2021-1.
 48 49  0  0  1  0            999 V2000
    8.4054   40.4451   69.1400 C   0  0  0  0  0  0
    8.1210   39.3180   69.9030 C   0  0  0  0  0  0
    8.2090   38.0440   69.3626 C   0  0  0  0  0  0
    8.5210   37.9182   68.0061 C   0  0  0  0  0  0
    8.8452   39.0385   67.2379 C   0  0  0  0  0  0
    8.8171   40.3081   67.8180 C   0  0  0  0  0  0
    9.2552   41.5477   67.0467 C   0  0  0  0  0  0
   10.7495   41.5144   66.6644 C   0  0  0  0  0  0
   11.2604   42.8822   66.1789 C   0  0  0  0  0  0
   12.7847   42.9815   65.9619 C   0  0  0  0  0  0
   13.2913   42.3368   64.6556 C   0  0  0  0  0  0
   14.6846   42.8439   64.2156 C   0  0  0  0  0  0
   15.8630   41.9216   64.5140 C   0  0  0  0  0  0
   16.5212   41.9747   65.5400 O   0  0  0  0  0  0
   16.1210   41.0160   63.5400 O   0  0  0  0  0  0
    7.8600   36.8283   70.2317 C   0  0  0  0  0  0
    8.7599   36.4548   71.4303 C   0  0  0  0  0  0
    9.3725   37.4106   72.2511 C   0  0  0  0  0  0
   10.1145   37.0166   73.3654 C   0  0  0  0  0  0
   10.2565   35.6700   73.6723 C   0  0  0  0  0  0
    9.7210   34.7101   72.8282 C   0  0  0  0  0  0
    8.9538   35.1033   71.7374 C   0  0  0  0  0  0
   10.9210   35.2791   74.8312 N   0  0  0  0  0  0
    8.3235   41.4281   69.5761 H   0  0  0  0  0  0
    7.8093   39.4160   70.9253 H   0  0  0  0  0  0
    8.5440   36.9488   67.5428 H   0  0  0  0  0  0
    9.1362   38.9131   66.2045 H   0  0  0  0  0  0
    9.0686   42.4277   67.6657 H   0  0  0  0  0  0
    8.6253   41.6966   66.1731 H   0  0  0  0  0  0
   10.9333   40.7456   65.9148 H   0  0  0  0  0  0
   11.3210   41.2150   67.5400 H   0  0  0  0  0  0
   10.9869   43.6252   66.9265 H   0  0  0  0  0  0
   10.7309   43.1769   65.2717 H   0  0  0  0  0  0
   13.3228   42.5742   66.8185 H   0  0  0  0  0  0
   13.0293   44.0444   65.9402 H   0  0  0  0  0  0
   12.5938   42.6160   63.8647 H   0  0  0  0  0  0
   13.2509   41.2475   64.7248 H   0  0  0  0  0  0
   14.8972   43.8055   64.6886 H   0  0  0  0  0  0
   14.6799   43.0160   63.1400 H   0  0  0  0  0  0
   15.6020   41.1333   62.7101 H   0  0  0  0  0  0
    6.8647   37.0160   70.6315 H   0  0  0  0  0  0
    7.7517   35.9585   69.5819 H   0  0  0  0  0  0
    9.2718   38.4638   72.0630 H   0  0  0  0  0  0
   10.5536   37.7721   73.9983 H   0  0  0  0  0  0
    9.8493   33.6598   73.0431 H   0  0  0  0  0  0
    8.5210   34.3238   71.1400 H   0  0  0  0  0  0
   10.9212   34.2968   75.0691 H   0  0  0  0  0  0
   11.0061   35.9560   75.5766 H   0  0  0  0  0  0
  1  6  1  0  0  0
  1  2  2  0  0  0
  1 24  1  0  0  0
  2  3  1  0  0  0
  2 25  1  0  0  0
  3  4  2  0  0  0
  3 16  1  0  0  0
  4  5  1  0  0  0
  4 26  1  0  0  0
  5  6  2  0  0  0
  5 27  1  0  0  0
  6  7  1  0  0  0
  7  8  1  0  0  0
  7 28  1  0  0  0
  7 29  1  0  0  0
  8  9  1  0  0  0
  8 30  1  0  0  0
  8 31  1  0  0  0
  9 10  1  0  0  0
  9 32  1  0  0  0
  9 33  1  0  0  0
 10 11  1  0  0  0
 10 34  1  0  0  0
 10 35  1  0  0  0
 11 12  1  0  0  0
 11 36  1  0  0  0
 11 37  1  0  0  0
 12 13  1  0  0  0
 12 38  1  0  0  0
 12 39  1  0  0  0
 13 14  2  0  0  0
 13 15  1  0  0  0
 15 40  1  0  0  0
 16 17  1  0  0  0
 16 41  1  0  0  0
 16 42  1  0  0  0
 17 22  1  0  0  0
 17 18  2  0  0  0
 18 19  1  0  0  0
 18 43  1  0  0  0
 19 20  2  0  0  0
 19 44  1  0  0  0
 20 21  1  0  0  0
 20 23  1  0  0  0
 21 22  2  0  0  0
 21 45  1  0  0  0
 22 46  1  0  0  0
 23 47  1  0  0  0
 23 48  1  0  0  0
M  END
> <s_m_entry_id>
7141

> <s_m_entry_name>
ligand_docking-pose.16

> <s_m_Source_Path>
/home/csk/Desktop/cluster/DUD-E-result/lkha4

> <s_m_Source_File>
ligand_docking-pose.sdf

> <i_m_Source_File_Index>
16

> <i_lp_mmshare_version>
53161

> <r_lp_tautomer_probability>
1

> <s_lp_Force_Field>
OPLS_2005

> <r_lp_Energy>
12.321046

> <b_lp_Chiralities_Consistent>
1

> <s_lp_Variant>
177096-1

> <s_i_glide_gridfile>
glide-grid_3chp

> <i_i_glide_lignum>
135

> <i_i_glide_rotatable_bonds>
10

> <r_i_docking_score>
-11.0433636411431

> <r_i_glide_ligand_efficiency>
-0.480146245267093

> <r_i_glide_ligand_efficiency_sa>
-1.36547205098765

> <r_i_glide_ligand_efficiency_ln>
-2.67038546411362

> <r_i_glide_gscore>
-11.0433636411431

> <r_i_glide_lipo>
-5.44917445188528

> <r_i_glide_hbond>
-0.304

> <r_i_glide_metal>
0

> <r_i_glide_rewards>
-2.18578636363636

> <r_i_glide_evdw>
-36.6486396789551

> <r_i_glide_ecoul>
-19.286491394043

> <r_i_glide_erotb>
1.7210028674327

> <r_i_glide_esite>
-0.1

> <r_i_glide_emodel>
-92.8353324382134

> <r_i_glide_energy>
-55.935131072998

> <r_i_glide_einternal>
8.43239974975586

> <i_i_glide_confnum>
61

> <i_i_glide_posenum>
324

> <r_i_glide_eff_state_penalty>
0

> <i_f3d_flags>
0

> <s_user_duplicate_titles>
177096

> <s_m_subgroup_title>
dock_pv

> <s_m_subgroupid>
dock_pv1

> <b_m_subgroup_collapsed>
0

$$$$
496126
                    3D
 Schrodinger Suite 2021-1.
 50 51  0  0  1  0            999 V2000
   18.8248   44.5745   65.9602 C   0  0  0  0  0  0
   17.4009   44.6406   66.5745 C   0  0  2  0  0  0
   17.4095   44.6758   68.1203 C   0  0  0  0  0  0
   18.1210   46.2164   68.7400 S   0  0  0  0  0  0
   16.5355   43.4607   66.1154 C   0  0  0  0  0  0
   17.0626   42.3585   65.9436 O   0  0  0  0  0  0
   15.2124   43.6985   65.9571 N   0  0  0  0  0  0
   14.1851   42.7455   65.5066 C   0  0  1  0  0  0
   12.7709   43.3929   65.3152 C   0  0  0  0  0  0
   11.7281   43.0148   66.7402 S   0  0  0  0  0  0
   10.0867   42.5907   66.1144 C   0  0  0  0  0  0
    9.4023   41.5843   67.0269 C   0  0  0  0  0  0
    9.6730   40.2220   66.8725 C   0  0  0  0  0  0
    9.0179   39.2844   67.6648 C   0  0  0  0  0  0
    8.1178   39.7024   68.6387 C   0  0  0  0  0  0
    7.8474   41.0635   68.7954 C   0  0  0  0  0  0
    8.4869   42.0064   67.9931 C   0  0  0  0  0  0
    7.4260   38.7709   69.3773 O   0  0  0  0  0  0
    8.0861   38.0032   70.3091 C   0  0  0  0  0  0
    7.9261   36.6198   70.2826 C   0  0  0  0  0  0
    8.5208   35.8210   71.2572 C   0  0  0  0  0  0
    9.2683   36.4068   72.2703 C   0  0  0  0  0  0
    9.4288   37.7858   72.3086 C   0  0  0  0  0  0
    8.8385   38.5850   71.3276 C   0  0  0  0  0  0
   14.6702   41.9905   64.2690 C   0  0  0  0  0  0
   15.3938   41.0159   64.3214 O   0  0  0  0  0  0
   14.2552   42.6160   63.1400 O   0  0  0  0  0  0
   16.9224   45.5452   66.2034 H   0  0  0  0  0  0
   14.1061   41.9792   66.2760 H   0  0  0  0  0  0
   18.7897   44.5711   64.8681 H   0  0  0  0  0  0
   19.4468   45.4148   66.2595 H   0  0  0  0  0  0
   19.3541   43.6691   66.2635 H   0  0  0  0  0  0
   17.9672   43.8329   68.5337 H   0  0  0  0  0  0
   16.3981   44.6189   68.5244 H   0  0  0  0  0  0
   17.9052   45.9448   70.0311 H   0  0  0  0  0  0
   14.8591   44.6260   66.1309 H   0  0  0  0  0  0
   12.8356   44.4726   65.1803 H   0  0  0  0  0  0
   12.2397   43.0178   64.4403 H   0  0  0  0  0  0
    9.4879   43.4954   66.0000 H   0  0  0  0  0  0
   10.1874   42.1463   65.1373 H   0  0  0  0  0  0
   10.3772   39.8843   66.1248 H   0  0  0  0  0  0
    9.2140   38.2307   67.5273 H   0  0  0  0  0  0
    7.1352   41.3894   69.5386 H   0  0  0  0  0  0
    8.2591   43.0567   68.1159 H   0  0  0  0  0  0
    7.3212   36.1628   69.5183 H   0  0  0  0  0  0
    8.3960   34.7492   71.2357 H   0  0  0  0  0  0
    9.7195   35.7886   73.0330 H   0  0  0  0  0  0
    9.9991   38.2151   73.1163 H   0  0  0  0  0  0
    8.9210   39.6594   71.3674 H   0  0  0  0  0  0
   14.5208   42.0502   62.3837 H   0  0  0  0  0  0
  1  2  1  0  0  0
  1 30  1  0  0  0
  1 31  1  0  0  0
  1 32  1  0  0  0
  2 28  1  0  0  0
  2  3  1  0  0  0
  2  5  1  0  0  0
  3  4  1  0  0  0
  3 33  1  0  0  0
  3 34  1  0  0  0
  4 35  1  0  0  0
  5  6  2  0  0  0
  5  7  1  0  0  0
  7  8  1  0  0  0
  7 36  1  0  0  0
  8 29  1  0  0  0
  8  9  1  0  0  0
  8 25  1  0  0  0
  9 10  1  0  0  0
  9 37  1  0  0  0
  9 38  1  0  0  0
 10 11  1  0  0  0
 11 12  1  0  0  0
 11 39  1  0  0  0
 11 40  1  0  0  0
 12 17  1  0  0  0
 12 13  2  0  0  0
 13 14  1  0  0  0
 13 41  1  0  0  0
 14 15  2  0  0  0
 14 42  1  0  0  0
 15 16  1  0  0  0
 15 18  1  0  0  0
 16 17  2  0  0  0
 16 43  1  0  0  0
 17 44  1  0  0  0
 18 19  1  0  0  0
 19 24  1  0  0  0
 19 20  2  0  0  0
 20 21  1  0  0  0
 20 45  1  0  0  0
 21 22  2  0  0  0
 21 46  1  0  0  0
 22 23  1  0  0  0
 22 47  1  0  0  0
 23 24  2  0  0  0
 23 48  1  0  0  0
 24 49  1  0  0  0
 25 26  2  0  0  0
 25 27  1  0  0  0
 27 50  1  0  0  0
M  END
> <s_m_entry_id>
7152

> <s_m_entry_name>
ligand_docking-pose.27

> <s_m_Source_Path>
/home/csk/Desktop/cluster/DUD-E-result/lkha4

> <s_m_Source_File>
ligand_docking-pose.sdf

> <i_m_Source_File_Index>
27

> <i_lp_mmshare_version>
53161

> <r_lp_tautomer_probability>
1

> <s_lp_Force_Field>
OPLS_2005

> <r_lp_Energy>
10.182137

> <b_lp_Chiralities_Consistent>
1

> <s_lp_Variant>
496126-1

> <s_i_glide_gridfile>
glide-grid_3chp

> <i_i_glide_lignum>
305

> <i_i_glide_rotatable_bonds>
13

> <r_i_docking_score>
-10.684578982781

> <r_i_glide_ligand_efficiency>
-0.395725147510406

> <r_i_glide_ligand_efficiency_sa>
-1.18717544122697

> <r_i_glide_ligand_efficiency_ln>
-2.48719383814008

> <r_i_glide_gscore>
-10.684578982781

> <r_i_glide_lipo>
-4.98734249509787

> <r_i_glide_hbond>
-0.304167406031792

> <r_i_glide_metal>
0

> <r_i_glide_rewards>
-1.54406034323626

> <r_i_glide_evdw>
-47.6334762573242

> <r_i_glide_ecoul>
-16.8390636444092

> <r_i_glide_erotb>
1.31456847432411

> <r_i_glide_esite>
-0.256043853211566

> <r_i_glide_emodel>
-104.413852947116

> <r_i_glide_energy>
-64.4725399017334

> <r_i_glide_einternal>
11.8253231048584

> <i_i_glide_confnum>
525

> <i_i_glide_posenum>
95

> <r_i_glide_eff_state_penalty>
0

> <i_f3d_flags>
0

> <s_user_duplicate_titles>
496126

> <s_m_subgroup_title>
dock_pv

> <s_m_subgroupid>
dock_pv1

> <b_m_subgroup_collapsed>
0

$$$$
496054
                    3D
 Schrodinger Suite 2021-1.
 55 56  0  0  1  0            999 V2000
   18.4440   42.5581   66.2095 C   0  0  0  0  0  0
   17.3998   43.3040   65.3470 C   0  0  2  0  0  0
   17.2679   44.7862   65.7667 C   0  0  0  0  0  0
   16.9208   45.0159   67.5399 S   0  0  0  0  0  0
   16.0794   42.5190   65.1399 C   0  0  0  0  0  0
   16.1244   41.3019   64.9403 O   0  0  0  0  0  0
   14.9104   43.1788   65.1406 N   0  0  0  0  0  0
   13.6462   42.5975   64.6733 C   0  0  1  0  0  0
   12.8424   41.8509   65.7783 C   0  0  0  0  0  0
   11.9349   43.0160   66.8694 S   0  0  0  0  0  0
   10.1563   43.0168   66.4248 C   0  0  0  0  0  0
    9.4482   41.9566   67.1949 C   0  0  0  0  0  0
    8.6515   42.2754   68.2914 C   0  0  0  0  0  0
    8.1273   41.2469   69.0590 C   0  0  0  0  0  0
    8.4063   39.9190   68.7267 C   0  0  0  0  0  0
    9.1116   39.6288   67.5550 C   0  0  0  0  0  0
    9.6459   40.6433   66.8035 C   0  0  0  0  0  0
    7.9421   38.7959   69.6368 C   0  0  0  0  0  0
    7.9383   37.4309   68.9309 C   0  0  0  0  0  0
    7.5295   36.3105   69.8424 C   0  0  0  0  0  0
    8.2796   36.2771   71.1876 C   0  0  0  0  0  0
    8.2193   37.6357   71.9005 C   0  0  0  0  0  0
    8.6948   38.7854   70.9902 C   0  0  0  0  0  0
   12.7279   43.6180   63.9870 C   0  0  0  0  0  0
   11.5420   43.4161   63.9398 O   0  0  0  0  0  0
   13.3210   44.7517   63.5401 O   0  0  0  0  0  0
   17.8086   43.3331   64.3401 H   0  0  0  0  0  0
   13.8761   41.8759   63.8852 H   0  0  0  0  0  0
   18.6765   41.5737   65.8136 H   0  0  0  0  0  0
   19.3865   43.1057   66.2423 H   0  0  0  0  0  0
   18.1059   42.4285   67.2377 H   0  0  0  0  0  0
   16.5213   45.2917   65.1541 H   0  0  0  0  0  0
   18.2120   45.2920   65.5613 H   0  0  0  0  0  0
   15.7928   44.2982   67.5929 H   0  0  0  0  0  0
   14.8848   44.1662   65.3471 H   0  0  0  0  0  0
   12.1332   41.1684   65.3165 H   0  0  0  0  0  0
   13.5001   41.2190   66.3697 H   0  0  0  0  0  0
    9.7209   43.9914   66.6343 H   0  0  0  0  0  0
    9.9301   42.8086   65.3865 H   0  0  0  0  0  0
    8.4724   43.3038   68.5718 H   0  0  0  0  0  0
    7.5576   41.4954   69.9371 H   0  0  0  0  0  0
    9.3209   38.6293   67.2129 H   0  0  0  0  0  0
   10.2375   40.3933   65.9399 H   0  0  0  0  0  0
    6.9212   39.0717   69.8919 H   0  0  0  0  0  0
    7.2548   37.4458   68.0790 H   0  0  0  0  0  0
    8.9210   37.1620   68.5718 H   0  0  0  0  0  0
    6.4579   36.4136   69.9405 H   0  0  0  0  0  0
    7.7210   35.4169   69.2700 H   0  0  0  0  0  0
    7.8675   35.4966   71.8281 H   0  0  0  0  0  0
    9.3200   36.0030   71.0187 H   0  0  0  0  0  0
    7.1902   37.8165   72.2060 H   0  0  0  0  0  0
    8.8113   37.6106   72.8166 H   0  0  0  0  0  0
    9.7681   38.6862   70.8198 H   0  0  0  0  0  0
    8.5215   39.7186   71.5257 H   0  0  0  0  0  0
   14.2911   44.7132   63.4728 H   0  0  0  0  0  0
  1  2  1  0  0  0
  1 29  1  0  0  0
  1 30  1  0  0  0
  1 31  1  0  0  0
  2 27  1  0  0  0
  2  3  1  0  0  0
  2  5  1  0  0  0
  3  4  1  0  0  0
  3 32  1  0  0  0
  3 33  1  0  0  0
  4 34  1  0  0  0
  5  6  2  0  0  0
  5  7  1  0  0  0
  7  8  1  0  0  0
  7 35  1  0  0  0
  8 28  1  0  0  0
  8  9  1  0  0  0
  8 24  1  0  0  0
  9 10  1  0  0  0
  9 36  1  0  0  0
  9 37  1  0  0  0
 10 11  1  0  0  0
 11 12  1  0  0  0
 11 38  1  0  0  0
 11 39  1  0  0  0
 12 17  1  0  0  0
 12 13  2  0  0  0
 13 14  1  0  0  0
 13 40  1  0  0  0
 14 15  2  0  0  0
 14 41  1  0  0  0
 15 16  1  0  0  0
 15 18  1  0  0  0
 16 17  2  0  0  0
 16 42  1  0  0  0
 17 43  1  0  0  0
 18 23  1  0  0  0
 18 19  1  0  0  0
 18 44  1  0  0  0
 19 20  1  0  0  0
 19 45  1  0  0  0
 19 46  1  0  0  0
 20 21  1  0  0  0
 20 47  1  0  0  0
 20 48  1  0  0  0
 21 22  1  0  0  0
 21 49  1  0  0  0
 21 50  1  0  0  0
 22 23  1  0  0  0
 22 51  1  0  0  0
 22 52  1  0  0  0
 23 53  1  0  0  0
 23 54  1  0  0  0
 24 25  2  0  0  0
 24 26  1  0  0  0
 26 55  1  0  0  0
M  END
> <s_m_entry_id>
7162

> <s_m_entry_name>
ligand_docking-pose.37

> <s_m_Source_Path>
/home/csk/Desktop/cluster/DUD-E-result/lkha4

> <s_m_Source_File>
ligand_docking-pose.sdf

> <i_m_Source_File_Index>
37

> <i_lp_mmshare_version>
53161

> <r_lp_tautomer_probability>
1

> <s_lp_Force_Field>
OPLS_2005

> <r_lp_Energy>
14.054361

> <b_lp_Chiralities_Consistent>
1

> <s_lp_Variant>
496054-1

> <s_i_glide_gridfile>
glide-grid_3chp

> <i_i_glide_lignum>
295

> <i_i_glide_rotatable_bonds>
12

> <r_i_docking_score>
-10.431517286733

> <r_i_glide_ligand_efficiency>
-0.401212203335885

> <r_i_glide_ligand_efficiency_sa>
-1.18858957368877

> <r_i_glide_ligand_efficiency_ln>
-2.44980760618922

> <r_i_glide_gscore>
-10.431517286733

> <r_i_glide_lipo>
-4.78314908862662

> <r_i_glide_hbond>
-0.531266082035223

> <r_i_glide_metal>
0

> <r_i_glide_rewards>
-1.57478910372371

> <r_i_glide_evdw>
-27.618896484375

> <r_i_glide_ecoul>
-21.5640640258789

> <r_i_glide_erotb>
1.24972856566999

> <r_i_glide_esite>
-0.176487149916864

> <r_i_glide_emodel>
-73.0867468458426

> <r_i_glide_energy>
-49.1829605102539

> <r_i_glide_einternal>
13.4614582061768

> <i_i_glide_confnum>
411

> <i_i_glide_posenum>
239

> <r_i_glide_eff_state_penalty>
0

> <i_f3d_flags>
0

> <s_user_duplicate_titles>
496054

> <s_m_subgroup_title>
dock_pv

> <s_m_subgroupid>
dock_pv1

> <b_m_subgroup_collapsed>
0

$$$$
496050
                    3D
 Schrodinger Suite 2021-1.
 48 48  0  0  1  0            999 V2000
    9.4253   38.0038   71.3544 C   0  0  0  0  0  0
    8.4117   37.3449   70.4068 C   0  0  0  0  0  0
    7.4804   38.3455   69.7011 C   0  0  0  0  0  0
    8.1671   39.3484   68.7824 C   0  0  0  0  0  0
    8.8257   38.9028   67.6386 C   0  0  0  0  0  0
    9.4564   39.8160   66.8020 C   0  0  0  0  0  0
    9.4165   41.1791   67.0929 C   0  0  0  0  0  0
    8.7333   41.6328   68.2178 C   0  0  0  0  0  0
    8.1217   40.7168   69.0629 C   0  0  0  0  0  0
   10.1007   42.1768   66.1812 C   0  0  0  0  0  0
   11.7886   42.5503   66.7400 S   0  0  0  0  0  0
   12.9091   41.6065   65.6372 C   0  0  0  0  0  0
   13.6570   42.5045   64.5969 C   0  0  1  0  0  0
   12.7132   43.5798   64.0028 C   0  0  0  0  0  0
   11.5172   43.4160   63.9400 O   0  0  0  0  0  0
   13.3210   44.7215   63.5961 O   0  0  0  0  0  0
   14.8834   43.1009   65.1404 N   0  0  0  0  0  0
   16.1180   42.5643   65.1400 C   0  0  0  0  0  0
   16.3555   41.4160   64.7418 O   0  0  0  0  0  0
   17.2482   43.4485   65.7247 C   0  0  2  0  0  0
   18.6520   42.7966   65.6196 C   0  0  0  0  0  0
   16.9222   43.9188   67.1715 C   0  0  0  0  0  0
   18.1215   45.1340   67.7930 S   0  0  0  0  0  0
   13.9402   41.8736   63.7507 H   0  0  0  0  0  0
   17.2759   44.3185   65.0667 H   0  0  0  0  0  0
   10.0120   37.2534   71.8848 H   0  0  0  0  0  0
   10.1209   38.6416   70.8085 H   0  0  0  0  0  0
    8.9198   38.6157   72.1024 H   0  0  0  0  0  0
    7.8006   36.6479   70.9820 H   0  0  0  0  0  0
    8.9210   36.7347   69.6634 H   0  0  0  0  0  0
    6.9173   38.8820   70.4594 H   0  0  0  0  0  0
    6.7541   37.7933   69.1043 H   0  0  0  0  0  0
    8.8696   37.8486   67.4053 H   0  0  0  0  0  0
    9.9926   39.4523   65.9400 H   0  0  0  0  0  0
    8.6895   42.6883   68.4471 H   0  0  0  0  0  0
    7.6348   41.0957   69.9400 H   0  0  0  0  0  0
    9.5324   43.1081   66.1644 H   0  0  0  0  0  0
   10.1102   41.8162   65.1572 H   0  0  0  0  0  0
   12.3238   40.8351   65.1400 H   0  0  0  0  0  0
   13.6204   41.0590   66.2537 H   0  0  0  0  0  0
   14.2903   44.6689   63.5311 H   0  0  0  0  0  0
   14.7558   44.0301   65.5130 H   0  0  0  0  0  0
   18.8348   42.3946   64.6253 H   0  0  0  0  0  0
   19.4470   43.5207   65.7971 H   0  0  0  0  0  0
   18.7850   41.9785   66.3260 H   0  0  0  0  0  0
   16.9211   43.0715   67.8593 H   0  0  0  0  0  0
   15.9354   44.3799   67.2365 H   0  0  0  0  0  0
   19.1578   44.2894   67.8180 H   0  0  0  0  0  0
  1  2  1  0  0  0
  1 26  1  0  0  0
  1 27  1  0  0  0
  1 28  1  0  0  0
  2  3  1  0  0  0
  2 29  1  0  0  0
  2 30  1  0  0  0
  3  4  1  0  0  0
  3 31  1  0  0  0
  3 32  1  0  0  0
  4  9  1  0  0  0
  4  5  2  0  0  0
  5  6  1  0  0  0
  5 33  1  0  0  0
  6  7  2  0  0  0
  6 34  1  0  0  0
  7  8  1  0  0  0
  7 10  1  0  0  0
  8  9  2  0  0  0
  8 35  1  0  0  0
  9 36  1  0  0  0
 10 11  1  0  0  0
 10 37  1  0  0  0
 10 38  1  0  0  0
 11 12  1  0  0  0
 12 13  1  0  0  0
 12 39  1  0  0  0
 12 40  1  0  0  0
 13 24  1  0  0  0
 13 14  1  0  0  0
 13 17  1  0  0  0
 14 15  2  0  0  0
 14 16  1  0  0  0
 16 41  1  0  0  0
 17 18  1  0  0  0
 17 42  1  0  0  0
 18 19  2  0  0  0
 18 20  1  0  0  0
 20 25  1  0  0  0
 20 21  1  0  0  0
 20 22  1  0  0  0
 21 43  1  0  0  0
 21 44  1  0  0  0
 21 45  1  0  0  0
 22 23  1  0  0  0
 22 46  1  0  0  0
 22 47  1  0  0  0
 23 48  1  0  0  0
M  END
> <s_m_entry_id>
7196

> <s_m_entry_name>
ligand_docking-pose.71

> <s_m_Source_Path>
/home/csk/Desktop/cluster/DUD-E-result/lkha4

> <s_m_Source_File>
ligand_docking-pose.sdf

> <i_m_Source_File_Index>
71

> <i_lp_mmshare_version>
53161

> <r_lp_tautomer_probability>
1

> <s_lp_Force_Field>
OPLS_2005

> <r_lp_Energy>
1.618211

> <b_lp_Chiralities_Consistent>
1

> <s_lp_Variant>
496050-1

> <s_i_glide_gridfile>
glide-grid_3chp

> <i_i_glide_lignum>
264

> <i_i_glide_rotatable_bonds>
13

> <r_i_docking_score>
-9.80018022098164

> <r_i_glide_ligand_efficiency>
-0.426094792216593

> <r_i_glide_ligand_efficiency_sa>
-1.211756908605

> <r_i_glide_ligand_efficiency_ln>
-2.36977244055455

> <r_i_glide_gscore>
-9.80018022098164

> <r_i_glide_lipo>
-4.21897752805376

> <r_i_glide_hbond>
-0.393558295528945

> <r_i_glide_metal>
0

> <r_i_glide_rewards>
-1.81524297704172

> <r_i_glide_evdw>
-35.6431541442871

> <r_i_glide_ecoul>
-19.3381423950195

> <r_i_glide_erotb>
1.5128660246188

> <r_i_glide_esite>
-0.202388378508734

> <r_i_glide_emodel>
-87.8329582312053

> <r_i_glide_energy>
-54.9812965393066

> <r_i_glide_einternal>
7.41566801071167

> <i_i_glide_confnum>
385

> <i_i_glide_posenum>
283

> <r_i_glide_eff_state_penalty>
0

> <i_f3d_flags>
0

> <s_user_duplicate_titles>
496050

> <s_m_subgroup_title>
dock_pv

> <s_m_subgroupid>
dock_pv1

> <b_m_subgroup_collapsed>
0

$$$$
495809
                    3D
 Schrodinger Suite 2021-1.
 41 41  0  0  1  0            999 V2000
   11.0149   34.4069   74.5063 C   0  0  0  0  0  0
   10.6783   35.8123   74.3216 N   0  0  0  0  0  0
   10.9212   36.7347   75.4310 C   0  0  0  0  0  0
    9.9850   36.2235   73.1556 C   0  0  0  0  0  0
    9.3199   35.3105   72.3401 C   0  0  0  0  0  0
    8.6112   35.7480   71.2332 C   0  0  0  0  0  0
    8.5944   37.0772   70.8405 C   0  0  0  0  0  0
    9.2905   37.9956   71.6217 C   0  0  0  0  0  0
    9.9688   37.5603   72.7628 C   0  0  0  0  0  0
    7.8767   37.4199   69.5338 C   0  0  0  0  0  0
    7.7213   39.1861   69.1402 S   0  0  0  0  0  0
    9.1793   39.5458   68.1042 C   0  0  0  0  0  0
    9.1958   40.9458   67.4071 C   0  0  1  0  0  0
    8.4479   42.0675   68.1783 C   0  0  0  0  0  0
    8.9207   42.6983   69.0988 O   0  0  0  0  0  0
    7.1932   42.2160   67.6741 O   0  0  0  0  0  0
   10.5709   41.3471   67.0918 N   0  0  0  0  0  0
   10.9341   42.4010   66.3397 C   0  0  0  0  0  0
   10.1214   43.1015   65.7340 O   0  0  0  0  0  0
   12.4391   42.7072   66.2930 C   0  0  0  0  0  0
   12.9237   43.4161   64.6877 S   0  0  0  0  0  0
    8.6931   40.8298   66.4463 H   0  0  0  0  0  0
   10.1247   33.8158   74.3399 H   0  0  0  0  0  0
   11.7421   34.0848   73.7638 H   0  0  0  0  0  0
   11.3977   34.1851   75.5037 H   0  0  0  0  0  0
   11.4145   37.6496   75.1080 H   0  0  0  0  0  0
    9.9779   37.0154   75.9011 H   0  0  0  0  0  0
   11.5588   36.2876   76.1926 H   0  0  0  0  0  0
    9.3148   34.2527   72.5412 H   0  0  0  0  0  0
    8.1210   35.0166   70.6429 H   0  0  0  0  0  0
    9.3201   39.0379   71.3503 H   0  0  0  0  0  0
   10.5148   38.2586   73.3609 H   0  0  0  0  0  0
    6.8660   37.0161   69.5881 H   0  0  0  0  0  0
    8.3697   36.9121   68.7041 H   0  0  0  0  0  0
    9.2595   38.7664   67.3447 H   0  0  0  0  0  0
   10.0534   39.4160   68.7407 H   0  0  0  0  0  0
    6.6898   42.9147   68.1267 H   0  0  0  0  0  0
   11.2877   40.8079   67.5507 H   0  0  0  0  0  0
   13.0265   41.8052   66.4697 H   0  0  0  0  0  0
   12.6769   43.4159   67.0856 H   0  0  0  0  0  0
   14.2006   43.6619   64.9910 H   0  0  0  0  0  0
  1  2  1  0  0  0
  1 23  1  0  0  0
  1 24  1  0  0  0
  1 25  1  0  0  0
  2  3  1  0  0  0
  2  4  1  0  0  0
  3 26  1  0  0  0
  3 27  1  0  0  0
  3 28  1  0  0  0
  4  9  1  0  0  0
  4  5  2  0  0  0
  5  6  1  0  0  0
  5 29  1  0  0  0
  6  7  2  0  0  0
  6 30  1  0  0  0
  7  8  1  0  0  0
  7 10  1  0  0  0
  8  9  2  0  0  0
  8 31  1  0  0  0
  9 32  1  0  0  0
 10 11  1  0  0  0
 10 33  1  0  0  0
 10 34  1  0  0  0
 11 12  1  0  0  0
 12 13  1  0  0  0
 12 35  1  0  0  0
 12 36  1  0  0  0
 13 22  1  0  0  0
 13 14  1  0  0  0
 13 17  1  0  0  0
 14 15  2  0  0  0
 14 16  1  0  0  0
 16 37  1  0  0  0
 17 18  1  0  0  0
 17 38  1  0  0  0
 18 19  2  0  0  0
 18 20  1  0  0  0
 20 21  1  0  0  0
 20 39  1  0  0  0
 20 40  1  0  0  0
 21 41  1  0  0  0
M  END
> <s_m_entry_id>
7235

> <s_m_entry_name>
ligand_docking-pose.110

> <s_m_Source_Path>
/home/csk/Desktop/cluster/DUD-E-result/lkha4

> <s_m_Source_File>
ligand_docking-pose.sdf

> <i_m_Source_File_Index>
110

> <i_lp_mmshare_version>
53161

> <r_lp_tautomer_probability>
1

> <s_lp_Force_Field>
OPLS_2005

> <r_lp_Energy>
6.831292

> <b_lp_Chiralities_Consistent>
1

> <s_lp_Variant>
495809-1

> <s_i_glide_gridfile>
glide-grid_3chp

> <i_i_glide_lignum>
341

> <i_i_glide_rotatable_bonds>
11

> <r_i_docking_score>
-9.41314615246828

> <r_i_glide_ligand_efficiency>
-0.448245054879442

> <r_i_glide_ligand_efficiency_sa>
-1.23667411759515

> <r_i_glide_ligand_efficiency_ln>
-2.32738136514499

> <r_i_glide_gscore>
-9.41314615246828

> <r_i_glide_lipo>
-3.86259182231739

> <r_i_glide_hbond>
0

> <r_i_glide_metal>
0

> <r_i_glide_rewards>
-3.64585901883863

> <r_i_glide_evdw>
-43.9252128601074

> <r_i_glide_ecoul>
-7.34140968322754

> <r_i_glide_erotb>
1.39277678417724

> <r_i_glide_esite>
0

> <r_i_glide_emodel>
-72.0296637487108

> <r_i_glide_energy>
-51.266622543335

> <r_i_glide_einternal>
15.209508895874

> <i_i_glide_confnum>
128

> <i_i_glide_posenum>
106

> <r_i_glide_eff_state_penalty>
0

> <i_f3d_flags>
0

> <s_user_duplicate_titles>
495809

> <s_m_subgroup_title>
dock_pv

> <s_m_subgroupid>
dock_pv1

> <b_m_subgroup_collapsed>
0

$$$$
271385
                    3D
 Schrodinger Suite 2021-1.
 47 50  0  0  1  0            999 V2000
   11.3195   34.8193   75.0857 C   0  0  0  0  0  0
   10.4915   35.9230   75.2640 C   0  0  0  0  0  0
    9.5101   36.2035   74.3215 C   0  0  0  0  0  0
    9.3909   35.4161   73.1720 C   0  0  0  0  0  0
   10.2618   34.3392   72.9752 C   0  0  0  0  0  0
   11.2214   34.0339   73.9399 C   0  0  0  0  0  0
    8.2197   35.6428   72.2139 C   0  0  0  0  0  0
    8.3478   36.7953   71.2372 C   0  0  0  0  0  0
    8.9689   37.9729   71.6238 C   0  0  0  0  0  0
    9.1799   38.9647   70.6916 C   0  0  0  0  0  0
    8.7839   38.8061   69.3677 C   0  0  0  0  0  0
    8.0688   37.6735   68.9981 C   0  0  0  0  0  0
    7.8494   36.6809   69.9396 C   0  0  0  0  0  0
    9.2370   39.8164   68.3370 C   0  0  2  0  0  0
    8.7115   41.2647   68.3312 C   0  0  0  0  0  0
    8.9012   41.2921   66.8045 C   0  0  2  0  0  0
    8.7565   39.7604   66.8681 C   0  0  0  0  0  0
   10.1288   41.8355   66.2006 N   0  0  0  0  0  0
   10.3977   43.2324   66.4651 C   0  0  0  0  0  0
   11.7421   43.4942   65.7791 C   0  0  0  0  0  0
   12.4407   42.1348   65.7541 C   0  0  0  0  0  0
   11.4214   41.1928   66.3878 C   0  0  0  0  0  0
   12.0454   34.5728   75.8451 H   0  0  0  0  0  0
   10.5735   36.5275   76.1552 H   0  0  0  0  0  0
    8.8246   37.0163   74.5024 H   0  0  0  0  0  0
   10.1643   33.7084   72.1034 H   0  0  0  0  0  0
   11.8659   33.1755   73.8143 H   0  0  0  0  0  0
    8.0302   34.7193   71.6639 H   0  0  0  0  0  0
    7.3224   35.8345   72.7954 H   0  0  0  0  0  0
    9.3333   38.1262   72.6256 H   0  0  0  0  0  0
    9.7193   39.8162   71.0233 H   0  0  0  0  0  0
    7.7366   37.5187   67.9831 H   0  0  0  0  0  0
    7.3211   35.8148   69.6225 H   0  0  0  0  0  0
   10.3212   39.8146   68.3316 H   0  0  0  0  0  0
    7.6609   41.3187   68.6288 H   0  0  0  0  0  0
    9.2553   42.0041   68.9179 H   0  0  0  0  0  0
    8.0939   41.8093   66.2861 H   0  0  0  0  0  0
    9.3476   39.1695   66.1669 H   0  0  0  0  0  0
    7.7309   39.4069   66.7892 H   0  0  0  0  0  0
    9.5823   43.8405   66.0708 H   0  0  0  0  0  0
   10.4094   43.4163   67.5395 H   0  0  0  0  0  0
   11.5989   43.8930   64.7745 H   0  0  0  0  0  0
   12.3307   44.2160   66.3384 H   0  0  0  0  0  0
   13.3664   42.1472   66.3303 H   0  0  0  0  0  0
   12.6898   41.8254   64.7399 H   0  0  0  0  0  0
   11.6444   41.0218   67.4346 H   0  0  0  0  0  0
   11.4095   40.2057   65.9278 H   0  0  0  0  0  0
  1  6  1  0  0  0
  1  2  2  0  0  0
  1 23  1  0  0  0
  2  3  1  0  0  0
  2 24  1  0  0  0
  3  4  2  0  0  0
  3 25  1  0  0  0
  4  5  1  0  0  0
  4  7  1  0  0  0
  5  6  2  0  0  0
  5 26  1  0  0  0
  6 27  1  0  0  0
  7  8  1  0  0  0
  7 28  1  0  0  0
  7 29  1  0  0  0
  8 13  1  0  0  0
  8  9  2  0  0  0
  9 10  1  0  0  0
  9 30  1  0  0  0
 10 11  2  0  0  0
 10 31  1  0  0  0
 11 12  1  0  0  0
 11 14  1  0  0  0
 12 13  2  0  0  0
 12 32  1  0  0  0
 13 33  1  0  0  0
 14 17  1  0  0  0
 14 15  1  0  0  0
 14 34  1  0  0  0
 15 16  1  0  0  0
 15 35  1  0  0  0
 15 36  1  0  0  0
 16 17  1  0  0  0
 16 18  1  0  0  0
 16 37  1  0  0  0
 17 38  1  0  0  0
 17 39  1  0  0  0
 18 22  1  0  0  0
 18 19  1  0  0  0
 19 20  1  0  0  0
 19 40  1  0  0  0
 19 41  1  0  0  0
 20 21  1  0  0  0
 20 42  1  0  0  0
 20 43  1  0  0  0
 21 22  1  0  0  0
 21 44  1  0  0  0
 21 45  1  0  0  0
 22 46  1  0  0  0
 22 47  1  0  0  0
M  END
> <s_m_entry_id>
7261

> <s_m_entry_name>
ligand_docking-pose.136

> <s_m_Source_Path>
/home/csk/Desktop/cluster/DUD-E-result/lkha4

> <s_m_Source_File>
ligand_docking-pose.sdf

> <i_m_Source_File_Index>
136

> <i_lp_mmshare_version>
53161

> <r_lp_tautomer_probability>
1

> <s_lp_Force_Field>
OPLS_2005

> <r_lp_Energy>
40.761567

> <b_lp_Chiralities_Consistent>
1

> <s_lp_Variant>
271385-2

> <s_i_glide_gridfile>
glide-grid_3chp

> <i_i_glide_lignum>
53

> <i_i_glide_rotatable_bonds>
4

> <r_i_docking_score>
-9.21792404869421

> <r_i_glide_ligand_efficiency>
-0.418996547667919

> <r_i_glide_ligand_efficiency_sa>
-1.17404480476466

> <r_i_glide_ligand_efficiency_ln>
-2.25319686945005

> <r_i_glide_gscore>
-9.21792404869421

> <r_i_glide_lipo>
-5.72298934843244

> <r_i_glide_hbond>
0

> <r_i_glide_metal>
0

> <r_i_glide_rewards>
-2.32206886363636

> <r_i_glide_evdw>
-36.6887054443359

> <r_i_glide_ecoul>
-1.31679463386536

> <r_i_glide_erotb>
0.859088630671194

> <r_i_glide_esite>
0

> <r_i_glide_emodel>
-44.676350052974

> <r_i_glide_energy>
-38.0055000782013

> <r_i_glide_einternal>
12.6674394607544

> <i_i_glide_confnum>
41

> <i_i_glide_posenum>
370

> <r_i_glide_eff_state_penalty>
0

> <i_f3d_flags>
0

> <s_user_duplicate_titles>
271385

> <s_m_subgroup_title>
dock_pv

> <s_m_subgroupid>
dock_pv1

> <b_m_subgroup_collapsed>
0

$$$$
466739
                    3D
 Schrodinger Suite 2021-1.
 62 66  0  0  1  0            999 V2000
   11.6153   33.8159   74.3400 C   0  0  0  0  0  0
   10.9210   33.5251   73.1677 C   0  0  0  0  0  0
    9.9536   34.4064   72.7077 C   0  0  0  0  0  0
    9.6437   35.5505   73.4467 C   0  0  0  0  0  0
   10.3429   35.8358   74.6231 C   0  0  0  0  0  0
   11.3210   34.9595   75.0757 C   0  0  0  0  0  0
    8.4388   36.4027   73.0754 C   0  0  0  0  0  0
    8.4425   37.0753   71.7177 C   0  0  0  0  0  0
    8.5600   38.4492   71.6614 C   0  0  0  0  0  0
    8.5210   39.1066   70.4494 C   0  0  0  0  0  0
    8.2996   38.4049   69.2626 C   0  0  0  0  0  0
    8.1210   37.0253   69.3207 C   0  0  0  0  0  0
    8.2117   36.3647   70.5446 C   0  0  0  0  0  0
    8.2409   39.0374   68.0113 N   0  0  0  0  0  0
    8.7705   40.3910   67.8553 C   0  0  2  0  0  0
    8.0755   41.1550   66.7400 C   0  0  0  0  0  0
    8.9262   42.3543   66.1663 C   0  0  1  0  0  0
    8.9774   43.4160   67.2439 C   0  0  0  0  0  0
   10.1630   42.9336   68.1059 C   0  0  0  0  0  0
   10.7947   41.7733   67.2891 C   0  0  1  0  0  0
   10.2679   40.3429   67.5606 C   0  0  0  0  0  0
   10.3534   42.0483   65.9400 N   0  0  2  0  0  0
   11.1003   43.1247   65.2312 C   0  0  0  0  0  0
   12.6317   43.0097   65.2053 C   0  0  0  0  0  0
   13.3723   43.4160   66.3150 C   0  0  0  0  0  0
   14.7601   43.4160   66.2918 C   0  0  0  0  0  0
   15.4216   42.9119   65.1774 C   0  0  0  0  0  0
   14.6943   42.5288   64.0528 C   0  0  0  0  0  0
   13.3203   42.6026   64.0615 C   0  0  0  0  0  0
   16.9064   42.8296   65.1388 C   0  0  0  0  0  0
   17.6521   43.5787   65.7653 O   0  0  0  0  0  0
   17.3279   41.8160   64.3401 O   0  0  0  0  0  0
    8.5210   42.7420   65.2412 H   0  0  0  0  0  0
   11.8719   41.7465   67.3361 H   0  0  0  0  0  0
   12.3646   33.1256   74.6999 H   0  0  0  0  0  0
   11.1355   32.6180   72.6214 H   0  0  0  0  0  0
    9.3985   34.1456   71.8217 H   0  0  0  0  0  0
   10.0997   36.7070   75.2151 H   0  0  0  0  0  0
   11.8503   35.1613   75.9927 H   0  0  0  0  0  0
    8.3240   37.1630   73.8434 H   0  0  0  0  0  0
    7.5301   35.8160   73.1373 H   0  0  0  0  0  0
    8.6670   39.0157   72.5677 H   0  0  0  0  0  0
    8.6150   40.1750   70.4974 H   0  0  0  0  0  0
    7.9444   36.4584   68.4194 H   0  0  0  0  0  0
    8.1210   35.2995   70.5879 H   0  0  0  0  0  0
    8.3290   38.4344   67.2060 H   0  0  0  0  0  0
    8.5758   40.9699   68.7486 H   0  0  0  0  0  0
    7.1587   41.5783   67.1492 H   0  0  0  0  0  0
    7.7210   40.4392   66.0069 H   0  0  0  0  0  0
    8.0526   43.5223   67.8142 H   0  0  0  0  0  0
    9.1336   44.3660   66.7400 H   0  0  0  0  0  0
    9.8075   42.6433   69.0933 H   0  0  0  0  0  0
   10.9199   43.6935   68.2578 H   0  0  0  0  0  0
   10.4471   39.7151   66.6849 H   0  0  0  0  0  0
   10.8195   39.8465   68.3400 H   0  0  0  0  0  0
   10.8904   44.1069   65.6497 H   0  0  0  0  0  0
   10.7372   43.1773   64.2068 H   0  0  0  0  0  0
   12.8725   43.8008   67.1875 H   0  0  0  0  0  0
   15.3115   43.7900   67.1401 H   0  0  0  0  0  0
   15.1838   42.2160   63.1401 H   0  0  0  0  0  0
   12.8212   42.3314   63.1505 H   0  0  0  0  0  0
   18.1970   42.0863   64.0119 H   0  0  0  0  0  0
  1  6  1  0  0  0
  1  2  2  0  0  0
  1 35  1  0  0  0
  2  3  1  0  0  0
  2 36  1  0  0  0
  3  4  2  0  0  0
  3 37  1  0  0  0
  4  5  1  0  0  0
  4  7  1  0  0  0
  5  6  2  0  0  0
  5 38  1  0  0  0
  6 39  1  0  0  0
  7  8  1  0  0  0
  7 40  1  0  0  0
  7 41  1  0  0  0
  8 13  1  0  0  0
  8  9  2  0  0  0
  9 10  1  0  0  0
  9 42  1  0  0  0
 10 11  2  0  0  0
 10 43  1  0  0  0
 11 12  1  0  0  0
 11 14  1  0  0  0
 12 13  2  0  0  0
 12 44  1  0  0  0
 13 45  1  0  0  0
 14 15  1  0  0  0
 14 46  1  0  0  0
 15 21  1  0  0  0
 15 16  1  0  0  0
 15 47  1  0  0  0
 16 17  1  0  0  0
 16 48  1  0  0  0
 16 49  1  0  0  0
 17 33  1  0  0  0
 17 22  1  0  0  0
 17 18  1  0  0  0
 18 19  1  0  0  0
 18 50  1  0  0  0
 18 51  1  0  0  0
 19 20  1  0  0  0
 19 52  1  0  0  0
 19 53  1  0  0  0
 20 34  1  0  0  0
 20 21  1  0  0  0
 20 22  1  0  0  0
 21 54  1  0  0  0
 21 55  1  0  0  0
 22 23  1  0  0  0
 23 24  1  0  0  0
 23 56  1  0  0  0
 23 57  1  0  0  0
 24 29  1  0  0  0
 24 25  2  0  0  0
 25 26  1  0  0  0
 25 58  1  0  0  0
 26 27  2  0  0  0
 26 59  1  0  0  0
 27 28  1  0  0  0
 27 30  1  0  0  0
 28 29  2  0  0  0
 28 60  1  0  0  0
 29 61  1  0  0  0
 30 31  2  0  0  0
 30 32  1  0  0  0
 32 62  1  0  0  0
M  END
> <s_m_entry_id>
7305

> <s_m_entry_name>
ligand_docking-pose.180

> <s_m_Source_Path>
/home/csk/Desktop/cluster/DUD-E-result/lkha4

> <s_m_Source_File>
ligand_docking-pose.sdf

> <i_m_Source_File_Index>
180

> <i_lp_mmshare_version>
53161

> <r_lp_tautomer_probability>
1

> <s_lp_Force_Field>
OPLS_2005

> <r_lp_Energy>
57.561944

> <b_lp_Chiralities_Consistent>
1

> <s_lp_Variant>
466739-1

> <s_i_glide_gridfile>
glide-grid_3chp

> <i_i_glide_lignum>
61

> <i_i_glide_rotatable_bonds>
8

> <r_i_docking_score>
-8.81919534863692

> <r_i_glide_ligand_efficiency>
-0.275599854644904

> <r_i_glide_ligand_efficiency_sa>
-0.874974997360395

> <r_i_glide_ligand_efficiency_ln>
-1.97485824074546

> <r_i_glide_gscore>
-8.81919534863692

> <r_i_glide_lipo>
-5.46004879743969

> <r_i_glide_hbond>
0

> <r_i_glide_metal>
0

> <r_i_glide_rewards>
-1.39960367322586

> <r_i_glide_evdw>
-32.2249221801758

> <r_i_glide_ecoul>
-6.74584531784058

> <r_i_glide_erotb>
0.763580028713502

> <r_i_glide_esite>
-0.1

> <r_i_glide_emodel>
-55.9857894910717

> <r_i_glide_energy>
-38.9707674980164

> <r_i_glide_einternal>
10.8242607116699

> <i_i_glide_confnum>
6

> <i_i_glide_posenum>
76

> <r_i_glide_eff_state_penalty>
0

> <i_f3d_flags>
0

> <s_user_duplicate_titles>
466739

> <s_m_subgroup_title>
dock_pv

> <s_m_subgroupid>
dock_pv1

> <b_m_subgroup_collapsed>
0

$$$$
466740
                    3D
 Schrodinger Suite 2021-1.
 61 65  0  0  1  0            999 V2000
   11.5515   43.4127   65.9731 C   0  0  0  0  0  0
   10.4405   43.0168   66.7236 C   0  0  0  0  0  0
   10.1710   41.6758   66.9654 C   0  0  0  0  0  0
   11.0286   40.7430   66.3864 C   0  0  0  0  0  0
   12.2245   41.1239   65.7660 C   0  0  0  0  0  0
   12.4646   42.4684   65.5070 C   0  0  0  0  0  0
   13.5899   42.8732   64.5535 C   0  0  0  0  0  0
   14.9887   42.9652   65.1511 C   0  0  0  0  0  0
   16.0829   42.3750   64.5076 C   0  0  0  0  0  0
   17.3572   42.5625   65.0485 C   0  0  0  0  0  0
   17.5864   43.2631   66.1868 N   0  0  0  0  0  0
   16.5169   43.8253   66.8009 C   0  0  0  0  0  0
   15.2135   43.7037   66.3159 C   0  0  0  0  0  0
    9.0592   41.3739   67.7885 N   0  0  0  0  0  0
    8.4744   40.0544   68.0829 C   0  0  2  0  0  0
    7.4057   40.2107   69.1816 C   0  0  0  0  0  0
    7.0623   38.8610   69.9154 C   0  0  1  0  0  0
    6.6548   37.7140   68.9305 C   0  0  0  0  0  0
    7.9553   37.0081   68.6084 C   0  0  0  0  0  0
    8.9234   37.8612   69.4244 C   0  0  1  0  0  0
    9.4843   39.0061   68.5586 C   0  0  0  0  0  0
    8.2363   38.3601   70.5917 N   0  0  2  0  0  0
    7.8464   37.2652   71.5119 C   0  0  0  0  0  0
    8.9655   36.5184   72.1879 C   0  0  0  0  0  0
    9.1810   35.1609   71.9250 C   0  0  0  0  0  0
   10.1171   34.4447   72.6569 C   0  0  0  0  0  0
   10.7333   35.0709   73.7333 C   0  0  0  0  0  0
   10.5342   36.4346   73.9756 C   0  0  0  0  0  0
    9.6995   37.1671   73.1548 C   0  0  0  0  0  0
   11.5689   34.2746   74.6698 C   0  0  0  0  0  0
   12.3666   33.4097   74.3392 O   0  0  0  0  0  0
   11.3219   34.6153   75.9397 O   0  0  0  0  0  0
    6.3582   39.0110   70.7387 H   0  0  0  0  0  0
    9.7205   37.3504   69.9149 H   0  0  0  0  0  0
   11.7065   44.4584   65.7571 H   0  0  0  0  0  0
    9.7754   43.7744   67.1138 H   0  0  0  0  0  0
   10.7952   39.7030   66.3865 H   0  0  0  0  0  0
   12.8780   40.3673   65.3542 H   0  0  0  0  0  0
   13.6041   42.1729   63.7172 H   0  0  0  0  0  0
   13.3594   43.8397   64.0990 H   0  0  0  0  0  0
   15.9540   41.8630   63.5622 H   0  0  0  0  0  0
   18.2327   42.2110   64.5217 H   0  0  0  0  0  0
   16.7156   44.3822   67.7038 H   0  0  0  0  0  0
   14.3907   44.1806   66.8275 H   0  0  0  0  0  0
    8.3710   42.1164   67.7830 H   0  0  0  0  0  0
    8.0462   39.6948   67.1486 H   0  0  0  0  0  0
    6.5220   40.6637   68.7529 H   0  0  0  0  0  0
    7.7566   40.9257   69.9298 H   0  0  0  0  0  0
    6.1525   38.0423   68.0150 H   0  0  0  0  0  0
    5.9896   37.0399   69.4916 H   0  0  0  0  0  0
    8.1782   37.0217   67.5395 H   0  0  0  0  0  0
    7.9412   35.9752   68.9527 H   0  0  0  0  0  0
   10.3048   39.4158   69.1083 H   0  0  0  0  0  0
    9.8221   38.5105   67.6671 H   0  0  0  0  0  0
    7.3209   36.4828   70.9900 H   0  0  0  0  0  0
    7.1741   37.6416   72.2834 H   0  0  0  0  0  0
    8.6059   34.6500   71.1667 H   0  0  0  0  0  0
   10.2673   33.3923   72.4568 H   0  0  0  0  0  0
   11.0181   36.9382   74.8009 H   0  0  0  0  0  0
    9.5404   38.2146   73.3320 H   0  0  0  0  0  0
   11.7372   33.9846   76.5340 H   0  0  0  0  0  0
  1  6  1  0  0  0
  1  2  2  0  0  0
  1 35  1  0  0  0
  2  3  1  0  0  0
  2 36  1  0  0  0
  3  4  2  0  0  0
  3 14  1  0  0  0
  4  5  1  0  0  0
  4 37  1  0  0  0
  5  6  2  0  0  0
  5 38  1  0  0  0
  6  7  1  0  0  0
  7  8  1  0  0  0
  7 39  1  0  0  0
  7 40  1  0  0  0
  8 13  1  0  0  0
  8  9  2  0  0  0
  9 10  1  0  0  0
  9 41  1  0  0  0
 10 11  2  0  0  0
 10 42  1  0  0  0
 11 12  1  0  0  0
 12 13  2  0  0  0
 12 43  1  0  0  0
 13 44  1  0  0  0
 14 15  1  0  0  0
 14 45  1  0  0  0
 15 21  1  0  0  0
 15 16  1  0  0  0
 15 46  1  0  0  0
 16 17  1  0  0  0
 16 47  1  0  0  0
 16 48  1  0  0  0
 17 33  1  0  0  0
 17 22  1  0  0  0
 17 18  1  0  0  0
 18 19  1  0  0  0
 18 49  1  0  0  0
 18 50  1  0  0  0
 19 20  1  0  0  0
 19 51  1  0  0  0
 19 52  1  0  0  0
 20 34  1  0  0  0
 20 21  1  0  0  0
 20 22  1  0  0  0
 21 53  1  0  0  0
 21 54  1  0  0  0
 22 23  1  0  0  0
 23 24  1  0  0  0
 23 55  1  0  0  0
 23 56  1  0  0  0
 24 29  1  0  0  0
 24 25  2  0  0  0
 25 26  1  0  0  0
 25 57  1  0  0  0
 26 27  2  0  0  0
 26 58  1  0  0  0
 27 28  1  0  0  0
 27 30  1  0  0  0
 28 29  2  0  0  0
 28 59  1  0  0  0
 29 60  1  0  0  0
 30 31  2  0  0  0
 30 32  1  0  0  0
 32 61  1  0  0  0
M  END
> <s_m_entry_id>
7320

> <s_m_entry_name>
ligand_docking-pose.195

> <s_m_Source_Path>
/home/csk/Desktop/cluster/DUD-E-result/lkha4

> <s_m_Source_File>
ligand_docking-pose.sdf

> <i_m_Source_File_Index>
195

> <i_lp_mmshare_version>
53161

> <r_lp_tautomer_probability>
1

> <s_lp_Force_Field>
OPLS_2005

> <r_lp_Energy>
55.380217

> <b_lp_Chiralities_Consistent>
1

> <s_lp_Variant>
466740-1

> <s_i_glide_gridfile>
glide-grid_3chp

> <i_i_glide_lignum>
126

> <i_i_glide_rotatable_bonds>
8

> <r_i_docking_score>
-8.6774998831829

> <r_i_glide_ligand_efficiency>
-0.271171871349466

> <r_i_glide_ligand_efficiency_sa>
-0.860917026694084

> <r_i_glide_ligand_efficiency_ln>
-1.9431287635578

> <r_i_glide_gscore>
-8.6774998831829

> <r_i_glide_lipo>
-5.63147512244014

> <r_i_glide_hbond>
0

> <r_i_glide_metal>
0

> <r_i_glide_rewards>
-1.39404840371565

> <r_i_glide_evdw>
-21.9861965179443

> <r_i_glide_ecoul>
-8.75370025634766

> <r_i_glide_erotb>
0.760388507322243

> <r_i_glide_esite>
0

> <r_i_glide_emodel>
-73.382209504084

> <r_i_glide_energy>
-30.739896774292

> <r_i_glide_einternal>
6.0946249961853

> <i_i_glide_confnum>
20

> <i_i_glide_posenum>
262

> <r_i_glide_eff_state_penalty>
0

> <i_f3d_flags>
0

> <s_user_duplicate_titles>
466740

> <s_m_subgroup_title>
dock_pv

> <s_m_subgroupid>
dock_pv1

> <b_m_subgroup_collapsed>
0

$$$$
467522
                    3D
 Schrodinger Suite 2021-1.
 60 64  0  0  1  0            999 V2000
    9.0154   37.7842   72.4325 C   0  0  0  0  0  0
    8.9817   36.4345   72.1078 C   0  0  0  0  0  0
    8.5210   36.0570   70.8538 C   0  0  0  0  0  0
    8.1015   37.0250   69.9432 C   0  0  0  0  0  0
    8.0362   38.3605   70.2969 C   0  0  0  0  0  0
    8.5210   38.7364   71.5400 C   0  0  0  0  0  0
    7.4253   39.2581   69.4552 O   0  0  0  0  0  0
    8.1793   40.1209   68.7110 C   0  0  0  0  0  0
    8.9211   39.6831   67.6133 C   0  0  0  0  0  0
    9.6509   40.5959   66.8650 C   0  0  0  0  0  0
    9.6775   41.9435   67.2334 C   0  0  0  0  0  0
    8.8731   42.3795   68.2830 C   0  0  0  0  0  0
    8.1209   41.4739   69.0155 C   0  0  0  0  0  0
   10.5003   42.9007   66.6228 N   0  0  0  0  0  0
   11.5514   42.5815   65.6554 C   0  0  2  0  0  0
   12.5747   41.5867   66.2218 C   0  0  0  0  0  0
   13.9382   41.5006   65.5071 C   0  0  1  0  0  0
   13.7488   41.2070   64.0573 C   0  0  0  0  0  0
   13.5435   42.6241   63.5378 C   0  0  0  0  0  0
   13.7210   43.5766   64.7029 C   0  0  1  0  0  0
   12.3525   43.8402   65.3791 C   0  0  0  0  0  0
   14.6120   42.8135   65.5821 N   0  0  2  0  0  0
   15.9973   42.7743   65.0515 C   0  0  0  0  0  0
   17.1240   43.1704   65.9939 C   0  0  0  0  0  0
   18.4188   42.8164   65.6178 C   0  0  0  0  0  0
   19.5058   43.1459   66.4155 C   0  0  0  0  0  0
   19.3120   43.8433   67.6158 C   0  0  0  0  0  0
   18.0101   44.2316   67.9732 C   0  0  0  0  0  0
   16.9223   43.9053   67.1628 C   0  0  0  0  0  0
   20.4804   44.2046   68.5020 C   0  0  0  0  0  0
   20.3821   45.0160   69.4203 O   0  0  0  0  0  0
   21.6496   43.5666   68.2140 O   0  0  0  0  0  0
    7.7210   36.6159   68.3400 Cl  0  0  0  0  0  0
   14.5185   40.6930   65.9399 H   0  0  0  0  0  0
   14.1210   44.5416   64.4007 H   0  0  0  0  0  0
    9.4083   38.0811   73.3903 H   0  0  0  0  0  0
    9.3337   35.6917   72.8090 H   0  0  0  0  0  0
    8.5210   35.0161   70.5822 H   0  0  0  0  0  0
    8.5209   39.7793   71.8121 H   0  0  0  0  0  0
    8.9395   38.6467   67.3226 H   0  0  0  0  0  0
   10.1837   40.2318   66.0020 H   0  0  0  0  0  0
    8.8438   43.4160   68.5637 H   0  0  0  0  0  0
    7.5068   41.8160   69.8331 H   0  0  0  0  0  0
   10.0577   43.8032   66.5193 H   0  0  0  0  0  0
   11.0671   42.2160   64.7559 H   0  0  0  0  0  0
   12.1657   40.6160   66.3889 H   0  0  0  0  0  0
   12.8487   42.0145   67.1400 H   0  0  0  0  0  0
   12.9273   40.5015   63.9399 H   0  0  0  0  0  0
   14.6282   40.7453   63.6101 H   0  0  0  0  0  0
   12.5469   42.7328   63.1400 H   0  0  0  0  0  0
   14.2487   42.8465   62.7401 H   0  0  0  0  0  0
   12.5463   44.3076   66.3380 H   0  0  0  0  0  0
   11.7672   44.5391   64.7828 H   0  0  0  0  0  0
   16.1090   43.4160   64.1841 H   0  0  0  0  0  0
   16.2386   41.7826   64.6747 H   0  0  0  0  0  0
   18.5933   42.2913   64.6897 H   0  0  0  0  0  0
   20.4857   42.8546   66.0645 H   0  0  0  0  0  0
   17.8257   44.7792   68.8873 H   0  0  0  0  0  0
   15.9276   44.2154   67.4513 H   0  0  0  0  0  0
   21.5343   42.8933   67.5423 H   0  0  0  0  0  0
  1  6  1  0  0  0
  1  2  2  0  0  0
  1 36  1  0  0  0
  2  3  1  0  0  0
  2 37  1  0  0  0
  3  4  2  0  0  0
  3 38  1  0  0  0
  4  5  1  0  0  0
  4 33  1  0  0  0
  5  6  2  0  0  0
  5  7  1  0  0  0
  6 39  1  0  0  0
  7  8  1  0  0  0
  8 13  1  0  0  0
  8  9  2  0  0  0
  9 10  1  0  0  0
  9 40  1  0  0  0
 10 11  2  0  0  0
 10 41  1  0  0  0
 11 12  1  0  0  0
 11 14  1  0  0  0
 12 13  2  0  0  0
 12 42  1  0  0  0
 13 43  1  0  0  0
 14 15  1  0  0  0
 14 44  1  0  0  0
 15 21  1  0  0  0
 15 16  1  0  0  0
 15 45  1  0  0  0
 16 17  1  0  0  0
 16 46  1  0  0  0
 16 47  1  0  0  0
 17 34  1  0  0  0
 17 22  1  0  0  0
 17 18  1  0  0  0
 18 19  1  0  0  0
 18 48  1  0  0  0
 18 49  1  0  0  0
 19 20  1  0  0  0
 19 50  1  0  0  0
 19 51  1  0  0  0
 20 35  1  0  0  0
 20 21  1  0  0  0
 20 22  1  0  0  0
 21 52  1  0  0  0
 21 53  1  0  0  0
 22 23  1  0  0  0
 23 24  1  0  0  0
 23 54  1  0  0  0
 23 55  1  0  0  0
 24 29  1  0  0  0
 24 25  2  0  0  0
 25 26  1  0  0  0
 25 56  1  0  0  0
 26 27  2  0  0  0
 26 57  1  0  0  0
 27 28  1  0  0  0
 27 30  1  0  0  0
 28 29  2  0  0  0
 28 58  1  0  0  0
 29 59  1  0  0  0
 30 31  2  0  0  0
 30 32  1  0  0  0
 32 60  1  0  0  0
M  END
> <s_m_entry_id>
7327

> <s_m_entry_name>
ligand_docking-pose.202

> <s_m_Source_Path>
/home/csk/Desktop/cluster/DUD-E-result/lkha4

> <s_m_Source_File>
ligand_docking-pose.sdf

> <i_m_Source_File_Index>
202

> <i_lp_mmshare_version>
53161

> <r_lp_tautomer_probability>
1

> <s_lp_Force_Field>
OPLS_2005

> <r_lp_Energy>
59.899064

> <b_lp_Chiralities_Consistent>
1

> <s_lp_Variant>
467522-1

> <s_i_glide_gridfile>
glide-grid_3chp

> <i_i_glide_lignum>
203

> <i_i_glide_rotatable_bonds>
8

> <r_i_docking_score>
-8.61158297706647

> <r_i_glide_ligand_efficiency>
-0.260957059911105

> <r_i_glide_ligand_efficiency_sa>
-0.837028727344088

> <r_i_glide_ligand_efficiency_ln>
-1.91517146570925

> <r_i_glide_gscore>
-8.61158297706647

> <r_i_glide_lipo>
-5.25916926124294

> <r_i_glide_hbond>
-0.110178375402888

> <r_i_glide_metal>
0

> <r_i_glide_rewards>
-0.857678913226365

> <r_i_glide_evdw>
-34.3863296508789

> <r_i_glide_ecoul>
-8.43402767181396

> <r_i_glide_erotb>
0.658006462313177

> <r_i_glide_esite>
-0.0581422561914128

> <r_i_glide_emodel>
-50.7267915783609

> <r_i_glide_energy>
-42.8203573226929

> <r_i_glide_einternal>
13.7057704925537

> <i_i_glide_confnum>
43

> <i_i_glide_posenum>
258

> <r_i_glide_eff_state_penalty>
0

> <i_f3d_flags>
0

> <s_user_duplicate_titles>
467522

> <s_m_subgroup_title>
dock_pv

> <s_m_subgroupid>
dock_pv1

> <b_m_subgroup_collapsed>
0

$$$$
496262
                    3D
 Schrodinger Suite 2021-1.
 54 54  0  0  1  0            999 V2000
   13.9005   43.4206   66.3571 C   0  0  0  0  0  0
   13.1286   42.1519   65.9399 C   0  0  2  0  0  0
   13.6010   41.5981   64.5599 C   0  0  0  0  0  0
   15.4093   41.4551   64.3400 S   0  0  0  0  0  0
   11.6033   42.4353   65.9401 C   0  0  0  0  0  0
   11.1377   43.2604   65.1506 O   0  0  0  0  0  0
   10.8305   41.7282   66.7884 N   0  0  0  0  0  0
    9.3582   41.6699   66.7576 C   0  0  1  0  0  0
    8.8696   40.1956   66.7202 C   0  0  0  0  0  0
    9.3210   39.1129   68.0832 S   0  0  0  0  0  0
    7.9220   38.5518   68.9771 C   0  0  0  0  0  0
    7.3211   39.8838   69.3308 C   0  0  0  0  0  0
    7.0069   37.7252   68.0660 C   0  0  0  0  0  0
    8.3895   37.7519   70.2292 C   0  0  0  0  0  0
    9.1276   38.3835   71.2310 C   0  0  0  0  0  0
    9.5704   37.6882   72.3552 C   0  0  0  0  0  0
    9.2782   36.3343   72.5274 C   0  0  0  0  0  0
    8.5283   35.6968   71.5400 C   0  0  0  0  0  0
    8.1187   36.3862   70.4017 C   0  0  0  0  0  0
    9.7845   35.5257   73.7399 C   0  0  0  0  0  0
   10.5071   36.3381   74.8329 C   0  0  0  0  0  0
   10.6135   34.3107   73.2931 C   0  0  0  0  0  0
    8.6464   42.4940   67.8544 C   0  0  0  0  0  0
    9.1792   42.9367   68.8471 O   0  0  0  0  0  0
    7.3230   42.6161   67.5391 O   0  0  0  0  0  0
   13.3210   41.3805   66.6860 H   0  0  0  0  0  0
    9.0388   42.1410   65.8265 H   0  0  0  0  0  0
   13.5212   43.8157   67.2982 H   0  0  0  0  0  0
   14.9626   43.2301   66.5053 H   0  0  0  0  0  0
   13.8071   44.2125   65.6110 H   0  0  0  0  0  0
   13.2438   42.2332   63.7468 H   0  0  0  0  0  0
   13.1843   40.6041   64.3921 H   0  0  0  0  0  0
   15.3362   41.4141   62.9930 H   0  0  0  0  0  0
   11.2594   41.0883   67.4392 H   0  0  0  0  0  0
    7.8301   40.1141   66.4336 H   0  0  0  0  0  0
    9.4099   39.6905   65.9315 H   0  0  0  0  0  0
    6.5210   39.6417   69.9401 H   0  0  0  0  0  0
    7.9708   40.5575   69.8920 H   0  0  0  0  0  0
    6.8947   40.4197   68.4942 H   0  0  0  0  0  0
    6.0988   37.4161   68.5781 H   0  0  0  0  0  0
    6.7320   38.2160   67.1414 H   0  0  0  0  0  0
    7.5350   36.8272   67.7739 H   0  0  0  0  0  0
    9.3751   39.4275   71.1398 H   0  0  0  0  0  0
   10.1432   38.2159   73.0981 H   0  0  0  0  0  0
    8.2802   34.6488   71.6302 H   0  0  0  0  0  0
    7.5670   35.8165   69.6731 H   0  0  0  0  0  0
    8.9210   35.1239   74.2498 H   0  0  0  0  0  0
    9.8150   37.0159   75.3297 H   0  0  0  0  0  0
   10.9195   35.6915   75.6089 H   0  0  0  0  0  0
   11.3210   36.9316   74.4289 H   0  0  0  0  0  0
    9.9891   33.5354   72.8498 H   0  0  0  0  0  0
   11.3208   34.6157   72.5324 H   0  0  0  0  0  0
   11.1606   33.8492   74.1162 H   0  0  0  0  0  0
    6.7921   43.1899   68.1239 H   0  0  0  0  0  0
  1  2  1  0  0  0
  1 28  1  0  0  0
  1 29  1  0  0  0
  1 30  1  0  0  0
  2 26  1  0  0  0
  2  3  1  0  0  0
  2  5  1  0  0  0
  3  4  1  0  0  0
  3 31  1  0  0  0
  3 32  1  0  0  0
  4 33  1  0  0  0
  5  6  2  0  0  0
  5  7  1  0  0  0
  7  8  1  0  0  0
  7 34  1  0  0  0
  8 27  1  0  0  0
  8  9  1  0  0  0
  8 23  1  0  0  0
  9 10  1  0  0  0
  9 35  1  0  0  0
  9 36  1  0  0  0
 10 11  1  0  0  0
 11 12  1  0  0  0
 11 13  1  0  0  0
 11 14  1  0  0  0
 12 37  1  0  0  0
 12 38  1  0  0  0
 12 39  1  0  0  0
 13 40  1  0  0  0
 13 41  1  0  0  0
 13 42  1  0  0  0
 14 19  1  0  0  0
 14 15  2  0  0  0
 15 16  1  0  0  0
 15 43  1  0  0  0
 16 17  2  0  0  0
 16 44  1  0  0  0
 17 18  1  0  0  0
 17 20  1  0  0  0
 18 19  2  0  0  0
 18 45  1  0  0  0
 19 46  1  0  0  0
 20 21  1  0  0  0
 20 22  1  0  0  0
 20 47  1  0  0  0
 21 48  1  0  0  0
 21 49  1  0  0  0
 21 50  1  0  0  0
 22 51  1  0  0  0
 22 52  1  0  0  0
 22 53  1  0  0  0
 23 24  2  0  0  0
 23 25  1  0  0  0
 25 54  1  0  0  0
M  END
> <s_m_entry_id>
7329

> <s_m_entry_name>
ligand_docking-pose.204

> <s_m_Source_Path>
/home/csk/Desktop/cluster/DUD-E-result/lkha4

> <s_m_Source_File>
ligand_docking-pose.sdf

> <i_m_Source_File_Index>
204

> <i_lp_mmshare_version>
53161

> <r_lp_tautomer_probability>
1

> <s_lp_Force_Field>
OPLS_2005

> <r_lp_Energy>
7.739911

> <b_lp_Chiralities_Consistent>
1

> <s_lp_Variant>
496262-1

> <s_i_glide_gridfile>
glide-grid_3chp

> <i_i_glide_lignum>
313

> <i_i_glide_rotatable_bonds>
12

> <r_i_docking_score>
-8.60196478919875

> <r_i_glide_ligand_efficiency>
-0.34407859156795

> <r_i_glide_ligand_efficiency_sa>
-1.00609190400449

> <r_i_glide_ligand_efficiency_ln>
-2.03892343512326

> <r_i_glide_gscore>
-8.60196478919875

> <r_i_glide_lipo>
-4.78541341827356

> <r_i_glide_hbond>
-0.151506230769447

> <r_i_glide_metal>
0

> <r_i_glide_rewards>
-1.6890605721283

> <r_i_glide_evdw>
-31.8202342987061

> <r_i_glide_ecoul>
-9.82505893707275

> <r_i_glide_erotb>
1.18878598746877

> <r_i_glide_esite>
-0.1

> <r_i_glide_emodel>
-38.6374726502549

> <r_i_glide_energy>
-41.6452932357788

> <r_i_glide_einternal>
12.4226694107056

> <i_i_glide_confnum>
36

> <i_i_glide_posenum>
139

> <r_i_glide_eff_state_penalty>
0

> <i_f3d_flags>
0

> <s_user_duplicate_titles>
496262

> <s_m_subgroup_title>
dock_pv

> <s_m_subgroupid>
dock_pv1

> <b_m_subgroup_collapsed>
0

$$$$
496051
                    3D
 Schrodinger Suite 2021-1.
 48 48  0  0  1  0            999 V2000
   12.8528   43.9703   64.4971 C   0  0  0  0  0  0
   12.6404   42.9329   65.6302 C   0  0  2  0  0  0
   13.4297   41.6029   65.4076 C   0  0  0  0  0  0
   15.1206   41.8158   64.7399 S   0  0  0  0  0  0
   11.1304   42.7117   65.9402 C   0  0  0  0  0  0
   10.2760   43.4162   65.4035 O   0  0  0  0  0  0
   10.8024   41.7276   66.7976 N   0  0  0  0  0  0
    9.4492   41.3564   67.2456 C   0  0  1  0  0  0
    9.4970   40.1053   68.1715 C   0  0  0  0  0  0
    8.5207   38.6975   67.5681 S   0  0  0  0  0  0
    7.3654   38.4398   68.9561 C   0  0  0  0  0  0
    8.0303   37.7612   70.1485 C   0  0  0  0  0  0
    8.1208   36.3745   70.1797 C   0  0  0  0  0  0
    8.7055   35.7177   71.2604 C   0  0  0  0  0  0
    9.2668   36.4496   72.3044 C   0  0  0  0  0  0
    9.1279   37.8268   72.2942 C   0  0  0  0  0  0
    8.5251   38.4918   71.2275 C   0  0  0  0  0  0
   10.0612   35.8232   73.4505 C   0  0  0  0  0  0
   10.5303   34.3738   73.2077 C   0  0  0  0  0  0
    9.3231   35.9767   74.7816 C   0  0  0  0  0  0
    8.6951   42.5162   67.9455 C   0  0  0  0  0  0
    8.9204   42.8821   69.0805 O   0  0  0  0  0  0
    7.7209   43.0172   67.1402 O   0  0  0  0  0  0
   13.0334   43.3994   66.5360 H   0  0  0  0  0  0
    8.8956   41.0965   66.3431 H   0  0  0  0  0  0
   12.2929   44.8859   64.6766 H   0  0  0  0  0  0
   13.8950   44.2724   64.4035 H   0  0  0  0  0  0
   12.5262   43.5710   63.5390 H   0  0  0  0  0  0
   12.8975   40.9315   64.7386 H   0  0  0  0  0  0
   13.5084   41.0531   66.3449 H   0  0  0  0  0  0
   14.7559   42.1842   63.5026 H   0  0  0  0  0  0
   11.5445   41.1758   67.1970 H   0  0  0  0  0  0
   10.5209   39.7724   68.3307 H   0  0  0  0  0  0
    9.1329   40.3291   69.1710 H   0  0  0  0  0  0
    6.9350   39.3969   69.2470 H   0  0  0  0  0  0
    6.5406   37.8163   68.5995 H   0  0  0  0  0  0
    7.7215   35.8157   69.3525 H   0  0  0  0  0  0
    8.7492   34.6403   71.2500 H   0  0  0  0  0  0
    9.5073   38.3791   73.1390 H   0  0  0  0  0  0
    8.4542   39.5686   71.2446 H   0  0  0  0  0  0
   10.9677   36.4211   73.5402 H   0  0  0  0  0  0
   10.9211   34.2423   72.1988 H   0  0  0  0  0  0
   11.3198   34.0937   73.9051 H   0  0  0  0  0  0
    9.7218   33.6631   73.3364 H   0  0  0  0  0  0
    9.0672   37.0158   74.9950 H   0  0  0  0  0  0
    8.3935   35.4169   74.7420 H   0  0  0  0  0  0
    9.9331   35.6235   75.6139 H   0  0  0  0  0  0
    7.1555   43.6339   67.6230 H   0  0  0  0  0  0
  1  2  1  0  0  0
  1 26  1  0  0  0
  1 27  1  0  0  0
  1 28  1  0  0  0
  2 24  1  0  0  0
  2  3  1  0  0  0
  2  5  1  0  0  0
  3  4  1  0  0  0
  3 29  1  0  0  0
  3 30  1  0  0  0
  4 31  1  0  0  0
  5  6  2  0  0  0
  5  7  1  0  0  0
  7  8  1  0  0  0
  7 32  1  0  0  0
  8 25  1  0  0  0
  8  9  1  0  0  0
  8 21  1  0  0  0
  9 10  1  0  0  0
  9 33  1  0  0  0
  9 34  1  0  0  0
 10 11  1  0  0  0
 11 12  1  0  0  0
 11 35  1  0  0  0
 11 36  1  0  0  0
 12 17  1  0  0  0
 12 13  2  0  0  0
 13 14  1  0  0  0
 13 37  1  0  0  0
 14 15  2  0  0  0
 14 38  1  0  0  0
 15 16  1  0  0  0
 15 18  1  0  0  0
 16 17  2  0  0  0
 16 39  1  0  0  0
 17 40  1  0  0  0
 18 19  1  0  0  0
 18 20  1  0  0  0
 18 41  1  0  0  0
 19 42  1  0  0  0
 19 43  1  0  0  0
 19 44  1  0  0  0
 20 45  1  0  0  0
 20 46  1  0  0  0
 20 47  1  0  0  0
 21 22  2  0  0  0
 21 23  1  0  0  0
 23 48  1  0  0  0
M  END
> <s_m_entry_id>
7330

> <s_m_entry_name>
ligand_docking-pose.205

> <s_m_Source_Path>
/home/csk/Desktop/cluster/DUD-E-result/lkha4

> <s_m_Source_File>
ligand_docking-pose.sdf

> <i_m_Source_File_Index>
205

> <i_lp_mmshare_version>
53161

> <r_lp_tautomer_probability>
1

> <s_lp_Force_Field>
OPLS_2005

> <r_lp_Energy>
7.274159

> <b_lp_Chiralities_Consistent>
1

> <s_lp_Variant>
496051-1

> <s_i_glide_gridfile>
glide-grid_3chp

> <i_i_glide_lignum>
299

> <i_i_glide_rotatable_bonds>
12

> <r_i_docking_score>
-8.5710462934257

> <r_i_glide_ligand_efficiency>
-0.372654186670683

> <r_i_glide_ligand_efficiency_sa>
-1.05977893526855

> <r_i_glide_ligand_efficiency_ln>
-2.07255671170126

> <r_i_glide_gscore>
-8.5710462934257

> <r_i_glide_lipo>
-4.57391495048477

> <r_i_glide_hbond>
0

> <r_i_glide_metal>
0

> <r_i_glide_rewards>
-1.88510761186909

> <r_i_glide_evdw>
-47.0107765197754

> <r_i_glide_ecoul>
-6.8204288482666

> <r_i_glide_erotb>
1.36157942215692

> <r_i_glide_esite>
-0.1

> <r_i_glide_emodel>
-75.8891448101041

> <r_i_glide_energy>
-53.831205368042

> <r_i_glide_einternal>
9.12519073486328

> <i_i_glide_confnum>
122

> <i_i_glide_posenum>
190

> <r_i_glide_eff_state_penalty>
0

> <i_f3d_flags>
0

> <s_user_duplicate_titles>
496051

> <s_m_subgroup_title>
dock_pv

> <s_m_subgroupid>
dock_pv1

> <b_m_subgroup_collapsed>
0

$$$$
496049
                    3D
 Schrodinger Suite 2021-1.
 45 45  0  0  1  0            999 V2000
   10.4490   34.3533   73.0180 C   0  0  0  0  0  0
    9.6902   35.6281   73.4234 C   0  0  0  0  0  0
    9.0597   36.4183   72.2758 C   0  0  0  0  0  0
    8.5211   35.8161   71.1403 C   0  0  0  0  0  0
    8.0552   36.6013   70.0825 C   0  0  0  0  0  0
    8.0741   37.9922   70.1785 C   0  0  0  0  0  0
    8.5208   38.5911   71.3530 C   0  0  0  0  0  0
    9.0313   37.7999   72.3753 C   0  0  0  0  0  0
    7.7428   38.8601   68.9759 C   0  0  0  0  0  0
    9.3204   39.4160   68.2863 S   0  0  0  0  0  0
    8.9375   40.2758   66.7403 C   0  0  0  0  0  0
    9.3813   41.7617   66.7420 C   0  0  1  0  0  0
    8.6457   42.5548   67.8498 C   0  0  0  0  0  0
    9.1619   43.0115   68.8462 O   0  0  0  0  0  0
    7.3210   42.6161   67.5400 O   0  0  0  0  0  0
   10.8514   41.8363   66.7962 N   0  0  0  0  0  0
   11.6365   42.5156   65.9397 C   0  0  0  0  0  0
   11.1867   43.3393   65.1400 O   0  0  0  0  0  0
   13.1533   42.1872   65.9375 C   0  0  2  0  0  0
   13.9613   43.4173   66.3913 C   0  0  0  0  0  0
   13.6178   41.6611   64.5444 C   0  0  0  0  0  0
   15.4219   41.4550   64.3400 S   0  0  0  0  0  0
    9.0573   42.2156   65.8026 H   0  0  0  0  0  0
   13.3210   41.3891   66.6616 H   0  0  0  0  0  0
   10.8641   33.8571   73.8961 H   0  0  0  0  0  0
    9.8099   33.6306   72.5117 H   0  0  0  0  0  0
   11.2844   34.5973   72.3613 H   0  0  0  0  0  0
   10.4072   36.2684   73.9411 H   0  0  0  0  0  0
    8.9184   35.4157   74.1600 H   0  0  0  0  0  0
    8.5207   34.7416   71.0572 H   0  0  0  0  0  0
    7.7215   36.1177   69.1766 H   0  0  0  0  0  0
    8.5237   39.6672   71.4457 H   0  0  0  0  0  0
    9.4440   38.2270   73.2661 H   0  0  0  0  0  0
    7.1462   39.7244   69.2710 H   0  0  0  0  0  0
    7.1816   38.3016   68.2252 H   0  0  0  0  0  0
    7.8884   40.1734   66.4947 H   0  0  0  0  0  0
    9.4669   39.7342   65.9540 H   0  0  0  0  0  0
    6.7776   43.1803   68.1230 H   0  0  0  0  0  0
   11.2717   41.2074   67.4635 H   0  0  0  0  0  0
   13.5768   43.8159   67.3287 H   0  0  0  0  0  0
   15.0121   43.1846   66.5585 H   0  0  0  0  0  0
   13.9136   44.2162   65.6500 H   0  0  0  0  0  0
   13.2915   42.3330   63.7479 H   0  0  0  0  0  0
   13.1675   40.6893   64.3418 H   0  0  0  0  0  0
   15.3555   41.4133   62.9925 H   0  0  0  0  0  0
  1  2  1  0  0  0
  1 25  1  0  0  0
  1 26  1  0  0  0
  1 27  1  0  0  0
  2  3  1  0  0  0
  2 28  1  0  0  0
  2 29  1  0  0  0
  3  8  1  0  0  0
  3  4  2  0  0  0
  4  5  1  0  0  0
  4 30  1  0  0  0
  5  6  2  0  0  0
  5 31  1  0  0  0
  6  7  1  0  0  0
  6  9  1  0  0  0
  7  8  2  0  0  0
  7 32  1  0  0  0
  8 33  1  0  0  0
  9 10  1  0  0  0
  9 34  1  0  0  0
  9 35  1  0  0  0
 10 11  1  0  0  0
 11 12  1  0  0  0
 11 36  1  0  0  0
 11 37  1  0  0  0
 12 23  1  0  0  0
 12 13  1  0  0  0
 12 16  1  0  0  0
 13 14  2  0  0  0
 13 15  1  0  0  0
 15 38  1  0  0  0
 16 17  1  0  0  0
 16 39  1  0  0  0
 17 18  2  0  0  0
 17 19  1  0  0  0
 19 24  1  0  0  0
 19 20  1  0  0  0
 19 21  1  0  0  0
 20 40  1  0  0  0
 20 41  1  0  0  0
 20 42  1  0  0  0
 21 22  1  0  0  0
 21 43  1  0  0  0
 21 44  1  0  0  0
 22 45  1  0  0  0
M  END
> <s_m_entry_id>
7332

> <s_m_entry_name>
ligand_docking-pose.207

> <s_m_Source_Path>
/home/csk/Desktop/cluster/DUD-E-result/lkha4

> <s_m_Source_File>
ligand_docking-pose.sdf

> <i_m_Source_File_Index>
207

> <i_lp_mmshare_version>
53161

> <r_lp_tautomer_probability>
1

> <s_lp_Force_Field>
OPLS_2005

> <r_lp_Energy>
2.110687

> <b_lp_Chiralities_Consistent>
1

> <s_lp_Variant>
496049-1

> <s_i_glide_gridfile>
glide-grid_3chp

> <i_i_glide_lignum>
261

> <i_i_glide_rotatable_bonds>
12

> <r_i_docking_score>
-8.55673343744847

> <r_i_glide_ligand_efficiency>
-0.38894242897493

> <r_i_glide_ligand_efficiency_sa>
-1.08983198222549

> <r_i_glide_ligand_efficiency_ln>
-2.09157776654806

> <r_i_glide_gscore>
-8.55673343744847

> <r_i_glide_lipo>
-4.16762236563382

> <r_i_glide_hbond>
-0.151499209997113

> <r_i_glide_metal>
0

> <r_i_glide_rewards>
-1.96950277730946

> <r_i_glide_evdw>
-40.3276176452637

> <r_i_glide_ecoul>
-10.7617959976196

> <r_i_glide_erotb>
1.46254119739805

> <r_i_glide_esite>
-0.1

> <r_i_glide_emodel>
-70.7331637038415

> <r_i_glide_energy>
-51.0894136428833

> <r_i_glide_einternal>
11.2118272781372

> <i_i_glide_confnum>
474

> <i_i_glide_posenum>
93

> <r_i_glide_eff_state_penalty>
0

> <i_f3d_flags>
0

> <s_user_duplicate_titles>
496049

> <s_m_subgroup_title>
dock_pv

> <s_m_subgroupid>
dock_pv1

> <b_m_subgroup_collapsed>
0

$$$$
496192
                    3D
 Schrodinger Suite 2021-1.
 43 43  0  0  1  0            999 V2000
   12.7881   43.9732   64.5059 C   0  0  0  0  0  0
   12.5741   42.9312   65.6329 C   0  0  2  0  0  0
   13.3654   41.6015   65.4112 C   0  0  0  0  0  0
   15.0553   41.8156   64.7399 S   0  0  0  0  0  0
   11.0660   42.7042   65.9405 C   0  0  0  0  0  0
   10.2075   43.4136   65.4132 O   0  0  0  0  0  0
   10.7482   41.7139   66.7950 N   0  0  0  0  0  0
    9.4048   41.3089   67.2468 C   0  0  1  0  0  0
    9.4955   40.0428   68.1501 C   0  0  0  0  0  0
    8.4678   38.6474   67.6137 S   0  0  0  0  0  0
    7.3595   38.4354   69.0489 C   0  0  0  0  0  0
    8.0455   37.7346   70.2174 C   0  0  0  0  0  0
    8.1210   36.3482   70.2063 C   0  0  0  0  0  0
    8.6952   35.6516   71.2641 C   0  0  0  0  0  0
    9.2696   36.3405   72.3197 C   0  0  0  0  0  0
    9.2036   37.7310   72.3394 C   0  0  0  0  0  0
    8.5782   38.4326   71.3027 C   0  0  0  0  0  0
   10.1203   35.4173   73.5737 S   0  0  0  0  0  0
   10.5216   36.5174   74.9613 C   0  0  0  0  0  0
    8.6327   42.4428   67.9717 C   0  0  0  0  0  0
    8.7901   42.7326   69.1397 O   0  0  0  0  0  0
    7.7210   43.0149   67.1443 O   0  0  0  0  0  0
   12.9606   43.3975   66.5392 H   0  0  0  0  0  0
    8.8537   41.0546   66.3401 H   0  0  0  0  0  0
   12.1929   44.8707   64.6683 H   0  0  0  0  0  0
   13.8217   44.3106   64.4437 H   0  0  0  0  0  0
   12.5079   43.5622   63.5398 H   0  0  0  0  0  0
   12.8351   40.9292   64.7400 H   0  0  0  0  0  0
   13.4536   41.0535   66.3462 H   0  0  0  0  0  0
   14.6857   42.1252   63.4884 H   0  0  0  0  0  0
   11.4989   41.1728   67.1925 H   0  0  0  0  0  0
   10.5200   39.6900   68.2138 H   0  0  0  0  0  0
    9.2244   40.2485   69.1817 H   0  0  0  0  0  0
    6.9333   39.3960   69.3497 H   0  0  0  0  0  0
    6.5214   37.8164   68.7182 H   0  0  0  0  0  0
    7.7214   35.8160   69.3604 H   0  0  0  0  0  0
    8.7311   34.5733   71.2340 H   0  0  0  0  0  0
    9.6494   38.2509   73.1609 H   0  0  0  0  0  0
    8.5211   39.5096   71.3413 H   0  0  0  0  0  0
   11.0487   35.9626   75.7376 H   0  0  0  0  0  0
   11.1568   37.3412   74.6371 H   0  0  0  0  0  0
    9.6103   36.9250   75.3965 H   0  0  0  0  0  0
    7.1469   43.6220   67.6313 H   0  0  0  0  0  0
  1  2  1  0  0  0
  1 25  1  0  0  0
  1 26  1  0  0  0
  1 27  1  0  0  0
  2 23  1  0  0  0
  2  3  1  0  0  0
  2  5  1  0  0  0
  3  4  1  0  0  0
  3 28  1  0  0  0
  3 29  1  0  0  0
  4 30  1  0  0  0
  5  6  2  0  0  0
  5  7  1  0  0  0
  7  8  1  0  0  0
  7 31  1  0  0  0
  8 24  1  0  0  0
  8  9  1  0  0  0
  8 20  1  0  0  0
  9 10  1  0  0  0
  9 32  1  0  0  0
  9 33  1  0  0  0
 10 11  1  0  0  0
 11 12  1  0  0  0
 11 34  1  0  0  0
 11 35  1  0  0  0
 12 17  1  0  0  0
 12 13  2  0  0  0
 13 14  1  0  0  0
 13 36  1  0  0  0
 14 15  2  0  0  0
 14 37  1  0  0  0
 15 16  1  0  0  0
 15 18  1  0  0  0
 16 17  2  0  0  0
 16 38  1  0  0  0
 17 39  1  0  0  0
 18 19  1  0  0  0
 19 40  1  0  0  0
 19 41  1  0  0  0
 19 42  1  0  0  0
 20 21  2  0  0  0
 20 22  1  0  0  0
 22 43  1  0  0  0
M  END
> <s_m_entry_id>
7333

> <s_m_entry_name>
ligand_docking-pose.208

> <s_m_Source_Path>
/home/csk/Desktop/cluster/DUD-E-result/lkha4

> <s_m_Source_File>
ligand_docking-pose.sdf

> <i_m_Source_File_Index>
208

> <i_lp_mmshare_version>
53161

> <r_lp_tautomer_probability>
1

> <s_lp_Force_Field>
OPLS_2005

> <r_lp_Energy>
-0.866606

> <b_lp_Chiralities_Consistent>
1

> <s_lp_Variant>
496192-1

> <s_i_glide_gridfile>
glide-grid_3chp

> <i_i_glide_lignum>
308

> <i_i_glide_rotatable_bonds>
12

> <r_i_docking_score>
-8.53717062011917

> <r_i_glide_ligand_efficiency>
-0.388053210005417

> <r_i_glide_ligand_efficiency_sa>
-1.08734035570191

> <r_i_glide_ligand_efficiency_ln>
-2.08679590042168

> <r_i_glide_gscore>
-8.53717062011917

> <r_i_glide_lipo>
-4.30625403858416

> <r_i_glide_hbond>
0

> <r_i_glide_metal>
0

> <r_i_glide_rewards>
-1.8577490423807

> <r_i_glide_evdw>
-50.6448669433594

> <r_i_glide_ecoul>
-7.17032861709595

> <r_i_glide_erotb>
1.33462510057806

> <r_i_glide_esite>
-0.1

> <r_i_glide_emodel>
-83.9434270415086

> <r_i_glide_energy>
-57.8151955604553

> <r_i_glide_einternal>
8.4038143157959

> <i_i_glide_confnum>
284

> <i_i_glide_posenum>
73

> <r_i_glide_eff_state_penalty>
0

> <i_f3d_flags>
0

> <s_user_duplicate_titles>
496192

> <s_m_subgroup_title>
dock_pv

> <s_m_subgroupid>
dock_pv1

> <b_m_subgroup_collapsed>
0

$$$$
495982
                    3D
 Schrodinger Suite 2021-1.
 42 42  0  0  1  0            999 V2000
   13.2038   44.1827   64.5199 C   0  0  0  0  0  0
   12.8057   43.1557   65.6078 C   0  0  2  0  0  0
   13.4887   41.7638   65.4020 C   0  0  0  0  0  0
   15.1970   41.8160   64.7400 S   0  0  0  0  0  0
   11.2674   43.0125   65.7494 C   0  0  0  0  0  0
   10.5210   43.4160   64.8600 O   0  0  0  0  0  0
   10.8016   42.4013   66.8531 N   0  0  0  0  0  0
    9.4953   41.7304   66.9711 C   0  0  1  0  0  0
    9.7886   40.2448   67.3200 C   0  0  0  0  0  0
    8.5210   39.0160   66.9402 S   0  0  0  0  0  0
    7.4855   38.9423   68.4377 C   0  0  0  0  0  0
    8.0839   38.1783   69.6110 C   0  0  0  0  0  0
    8.5240   38.8661   70.7399 C   0  0  0  0  0  0
    8.9210   38.1536   71.8677 C   0  0  0  0  0  0
    8.9405   36.7711   71.8788 C   0  0  0  0  0  0
    8.5210   36.0847   70.7443 C   0  0  0  0  0  0
    8.0861   36.7826   69.6169 C   0  0  0  0  0  0
    9.4402   36.0693   73.1381 C   0  0  0  0  0  0
    9.7210   34.7807   72.9346 F   0  0  0  0  0  0
   10.5422   36.6627   73.5848 F   0  0  0  0  0  0
    8.5210   36.1959   74.0909 F   0  0  0  0  0  0
    8.5734   42.4106   68.0184 C   0  0  0  0  0  0
    8.9210   42.7020   69.1400 O   0  0  0  0  0  0
    7.3210   42.6160   67.5187 O   0  0  0  0  0  0
   13.1401   43.5735   66.5587 H   0  0  0  0  0  0
    8.9945   41.7834   66.0031 H   0  0  0  0  0  0
   12.5191   45.0215   64.4690 H   0  0  0  0  0  0
   14.1844   44.6011   64.7400 H   0  0  0  0  0  0
   13.2314   43.7376   63.5244 H   0  0  0  0  0  0
   12.9210   41.1447   64.7096 H   0  0  0  0  0  0
   13.4993   41.2104   66.3400 H   0  0  0  0  0  0
   14.8709   42.1898   63.4936 H   0  0  0  0  0  0
   11.4407   42.2038   67.6081 H   0  0  0  0  0  0
   10.6240   39.9145   66.7032 H   0  0  0  0  0  0
   10.1209   40.1128   68.3400 H   0  0  0  0  0  0
    7.1977   39.9497   68.7400 H   0  0  0  0  0  0
    6.5642   38.4319   68.1558 H   0  0  0  0  0  0
    8.5210   39.9450   70.7585 H   0  0  0  0  0  0
    9.2256   38.6160   72.7825 H   0  0  0  0  0  0
    8.5210   35.0075   70.7400 H   0  0  0  0  0  0
    7.7364   36.2352   68.7542 H   0  0  0  0  0  0
    6.7376   43.1491   68.0920 H   0  0  0  0  0  0
  1  2  1  0  0  0
  1 27  1  0  0  0
  1 28  1  0  0  0
  1 29  1  0  0  0
  2 25  1  0  0  0
  2  3  1  0  0  0
  2  5  1  0  0  0
  3  4  1  0  0  0
  3 30  1  0  0  0
  3 31  1  0  0  0
  4 32  1  0  0  0
  5  6  2  0  0  0
  5  7  1  0  0  0
  7  8  1  0  0  0
  7 33  1  0  0  0
  8 26  1  0  0  0
  8  9  1  0  0  0
  8 22  1  0  0  0
  9 10  1  0  0  0
  9 34  1  0  0  0
  9 35  1  0  0  0
 10 11  1  0  0  0
 11 12  1  0  0  0
 11 36  1  0  0  0
 11 37  1  0  0  0
 12 17  1  0  0  0
 12 13  2  0  0  0
 13 14  1  0  0  0
 13 38  1  0  0  0
 14 15  2  0  0  0
 14 39  1  0  0  0
 15 16  1  0  0  0
 15 18  1  0  0  0
 16 17  2  0  0  0
 16 40  1  0  0  0
 17 41  1  0  0  0
 18 19  1  0  0  0
 18 20  1  0  0  0
 18 21  1  0  0  0
 22 23  2  0  0  0
 22 24  1  0  0  0
 24 42  1  0  0  0
M  END
> <s_m_entry_id>
7345

> <s_m_entry_name>
ligand_docking-pose.220

> <s_m_Source_Path>
/home/csk/Desktop/cluster/DUD-E-result/lkha4

> <s_m_Source_File>
ligand_docking-pose.sdf

> <i_m_Source_File_Index>
220

> <i_lp_mmshare_version>
53161

> <r_lp_tautomer_probability>
1

> <s_lp_Force_Field>
OPLS_2005

> <r_lp_Energy>
2.690961

> <b_lp_Chiralities_Consistent>
1

> <s_lp_Variant>
495982-1

> <s_i_glide_gridfile>
glide-grid_3chp

> <i_i_glide_lignum>
300

> <i_i_glide_rotatable_bonds>
12

> <r_i_docking_score>
-8.43879298461793

> <r_i_glide_ligand_efficiency>
-0.351616374359081

> <r_i_glide_ligand_efficiency_sa>
-1.01423712859043

> <r_i_glide_ligand_efficiency_ln>
-2.01979039219683

> <r_i_glide_gscore>
-8.43879298461793

> <r_i_glide_lipo>
-4.11304450736372

> <r_i_glide_hbond>
-0.0243243506042866

> <r_i_glide_metal>
0

> <r_i_glide_rewards>
-1.61266805883109

> <r_i_glide_evdw>
-44.2068786621094

> <r_i_glide_ecoul>
-10.5276870727539

> <r_i_glide_erotb>
1.20074092619972

> <r_i_glide_esite>
-0.1

> <r_i_glide_emodel>
-72.0951204616351

> <r_i_glide_energy>
-54.7345657348633

> <r_i_glide_einternal>
12.5780057907104

> <i_i_glide_confnum>
288

> <i_i_glide_posenum>
274

> <r_i_glide_eff_state_penalty>
0

> <i_f3d_flags>
0

> <s_user_duplicate_titles>
495982

> <s_m_subgroup_title>
dock_pv

> <s_m_subgroupid>
dock_pv1

> <b_m_subgroup_collapsed>
0

$$$$
495804
                    3D
 Schrodinger Suite 2021-1.
 47 47  0  0  1  0            999 V2000
   12.8531   43.9932   64.5081 C   0  0  0  0  0  0
   12.6256   42.9548   65.6363 C   0  0  2  0  0  0
   13.4038   41.6180   65.4122 C   0  0  0  0  0  0
   15.0952   41.8160   64.7399 S   0  0  0  0  0  0
   11.1152   42.7379   65.9400 C   0  0  0  0  0  0
   10.2607   43.4160   65.3692 O   0  0  0  0  0  0
   10.7887   41.7829   66.8285 N   0  0  0  0  0  0
    9.4346   41.3882   67.2546 C   0  0  1  0  0  0
    9.4971   40.1221   68.1548 C   0  0  0  0  0  0
    8.5210   38.7192   67.5499 S   0  0  0  0  0  0
    7.3757   38.4617   68.9399 C   0  0  0  0  0  0
    8.0305   37.7706   70.1321 C   0  0  0  0  0  0
    8.5207   38.4907   71.2201 C   0  0  0  0  0  0
    9.0670   37.8160   72.3120 C   0  0  0  0  0  0
    9.1664   36.4233   72.3391 C   0  0  0  0  0  0
    8.6453   35.7188   71.2534 C   0  0  0  0  0  0
    8.1040   36.3839   70.1574 C   0  0  0  0  0  0
    9.7917   35.7445   73.4170 N   0  0  0  0  0  0
   10.0815   36.4319   74.6738 C   0  0  0  0  0  0
   10.4442   34.4567   73.1797 C   0  0  0  0  0  0
    8.6605   42.5269   67.9664 C   0  0  0  0  0  0
    8.8311   42.8418   69.1268 O   0  0  0  0  0  0
    7.7210   43.0569   67.1402 O   0  0  0  0  0  0
   13.0175   43.4161   66.5439 H   0  0  0  0  0  0
    8.8956   41.1370   66.3406 H   0  0  0  0  0  0
   12.2701   44.8988   64.6639 H   0  0  0  0  0  0
   13.8920   44.3145   64.4523 H   0  0  0  0  0  0
   12.5729   43.5846   63.5400 H   0  0  0  0  0  0
   12.8659   40.9539   64.7398 H   0  0  0  0  0  0
   13.4810   41.0659   66.3457 H   0  0  0  0  0  0
   14.7302   42.1388   63.4902 H   0  0  0  0  0  0
   11.5320   41.2599   67.2623 H   0  0  0  0  0  0
   10.5210   39.7815   68.2747 H   0  0  0  0  0  0
    9.1622   40.3269   69.1672 H   0  0  0  0  0  0
    6.9412   39.4181   69.2372 H   0  0  0  0  0  0
    6.5558   37.8394   68.5751 H   0  0  0  0  0  0
    8.4762   39.5690   71.2332 H   0  0  0  0  0  0
    9.4327   38.3903   73.1400 H   0  0  0  0  0  0
    8.6630   34.6396   71.2391 H   0  0  0  0  0  0
    7.7212   35.8161   69.3246 H   0  0  0  0  0  0
   10.9197   37.1184   74.5504 H   0  0  0  0  0  0
    9.2202   37.0147   75.0012 H   0  0  0  0  0  0
   10.3295   35.7297   75.4707 H   0  0  0  0  0  0
   10.9208   34.4344   72.1993 H   0  0  0  0  0  0
   11.2148   34.2488   73.9234 H   0  0  0  0  0  0
    9.7210   33.6455   73.2148 H   0  0  0  0  0  0
    7.1389   43.6606   67.6233 H   0  0  0  0  0  0
  1  2  1  0  0  0
  1 26  1  0  0  0
  1 27  1  0  0  0
  1 28  1  0  0  0
  2 24  1  0  0  0
  2  3  1  0  0  0
  2  5  1  0  0  0
  3  4  1  0  0  0
  3 29  1  0  0  0
  3 30  1  0  0  0
  4 31  1  0  0  0
  5  6  2  0  0  0
  5  7  1  0  0  0
  7  8  1  0  0  0
  7 32  1  0  0  0
  8 25  1  0  0  0
  8  9  1  0  0  0
  8 21  1  0  0  0
  9 10  1  0  0  0
  9 33  1  0  0  0
  9 34  1  0  0  0
 10 11  1  0  0  0
 11 12  1  0  0  0
 11 35  1  0  0  0
 11 36  1  0  0  0
 12 17  1  0  0  0
 12 13  2  0  0  0
 13 14  1  0  0  0
 13 37  1  0  0  0
 14 15  2  0  0  0
 14 38  1  0  0  0
 15 16  1  0  0  0
 15 18  1  0  0  0
 16 17  2  0  0  0
 16 39  1  0  0  0
 17 40  1  0  0  0
 18 19  1  0  0  0
 18 20  1  0  0  0
 19 41  1  0  0  0
 19 42  1  0  0  0
 19 43  1  0  0  0
 20 44  1  0  0  0
 20 45  1  0  0  0
 20 46  1  0  0  0
 21 22  2  0  0  0
 21 23  1  0  0  0
 23 47  1  0  0  0
M  END
> <s_m_entry_id>
7347

> <s_m_entry_name>
ligand_docking-pose.222

> <s_m_Source_Path>
/home/csk/Desktop/cluster/DUD-E-result/lkha4

> <s_m_Source_File>
ligand_docking-pose.sdf

> <i_m_Source_File_Index>
222

> <i_lp_mmshare_version>
53161

> <r_lp_tautomer_probability>
1

> <s_lp_Force_Field>
OPLS_2005

> <r_lp_Energy>
3.707092

> <b_lp_Chiralities_Consistent>
1

> <s_lp_Variant>
495804-1

> <s_i_glide_gridfile>
glide-grid_3chp

> <i_i_glide_lignum>
304

> <i_i_glide_rotatable_bonds>
12

> <r_i_docking_score>
-8.40962463866266

> <r_i_glide_ligand_efficiency>
-0.365635853854898

> <r_i_glide_ligand_efficiency_sa>
-1.039819730341

> <r_i_glide_ligand_efficiency_ln>
-2.03352349188892

> <r_i_glide_gscore>
-8.40962463866266

> <r_i_glide_lipo>
-4.19986249694482

> <r_i_glide_hbond>
0

> <r_i_glide_metal>
0

> <r_i_glide_rewards>
-1.84071864072611

> <r_i_glide_evdw>
-50.095890045166

> <r_i_glide_ecoul>
-7.46077299118042

> <r_i_glide_erotb>
1.35486694994363

> <r_i_glide_esite>
-0.1

> <r_i_glide_emodel>
-81.8788055879854

> <r_i_glide_energy>
-57.5566630363464

> <r_i_glide_einternal>
10.5040731430054

> <i_i_glide_confnum>
1

> <i_i_glide_posenum>
138

> <r_i_glide_eff_state_penalty>
0

> <i_f3d_flags>
0

> <s_user_duplicate_titles>
495804

> <s_m_subgroup_title>
dock_pv

> <s_m_subgroupid>
dock_pv1

> <b_m_subgroup_collapsed>
0

$$$$
496193
                    3D
 Schrodinger Suite 2021-1.
 45 45  0  0  1  0            999 V2000
   14.2876   43.8160   65.5685 C   0  0  0  0  0  0
   13.5339   42.4676   65.6277 C   0  0  2  0  0  0
   13.9962   41.5022   64.5012 C   0  0  0  0  0  0
   15.8087   41.4160   64.3400 S   0  0  0  0  0  0
   12.0147   42.7015   65.5399 C   0  0  0  0  0  0
   11.5933   43.3479   64.5818 O   0  0  0  0  0  0
   11.2430   42.1526   66.5073 N   0  0  0  0  0  0
    9.7705   42.0845   66.6869 C   0  0  1  0  0  0
    9.4698   41.4545   68.0909 C   0  0  0  0  0  0
    7.7773   40.9110   68.5485 S   0  0  0  0  0  0
    7.8163   39.0833   68.5998 C   0  0  0  0  0  0
    8.1988   38.5151   69.9618 C   0  0  0  0  0  0
    9.5136   38.6158   70.3785 C   0  0  0  0  0  0
    9.9513   37.9998   71.5400 C   0  0  0  0  0  0
    9.0619   37.2719   72.3156 C   0  0  0  0  0  0
    7.7211   37.2021   71.9419 C   0  0  0  0  0  0
    7.2916   37.8160   70.7638 C   0  0  0  0  0  0
    9.6751   36.3739   73.7364 S   0  0  0  0  0  0
   10.9209   37.0161   74.1676 O   0  0  0  0  0  0
    8.5564   36.2160   74.6679 O   0  0  0  0  0  0
   10.1095   34.6897   73.0228 C   0  0  0  0  0  0
    9.0009   43.4006   66.3754 C   0  0  0  0  0  0
    9.3210   44.2159   65.5400 O   0  0  0  0  0  0
    7.8843   43.5135   67.1400 O   0  0  0  0  0  0
   13.7211   42.0018   66.5933 H   0  0  0  0  0  0
    9.4229   41.3772   65.9404 H   0  0  0  0  0  0
   13.9454   44.4851   66.3400 H   0  0  0  0  0  0
   15.3614   43.7191   65.7217 H   0  0  0  0  0  0
   14.1210   44.3201   64.6159 H   0  0  0  0  0  0
   13.6104   41.8158   63.5293 H   0  0  0  0  0  0
   13.6092   40.4984   64.6779 H   0  0  0  0  0  0
   15.9358   42.5423   63.6220 H   0  0  0  0  0  0
   11.7371   41.6677   67.2389 H   0  0  0  0  0  0
   10.1208   40.5944   68.2264 H   0  0  0  0  0  0
    9.7213   42.1976   68.8458 H   0  0  0  0  0  0
    6.8313   38.7068   68.3348 H   0  0  0  0  0  0
    8.4990   38.7120   67.8339 H   0  0  0  0  0  0
   10.2480   39.0160   69.7153 H   0  0  0  0  0  0
   10.9962   38.0494   71.8036 H   0  0  0  0  0  0
    7.0226   36.6493   72.5516 H   0  0  0  0  0  0
    6.2605   37.7109   70.4678 H   0  0  0  0  0  0
   10.4190   34.0382   73.8391 H   0  0  0  0  0  0
    9.2356   34.2812   72.5203 H   0  0  0  0  0  0
   10.9210   34.8110   72.3099 H   0  0  0  0  0  0
    7.3752   44.3031   66.9434 H   0  0  0  0  0  0
  1  2  1  0  0  0
  1 27  1  0  0  0
  1 28  1  0  0  0
  1 29  1  0  0  0
  2 25  1  0  0  0
  2  3  1  0  0  0
  2  5  1  0  0  0
  3  4  1  0  0  0
  3 30  1  0  0  0
  3 31  1  0  0  0
  4 32  1  0  0  0
  5  6  2  0  0  0
  5  7  1  0  0  0
  7  8  1  0  0  0
  7 33  1  0  0  0
  8 26  1  0  0  0
  8  9  1  0  0  0
  8 22  1  0  0  0
  9 10  1  0  0  0
  9 34  1  0  0  0
  9 35  1  0  0  0
 10 11  1  0  0  0
 11 12  1  0  0  0
 11 36  1  0  0  0
 11 37  1  0  0  0
 12 17  1  0  0  0
 12 13  2  0  0  0
 13 14  1  0  0  0
 13 38  1  0  0  0
 14 15  2  0  0  0
 14 39  1  0  0  0
 15 16  1  0  0  0
 15 18  1  0  0  0
 16 17  2  0  0  0
 16 40  1  0  0  0
 17 41  1  0  0  0
 18 19  2  0  0  0
 18 20  2  0  0  0
 18 21  1  0  0  0
 21 42  1  0  0  0
 21 43  1  0  0  0
 21 44  1  0  0  0
 22 23  2  0  0  0
 22 24  1  0  0  0
 24 45  1  0  0  0
M  END
> <s_m_entry_id>
7349

> <s_m_entry_name>
ligand_docking-pose.224

> <s_m_Source_Path>
/home/csk/Desktop/cluster/DUD-E-result/lkha4

> <s_m_Source_File>
ligand_docking-pose.sdf

> <i_m_Source_File_Index>
224

> <i_lp_mmshare_version>
53161

> <r_lp_tautomer_probability>
1

> <s_lp_Force_Field>
OPLS_2005

> <r_lp_Energy>
-1.820269

> <b_lp_Chiralities_Consistent>
1

> <s_lp_Variant>
496193-1

> <s_i_glide_gridfile>
glide-grid_3chp

> <i_i_glide_lignum>
309

> <i_i_glide_rotatable_bonds>
12

> <r_i_docking_score>
-8.3786842553997

> <r_i_glide_ligand_efficiency>
-0.349111843974988

> <r_i_glide_ligand_efficiency_sa>
-1.00701281285753

> <r_i_glide_ligand_efficiency_ln>
-2.00540361508505

> <r_i_glide_gscore>
-8.3786842553997

> <r_i_glide_lipo>
-3.88994979168651

> <r_i_glide_hbond>
-0.346802165297681

> <r_i_glide_metal>
0

> <r_i_glide_rewards>
-2.13950195794544

> <r_i_glide_evdw>
-37.9617729187012

> <r_i_glide_ecoul>
-7.66737937927246

> <r_i_glide_erotb>
1.14576521235586

> <r_i_glide_esite>
-0.1

> <r_i_glide_emodel>
-58.3468035633025

> <r_i_glide_energy>
-45.6291522979736

> <r_i_glide_einternal>
10.2751502990723

> <i_i_glide_confnum>
268

> <i_i_glide_posenum>
232

> <r_i_glide_eff_state_penalty>
0

> <i_f3d_flags>
0

> <s_user_duplicate_titles>
496193

> <s_m_subgroup_title>
dock_pv

> <s_m_subgroupid>
dock_pv1

> <b_m_subgroup_collapsed>
0

$$$$
554499
                    3D
 Schrodinger Suite 2021-1.
 24 25  0  0  1  0            999 V2000
    8.4513   40.8542   68.0826 C   0  0  0  0  0  0
    9.7266   40.7063   67.5376 C   0  0  0  0  0  0
   10.1812   41.8316   66.8392 C   0  0  0  0  0  0
    8.9215   43.0161   66.7436 S   0  0  0  0  0  0
    7.8850   42.0692   67.7497 C   0  0  0  0  0  0
   11.5006   42.0864   66.1855 C   0  0  0  0  0  0
   12.0101   43.3523   65.9069 C   0  0  0  0  0  0
   13.2456   43.5020   65.2717 C   0  0  0  0  0  0
   13.9838   42.3803   64.8965 C   0  0  0  0  0  0
   13.4535   41.1137   65.1432 C   0  0  0  0  0  0
   12.2465   40.9822   65.8127 C   0  0  0  0  0  0
   15.3155   42.5972   64.1855 C   0  0  0  0  0  0
   16.1225   41.4113   63.9402 N   0  0  0  0  0  0
    7.9564   40.1144   68.6942 H   0  0  0  0  0  0
   10.3250   39.8207   67.6939 H   0  0  0  0  0  0
    6.9198   42.4557   68.0310 H   0  0  0  0  0  0
   11.4375   44.2163   66.1823 H   0  0  0  0  0  0
   13.6263   44.4921   65.0568 H   0  0  0  0  0  0
   13.9330   40.2168   64.7952 H   0  0  0  0  0  0
   11.8295   39.9948   65.9365 H   0  0  0  0  0  0
   15.9122   43.3247   64.7436 H   0  0  0  0  0  0
   15.0945   43.0151   63.2006 H   0  0  0  0  0  0
   15.6739   41.0635   63.0772 H   0  0  0  0  0  0
   16.9876   41.8046   63.5710 H   0  0  0  0  0  0
  1  5  2  0  0  0
  1  2  1  0  0  0
  1 14  1  0  0  0
  2  3  2  0  0  0
  2 15  1  0  0  0
  3  4  1  0  0  0
  3  6  1  0  0  0
  4  5  1  0  0  0
  5 16  1  0  0  0
  6 11  1  0  0  0
  6  7  2  0  0  0
  7  8  1  0  0  0
  7 17  1  0  0  0
  8  9  2  0  0  0
  8 18  1  0  0  0
  9 10  1  0  0  0
  9 12  1  0  0  0
 10 11  2  0  0  0
 10 19  1  0  0  0
 11 20  1  0  0  0
 12 13  1  0  0  0
 12 21  1  0  0  0
 12 22  1  0  0  0
 13 23  1  0  0  0
 13 24  1  0  0  0
M  END
> <s_m_entry_id>
7351

> <s_m_entry_name>
ligand_docking-pose.226

> <s_m_Source_Path>
/home/csk/Desktop/cluster/DUD-E-result/lkha4

> <s_m_Source_File>
ligand_docking-pose.sdf

> <i_m_Source_File_Index>
226

> <i_lp_mmshare_version>
53161

> <r_lp_tautomer_probability>
1

> <s_lp_Force_Field>
OPLS_2005

> <r_lp_Energy>
7.905791

> <b_lp_Chiralities_Consistent>
1

> <s_lp_Variant>
554499-1

> <s_i_glide_gridfile>
glide-grid_3chp

> <i_i_glide_lignum>
251

> <i_i_glide_rotatable_bonds>
2

> <r_i_docking_score>
-8.35992123032042

> <r_i_glide_ligand_efficiency>
-0.643070863870802

> <r_i_glide_ligand_efficiency_sa>
-1.51207482758917

> <r_i_glide_ligand_efficiency_ln>
-2.34503225489666

> <r_i_glide_gscore>
-8.35992123032042

> <r_i_glide_lipo>
-2.87650173915124

> <r_i_glide_hbond>
-0.16

> <r_i_glide_metal>
0

> <r_i_glide_rewards>
-2.88967278047857

> <r_i_glide_evdw>
-21.8920993804932

> <r_i_glide_ecoul>
-11.9106597900391

> <r_i_glide_erotb>
0.447457226839908

> <r_i_glide_esite>
0

> <r_i_glide_emodel>
-53.7649353053074

> <r_i_glide_energy>
-33.8027591705322

> <r_i_glide_einternal>
0.552482843399048

> <i_i_glide_confnum>
3

> <i_i_glide_posenum>
54

> <r_i_glide_eff_state_penalty>
0

> <i_f3d_flags>
0

> <s_user_duplicate_titles>
554499

> <s_m_subgroup_title>
dock_pv

> <s_m_subgroupid>
dock_pv1

> <b_m_subgroup_collapsed>
0

$$$$
496336
                    3D
 Schrodinger Suite 2021-1.
 61 62  0  0  1  0            999 V2000
   14.5053   43.6775   66.1914 C   0  0  0  0  0  0
   13.8887   42.4747   65.4446 C   0  0  2  0  0  0
   14.5992   42.1765   64.0963 C   0  0  0  0  0  0
   16.3671   41.8160   64.3400 S   0  0  0  0  0  0
   12.3811   42.7258   65.2661 C   0  0  0  0  0  0
   12.0136   43.4160   64.3217 O   0  0  0  0  0  0
   11.5544   42.1470   66.1669 N   0  0  0  0  0  0
   10.0736   42.1323   66.3245 C   0  0  1  0  0  0
    9.7217   41.6220   67.7451 C   0  0  0  0  0  0
    9.7210   39.8160   67.8821 S   0  0  0  0  0  0
    8.2226   39.1229   68.6382 C   0  0  0  0  0  0
    7.3208   40.2505   69.1273 C   0  0  0  0  0  0
    7.6428   38.3141   67.4592 C   0  0  0  0  0  0
    8.5320   38.1925   69.8500 C   0  0  0  0  0  0
    9.3473   38.6408   70.8859 C   0  0  0  0  0  0
    9.7319   37.8159   71.9405 C   0  0  0  0  0  0
    9.2800   36.5011   72.0026 C   0  0  0  0  0  0
    8.3506   36.0830   71.0551 C   0  0  0  0  0  0
    7.9929   36.9045   69.9846 C   0  0  0  0  0  0
    9.8229   35.4799   73.0147 C   0  0  0  0  0  0
   10.5067   34.3026   72.2761 C   0  0  0  0  0  0
   11.1196   33.2570   73.2043 C   0  0  0  0  0  0
   11.9761   33.8434   74.3394 C   0  0  0  0  0  0
   11.2543   34.9496   75.1313 C   0  0  0  0  0  0
   10.5819   36.0336   74.2502 C   0  0  0  0  0  0
    9.3211   43.4434   65.9972 C   0  0  0  0  0  0
    9.6474   44.2159   65.1399 O   0  0  0  0  0  0
    8.1897   43.6333   66.7400 O   0  0  0  0  0  0
   13.9951   41.5797   66.0522 H   0  0  0  0  0  0
    9.7210   41.4160   65.5887 H   0  0  0  0  0  0
   14.0036   43.8162   67.1451 H   0  0  0  0  0  0
   15.5645   43.5454   66.4082 H   0  0  0  0  0  0
   14.3899   44.6061   65.6251 H   0  0  0  0  0  0
   14.5161   43.0161   63.4062 H   0  0  0  0  0  0
   14.1385   41.3251   63.5924 H   0  0  0  0  0  0
   16.7638   42.2664   63.1395 H   0  0  0  0  0  0
   12.0075   41.5911   66.8749 H   0  0  0  0  0  0
   10.5207   42.0254   68.3400 H   0  0  0  0  0  0
    8.8300   42.0152   68.2114 H   0  0  0  0  0  0
    6.5211   39.8160   69.6839 H   0  0  0  0  0  0
    7.8417   40.9042   69.8259 H   0  0  0  0  0  0
    6.9020   40.8716   68.3401 H   0  0  0  0  0  0
    6.6074   38.0118   67.6195 H   0  0  0  0  0  0
    7.7206   38.8514   66.5109 H   0  0  0  0  0  0
    8.2371   37.4159   67.2991 H   0  0  0  0  0  0
    9.7209   39.6451   70.8570 H   0  0  0  0  0  0
   10.4184   38.2099   72.6710 H   0  0  0  0  0  0
    7.9456   35.0848   71.1373 H   0  0  0  0  0  0
    7.3213   36.5036   69.2474 H   0  0  0  0  0  0
    8.9211   35.0249   73.4038 H   0  0  0  0  0  0
    9.7676   33.7625   71.6822 H   0  0  0  0  0  0
   11.2657   34.6531   71.5791 H   0  0  0  0  0  0
   10.3311   32.6172   73.5915 H   0  0  0  0  0  0
   11.7453   32.6160   72.5912 H   0  0  0  0  0  0
   12.2736   33.0374   75.0056 H   0  0  0  0  0  0
   12.9154   34.2159   73.9419 H   0  0  0  0  0  0
   10.5210   34.4876   75.7812 H   0  0  0  0  0  0
   11.9562   35.4163   75.8216 H   0  0  0  0  0  0
   11.3209   36.7605   73.9402 H   0  0  0  0  0  0
    9.8754   36.5669   74.8889 H   0  0  0  0  0  0
    7.9949   42.9525   67.3832 H   0  0  0  0  0  0
  1  2  1  0  0  0
  1 31  1  0  0  0
  1 32  1  0  0  0
  1 33  1  0  0  0
  2 29  1  0  0  0
  2  3  1  0  0  0
  2  5  1  0  0  0
  3  4  1  0  0  0
  3 34  1  0  0  0
  3 35  1  0  0  0
  4 36  1  0  0  0
  5  6  2  0  0  0
  5  7  1  0  0  0
  7  8  1  0  0  0
  7 37  1  0  0  0
  8 30  1  0  0  0
  8  9  1  0  0  0
  8 26  1  0  0  0
  9 10  1  0  0  0
  9 38  1  0  0  0
  9 39  1  0  0  0
 10 11  1  0  0  0
 11 12  1  0  0  0
 11 13  1  0  0  0
 11 14  1  0  0  0
 12 40  1  0  0  0
 12 41  1  0  0  0
 12 42  1  0  0  0
 13 43  1  0  0  0
 13 44  1  0  0  0
 13 45  1  0  0  0
 14 19  1  0  0  0
 14 15  2  0  0  0
 15 16  1  0  0  0
 15 46  1  0  0  0
 16 17  2  0  0  0
 16 47  1  0  0  0
 17 18  1  0  0  0
 17 20  1  0  0  0
 18 19  2  0  0  0
 18 48  1  0  0  0
 19 49  1  0  0  0
 20 25  1  0  0  0
 20 21  1  0  0  0
 20 50  1  0  0  0
 21 22  1  0  0  0
 21 51  1  0  0  0
 21 52  1  0  0  0
 22 23  1  0  0  0
 22 53  1  0  0  0
 22 54  1  0  0  0
 23 24  1  0  0  0
 23 55  1  0  0  0
 23 56  1  0  0  0
 24 25  1  0  0  0
 24 57  1  0  0  0
 24 58  1  0  0  0
 25 59  1  0  0  0
 25 60  1  0  0  0
 26 27  2  0  0  0
 26 28  1  0  0  0
 28 61  1  0  0  0
M  END
> <s_m_entry_id>
7355

> <s_m_entry_name>
ligand_docking-pose.230

> <s_m_Source_Path>
/home/csk/Desktop/cluster/DUD-E-result/lkha4

> <s_m_Source_File>
ligand_docking-pose.sdf

> <i_m_Source_File_Index>
230

> <i_lp_mmshare_version>
53161

> <r_lp_tautomer_probability>
1

> <s_lp_Force_Field>
OPLS_2005

> <r_lp_Energy>
11.830893

> <b_lp_Chiralities_Consistent>
1

> <s_lp_Variant>
496336-1

> <s_i_glide_gridfile>
glide-grid_3chp

> <i_i_glide_lignum>
312

> <i_i_glide_rotatable_bonds>
12

> <r_i_docking_score>
-8.322042987641

> <r_i_glide_ligand_efficiency>
-0.297215820987179

> <r_i_glide_ligand_efficiency_sa>
-0.902522283274174

> <r_i_glide_ligand_efficiency_ln>
-1.92097186734715

> <r_i_glide_gscore>
-8.322042987641

> <r_i_glide_lipo>
-4.80280429717308

> <r_i_glide_hbond>
-0.313432309508165

> <r_i_glide_metal>
0

> <r_i_glide_rewards>
-1.3786558040199

> <r_i_glide_evdw>
-33.2381134033203

> <r_i_glide_ecoul>
-7.7979793548584

> <r_i_glide_erotb>
1.10445199645493

> <r_i_glide_esite>
-0.1

> <r_i_glide_emodel>
-38.5972168471794

> <r_i_glide_energy>
-41.0360927581787

> <r_i_glide_einternal>
18.1265468597412

> <i_i_glide_confnum>
400

> <i_i_glide_posenum>
96

> <r_i_glide_eff_state_penalty>
0

> <i_f3d_flags>
0

> <s_user_duplicate_titles>
496336

> <s_m_subgroup_title>
dock_pv

> <s_m_subgroupid>
dock_pv1

> <b_m_subgroup_collapsed>
0

$$$$
496127
                    3D
 Schrodinger Suite 2021-1.
 53 53  0  0  1  0            999 V2000
   11.0380   36.9955   75.3739 C   0  0  0  0  0  0
    9.6908   36.3873   74.9434 C   0  0  0  0  0  0
    9.7210   35.6227   73.6821 N   0  0  0  0  0  0
   10.6747   34.4982   73.6315 C   0  0  0  0  0  0
   10.6669   33.5624   72.4144 C   0  0  0  0  0  0
    9.2665   36.3005   72.5142 C   0  0  0  0  0  0
    8.5808   35.6418   71.4894 C   0  0  0  0  0  0
    8.1209   36.3393   70.3666 C   0  0  0  0  0  0
    8.2892   37.7168   70.2686 C   0  0  0  0  0  0
    8.9209   38.3890   71.3058 C   0  0  0  0  0  0
    9.4242   37.6827   72.3908 C   0  0  0  0  0  0
    7.8631   38.4858   69.0220 C   0  0  0  0  0  0
    9.3210   39.3101   68.3301 S   0  0  0  0  0  0
    8.8298   40.0336   66.7473 C   0  0  0  0  0  0
    8.9475   41.5830   66.7930 C   0  0  1  0  0  0
    8.2174   42.2377   67.9942 C   0  0  0  0  0  0
    8.7215   43.0153   68.7760 O   0  0  0  0  0  0
    6.9210   41.8160   68.0353 O   0  0  0  0  0  0
   10.3612   41.9833   66.6582 N   0  0  0  0  0  0
   10.8125   42.9851   65.8794 C   0  0  0  0  0  0
   10.0370   43.7543   65.3102 O   0  0  0  0  0  0
   12.3494   43.1392   65.6769 C   0  0  2  0  0  0
   12.6921   44.0941   64.5013 C   0  0  0  0  0  0
   13.1182   41.7754   65.6190 C   0  0  0  0  0  0
   14.7262   41.8160   64.7400 S   0  0  0  0  0  0
    8.4071   41.9809   65.9400 H   0  0  0  0  0  0
   12.6780   43.6591   66.5776 H   0  0  0  0  0  0
   10.9204   37.6429   76.2429 H   0  0  0  0  0  0
   11.7210   36.2036   75.6743 H   0  0  0  0  0  0
   11.5068   37.5795   74.5832 H   0  0  0  0  0  0
    8.9210   37.1444   74.8546 H   0  0  0  0  0  0
    9.3161   35.8159   75.7805 H   0  0  0  0  0  0
   11.6814   34.9050   73.7264 H   0  0  0  0  0  0
   10.5216   33.8828   74.5171 H   0  0  0  0  0  0
   11.4105   32.7765   72.5404 H   0  0  0  0  0  0
    9.7209   33.0505   72.2809 H   0  0  0  0  0  0
   10.9209   34.1005   71.5044 H   0  0  0  0  0  0
    8.3787   34.5852   71.5459 H   0  0  0  0  0  0
    7.6269   35.8160   69.5657 H   0  0  0  0  0  0
    9.0499   39.4579   71.2425 H   0  0  0  0  0  0
    9.9483   38.2160   73.1575 H   0  0  0  0  0  0
    7.1196   39.2383   69.2842 H   0  0  0  0  0  0
    7.4250   37.8244   68.2732 H   0  0  0  0  0  0
    7.8453   39.6791   66.4606 H   0  0  0  0  0  0
    9.4990   39.6233   65.9888 H   0  0  0  0  0  0
    6.4054   42.4305   68.5797 H   0  0  0  0  0  0
   11.0183   41.3905   67.1417 H   0  0  0  0  0  0
   12.1210   45.0160   64.5405 H   0  0  0  0  0  0
   13.7364   44.4035   64.5172 H   0  0  0  0  0  0
   12.4932   43.6236   63.5400 H   0  0  0  0  0  0
   12.5193   40.9991   65.1414 H   0  0  0  0  0  0
   13.3101   41.4204   66.6316 H   0  0  0  0  0  0
   14.2365   41.9617   63.5005 H   0  0  0  0  0  0
  1  2  1  0  0  0
  1 28  1  0  0  0
  1 29  1  0  0  0
  1 30  1  0  0  0
  2  3  1  0  0  0
  2 31  1  0  0  0
  2 32  1  0  0  0
  3  4  1  0  0  0
  3  6  1  0  0  0
  4  5  1  0  0  0
  4 33  1  0  0  0
  4 34  1  0  0  0
  5 35  1  0  0  0
  5 36  1  0  0  0
  5 37  1  0  0  0
  6 11  1  0  0  0
  6  7  2  0  0  0
  7  8  1  0  0  0
  7 38  1  0  0  0
  8  9  2  0  0  0
  8 39  1  0  0  0
  9 10  1  0  0  0
  9 12  1  0  0  0
 10 11  2  0  0  0
 10 40  1  0  0  0
 11 41  1  0  0  0
 12 13  1  0  0  0
 12 42  1  0  0  0
 12 43  1  0  0  0
 13 14  1  0  0  0
 14 15  1  0  0  0
 14 44  1  0  0  0
 14 45  1  0  0  0
 15 26  1  0  0  0
 15 16  1  0  0  0
 15 19  1  0  0  0
 16 17  2  0  0  0
 16 18  1  0  0  0
 18 46  1  0  0  0
 19 20  1  0  0  0
 19 47  1  0  0  0
 20 21  2  0  0  0
 20 22  1  0  0  0
 22 27  1  0  0  0
 22 23  1  0  0  0
 22 24  1  0  0  0
 23 48  1  0  0  0
 23 49  1  0  0  0
 23 50  1  0  0  0
 24 25  1  0  0  0
 24 51  1  0  0  0
 24 52  1  0  0  0
 25 53  1  0  0  0
M  END
> <s_m_entry_id>
7356

> <s_m_entry_name>
ligand_docking-pose.231

> <s_m_Source_Path>
/home/csk/Desktop/cluster/DUD-E-result/lkha4

> <s_m_Source_File>
ligand_docking-pose.sdf

> <i_m_Source_File_Index>
231

> <i_lp_mmshare_version>
53161

> <r_lp_tautomer_probability>
1

> <s_lp_Force_Field>
OPLS_2005

> <r_lp_Energy>
4.457583

> <b_lp_Chiralities_Consistent>
1

> <s_lp_Variant>
496127-1

> <s_i_glide_gridfile>
glide-grid_3chp

> <i_i_glide_lignum>
314

> <i_i_glide_rotatable_bonds>
14

> <r_i_docking_score>
-8.30305468226366

> <r_i_glide_ligand_efficiency>
-0.332122187290546

> <r_i_glide_ligand_efficiency_sa>
-0.971131165849629

> <r_i_glide_ligand_efficiency_ln>
-1.96807278216657

> <r_i_glide_gscore>
-8.30305468226366

> <r_i_glide_lipo>
-4.56947449245755

> <r_i_glide_hbond>
-0.135803408484095

> <r_i_glide_metal>
0

> <r_i_glide_rewards>
-1.25598031414868

> <r_i_glide_evdw>
-48.8845481872559

> <r_i_glide_ecoul>
-7.41574764251709

> <r_i_glide_erotb>
1.31479308856701

> <r_i_glide_esite>
-0.1

> <r_i_glide_emodel>
-71.4143040166605

> <r_i_glide_energy>
-56.3002958297729

> <r_i_glide_einternal>
15.3913202285767

> <i_i_glide_confnum>
283

> <i_i_glide_posenum>
235

> <r_i_glide_eff_state_penalty>
0

> <i_f3d_flags>
0

> <s_user_duplicate_titles>
496127

> <s_m_subgroup_title>
dock_pv

> <s_m_subgroupid>
dock_pv1

> <b_m_subgroup_collapsed>
0

$$$$
496123
                    3D
 Schrodinger Suite 2021-1.
 43 43  0  0  1  0            999 V2000
   12.2397   43.8087   64.7793 C   0  0  0  0  0  0
   12.1258   42.7412   65.8983 C   0  0  2  0  0  0
   13.0325   41.4882   65.6670 C   0  0  0  0  0  0
   14.5816   41.8160   64.7400 S   0  0  0  0  0  0
   10.6424   42.3968   66.2266 C   0  0  0  0  0  0
    9.7295   42.9942   65.6546 O   0  0  0  0  0  0
   10.3925   41.4380   67.1400 N   0  0  0  0  0  0
    9.0573   40.9844   67.5814 C   0  0  1  0  0  0
    9.1674   39.8014   68.5843 C   0  0  0  0  0  0
    8.1210   38.3803   68.1580 S   0  0  0  0  0  0
    7.3210   38.0648   69.7540 C   0  0  0  0  0  0
    8.2305   37.4037   70.7760 C   0  0  0  0  0  0
    8.4397   36.0298   70.7418 C   0  0  0  0  0  0
    9.1335   35.3878   71.7634 C   0  0  0  0  0  0
    9.6940   36.1220   72.7994 C   0  0  0  0  0  0
    9.5633   37.5135   72.7755 C   0  0  0  0  0  0
    8.8056   38.1507   71.7956 C   0  0  0  0  0  0
   10.3510   35.4158   73.7870 O   0  0  0  0  0  0
   10.6298   36.0642   75.0246 C   0  0  0  0  0  0
    8.1931   42.1197   68.1868 C   0  0  0  0  0  0
    8.5327   42.7883   69.1400 O   0  0  0  0  0  0
    6.9986   42.2160   67.5400 O   0  0  0  0  0  0
   12.4824   43.2387   66.8017 H   0  0  0  0  0  0
    8.5632   40.6276   66.6776 H   0  0  0  0  0  0
   11.5370   44.6160   64.9517 H   0  0  0  0  0  0
   13.2277   44.2692   64.7459 H   0  0  0  0  0  0
   12.0223   43.3921   63.7964 H   0  0  0  0  0  0
   12.4956   40.6992   65.1400 H   0  0  0  0  0  0
   13.3197   41.0581   66.6265 H   0  0  0  0  0  0
   14.0317   41.9714   63.5278 H   0  0  0  0  0  0
   11.1693   40.9730   67.5820 H   0  0  0  0  0  0
   10.1813   39.4160   68.6325 H   0  0  0  0  0  0
    8.9210   40.1127   69.6017 H   0  0  0  0  0  0
    6.9210   38.9993   70.1483 H   0  0  0  0  0  0
    6.4656   37.4160   69.5780 H   0  0  0  0  0  0
    8.0401   35.4458   69.9316 H   0  0  0  0  0  0
    9.2390   34.3130   71.7463 H   0  0  0  0  0  0
   10.0176   38.1194   73.5400 H   0  0  0  0  0  0
    8.6434   39.2175   71.8387 H   0  0  0  0  0  0
   11.0900   35.3506   75.7082 H   0  0  0  0  0  0
   11.3210   36.8977   74.9035 H   0  0  0  0  0  0
    9.7164   36.4317   75.4955 H   0  0  0  0  0  0
    6.4532   42.9182   67.9417 H   0  0  0  0  0  0
  1  2  1  0  0  0
  1 25  1  0  0  0
  1 26  1  0  0  0
  1 27  1  0  0  0
  2 23  1  0  0  0
  2  3  1  0  0  0
  2  5  1  0  0  0
  3  4  1  0  0  0
  3 28  1  0  0  0
  3 29  1  0  0  0
  4 30  1  0  0  0
  5  6  2  0  0  0
  5  7  1  0  0  0
  7  8  1  0  0  0
  7 31  1  0  0  0
  8 24  1  0  0  0
  8  9  1  0  0  0
  8 20  1  0  0  0
  9 10  1  0  0  0
  9 32  1  0  0  0
  9 33  1  0  0  0
 10 11  1  0  0  0
 11 12  1  0  0  0
 11 34  1  0  0  0
 11 35  1  0  0  0
 12 17  1  0  0  0
 12 13  2  0  0  0
 13 14  1  0  0  0
 13 36  1  0  0  0
 14 15  2  0  0  0
 14 37  1  0  0  0
 15 16  1  0  0  0
 15 18  1  0  0  0
 16 17  2  0  0  0
 16 38  1  0  0  0
 17 39  1  0  0  0
 18 19  1  0  0  0
 19 40  1  0  0  0
 19 41  1  0  0  0
 19 42  1  0  0  0
 20 21  2  0  0  0
 20 22  1  0  0  0
 22 43  1  0  0  0
M  END
> <s_m_entry_id>
7360

> <s_m_entry_name>
ligand_docking-pose.235

> <s_m_Source_Path>
/home/csk/Desktop/cluster/DUD-E-result/lkha4

> <s_m_Source_File>
ligand_docking-pose.sdf

> <i_m_Source_File_Index>
235

> <i_lp_mmshare_version>
53161

> <r_lp_tautomer_probability>
1

> <s_lp_Force_Field>
OPLS_2005

> <r_lp_Energy>
5.217649

> <b_lp_Chiralities_Consistent>
1

> <s_lp_Variant>
496123-1

> <s_i_glide_gridfile>
glide-grid_3chp

> <i_i_glide_lignum>
306

> <i_i_glide_rotatable_bonds>
12

> <r_i_docking_score>
-8.28153311222322

> <r_i_glide_ligand_efficiency>
-0.376433323282874

> <r_i_glide_ligand_efficiency_sa>
-1.05478097612114

> <r_i_glide_ligand_efficiency_ln>
-2.02430876888724

> <r_i_glide_gscore>
-8.28153311222322

> <r_i_glide_lipo>
-4.13908218587797

> <r_i_glide_hbond>
0

> <r_i_glide_metal>
0

> <r_i_glide_rewards>
-1.93719047303027

> <r_i_glide_evdw>
-46.9135818481445

> <r_i_glide_ecoul>
-8.22006416320801

> <r_i_glide_erotb>
1.44767152639072

> <r_i_glide_esite>
-0.0742432628172763

> <r_i_glide_emodel>
-77.8578474855951

> <r_i_glide_energy>
-55.1336460113525

> <r_i_glide_einternal>
10.4387683868408

> <i_i_glide_confnum>
373

> <i_i_glide_posenum>
118

> <r_i_glide_eff_state_penalty>
0

> <i_f3d_flags>
0

> <s_user_duplicate_titles>
496123

> <s_m_subgroup_title>
dock_pv

> <s_m_subgroupid>
dock_pv1

> <b_m_subgroup_collapsed>
0

$$$$
496125
                    3D
 Schrodinger Suite 2021-1.
 46 46  0  0  1  0            999 V2000
   11.1723   35.0321   74.9662 C   0  0  0  0  0  0
   10.3330   36.1354   74.3174 C   0  0  0  0  0  0
    9.6132   35.5749   73.2208 O   0  0  0  0  0  0
    9.0579   36.4118   72.2712 C   0  0  0  0  0  0
    8.5210   35.8160   71.1399 C   0  0  0  0  0  0
    8.0555   36.5942   70.0765 C   0  0  0  0  0  0
    8.0780   37.9848   70.1629 C   0  0  0  0  0  0
    8.5210   38.5882   71.3350 C   0  0  0  0  0  0
    9.0309   37.8034   72.3630 C   0  0  0  0  0  0
    7.7481   38.8489   68.9570 C   0  0  0  0  0  0
    9.3210   39.4160   68.2617 S   0  0  0  0  0  0
    8.8978   40.3055   66.7400 C   0  0  0  0  0  0
    9.4045   41.7665   66.6710 C   0  0  1  0  0  0
    8.6875   42.6268   67.7333 C   0  0  0  0  0  0
    8.9210   42.6098   68.9217 O   0  0  0  0  0  0
    7.7210   43.3769   67.1400 O   0  0  0  0  0  0
   10.8713   41.8109   66.7400 N   0  0  0  0  0  0
   11.6682   42.5209   65.9193 C   0  0  0  0  0  0
   11.2329   43.3725   65.1403 O   0  0  0  0  0  0
   13.1811   42.1877   65.9285 C   0  0  2  0  0  0
   13.9920   43.4165   66.3859 C   0  0  0  0  0  0
   13.6512   41.6520   64.5405 C   0  0  0  0  0  0
   15.4566   41.4540   64.3400 S   0  0  0  0  0  0
    9.1187   42.1660   65.6946 H   0  0  0  0  0  0
   13.3238   41.3897   66.6574 H   0  0  0  0  0  0
   11.7210   35.4083   75.8298 H   0  0  0  0  0  0
   10.5439   34.2160   75.3077 H   0  0  0  0  0  0
   11.8906   34.6160   74.2600 H   0  0  0  0  0  0
   11.0084   36.9275   73.9899 H   0  0  0  0  0  0
    9.6367   36.5637   75.0405 H   0  0  0  0  0  0
    8.5210   34.7390   71.0721 H   0  0  0  0  0  0
    7.7210   36.1072   69.1729 H   0  0  0  0  0  0
    8.5276   39.6651   71.4205 H   0  0  0  0  0  0
    9.4306   38.2755   73.2338 H   0  0  0  0  0  0
    7.1458   39.7103   69.2494 H   0  0  0  0  0  0
    7.1901   38.2862   68.2070 H   0  0  0  0  0  0
    7.8304   40.2856   66.5591 H   0  0  0  0  0  0
    9.3470   39.7185   65.9400 H   0  0  0  0  0  0
    7.1402   43.8160   67.7808 H   0  0  0  0  0  0
   11.2768   41.1498   67.3850 H   0  0  0  0  0  0
   13.6031   43.8160   67.3210 H   0  0  0  0  0  0
   15.0404   43.1794   66.5606 H   0  0  0  0  0  0
   13.9524   44.2160   65.6446 H   0  0  0  0  0  0
   13.3209   42.3142   63.7374 H   0  0  0  0  0  0
   13.2071   40.6758   64.3448 H   0  0  0  0  0  0
   15.3941   41.4157   62.9924 H   0  0  0  0  0  0
  1  2  1  0  0  0
  1 26  1  0  0  0
  1 27  1  0  0  0
  1 28  1  0  0  0
  2  3  1  0  0  0
  2 29  1  0  0  0
  2 30  1  0  0  0
  3  4  1  0  0  0
  4  9  1  0  0  0
  4  5  2  0  0  0
  5  6  1  0  0  0
  5 31  1  0  0  0
  6  7  2  0  0  0
  6 32  1  0  0  0
  7  8  1  0  0  0
  7 10  1  0  0  0
  8  9  2  0  0  0
  8 33  1  0  0  0
  9 34  1  0  0  0
 10 11  1  0  0  0
 10 35  1  0  0  0
 10 36  1  0  0  0
 11 12  1  0  0  0
 12 13  1  0  0  0
 12 37  1  0  0  0
 12 38  1  0  0  0
 13 24  1  0  0  0
 13 14  1  0  0  0
 13 17  1  0  0  0
 14 15  2  0  0  0
 14 16  1  0  0  0
 16 39  1  0  0  0
 17 18  1  0  0  0
 17 40  1  0  0  0
 18 19  2  0  0  0
 18 20  1  0  0  0
 20 25  1  0  0  0
 20 21  1  0  0  0
 20 22  1  0  0  0
 21 41  1  0  0  0
 21 42  1  0  0  0
 21 43  1  0  0  0
 22 23  1  0  0  0
 22 44  1  0  0  0
 22 45  1  0  0  0
 23 46  1  0  0  0
M  END
> <s_m_entry_id>
7361

> <s_m_entry_name>
ligand_docking-pose.236

> <s_m_Source_Path>
/home/csk/Desktop/cluster/DUD-E-result/lkha4

> <s_m_Source_File>
ligand_docking-pose.sdf

> <i_m_Source_File_Index>
236

> <i_lp_mmshare_version>
53161

> <r_lp_tautomer_probability>
1

> <s_lp_Force_Field>
OPLS_2005

> <r_lp_Energy>
9.218897

> <b_lp_Chiralities_Consistent>
1

> <s_lp_Variant>
496125-1

> <s_i_glide_gridfile>
glide-grid_3chp

> <i_i_glide_lignum>
316

> <i_i_glide_rotatable_bonds>
13

> <r_i_docking_score>
-8.26581028705896

> <r_i_glide_ligand_efficiency>
-0.359383055959085

> <r_i_glide_ligand_efficiency_sa>
-1.02203760489199

> <r_i_glide_ligand_efficiency_ln>
-1.9987478776347

> <r_i_glide_gscore>
-8.26581028705896

> <r_i_glide_lipo>
-3.99523783288861

> <r_i_glide_hbond>
-0.152

> <r_i_glide_metal>
0

> <r_i_glide_rewards>
-1.86406030619191

> <r_i_glide_evdw>
-46.0127983093262

> <r_i_glide_ecoul>
-9.01267719268799

> <r_i_glide_erotb>
1.49802934639106

> <r_i_glide_esite>
-0.1

> <r_i_glide_emodel>
-74.9172439020425

> <r_i_glide_energy>
-55.0254755020142

> <r_i_glide_einternal>
13.1687536239624

> <i_i_glide_confnum>
245

> <i_i_glide_posenum>
84

> <r_i_glide_eff_state_penalty>
0

> <i_f3d_flags>
0

> <s_user_duplicate_titles>
496125

> <s_m_subgroup_title>
dock_pv

> <s_m_subgroupid>
dock_pv1

> <b_m_subgroup_collapsed>
0

$$$$
496195
                    3D
 Schrodinger Suite 2021-1.
 51 51  0  0  1  0            999 V2000
   12.7727   44.1223   64.5036 C   0  0  0  0  0  0
   12.4400   43.2207   65.7265 C   0  0  2  0  0  0
   13.3037   41.9195   65.8326 C   0  0  0  0  0  0
   14.7645   41.8160   64.7400 S   0  0  0  0  0  0
   10.9120   42.9870   65.8969 C   0  0  0  0  0  0
   10.1210   43.5499   65.1401 O   0  0  0  0  0  0
   10.4833   42.1650   66.8755 N   0  0  0  0  0  0
    9.0846   41.7270   67.0466 C   0  0  1  0  0  0
    8.9828   40.1770   66.9486 C   0  0  0  0  0  0
    9.3210   39.3060   68.5130 S   0  0  0  0  0  0
    7.8286   38.5532   69.2198 C   0  0  1  0  0  0
    7.0685   37.7161   68.1867 C   0  0  0  0  0  0
    8.2513   37.7479   70.4725 C   0  0  0  0  0  0
    8.8542   38.4063   71.5399 C   0  0  0  0  0  0
    9.3885   37.6931   72.6139 C   0  0  0  0  0  0
    9.2690   36.3089   72.6975 C   0  0  0  0  0  0
    8.6077   35.6475   71.6605 C   0  0  0  0  0  0
    8.1210   36.3590   70.5629 C   0  0  0  0  0  0
    9.7921   35.5244   73.9187 C   0  0  0  0  0  0
   10.2880   36.3650   75.1137 C   0  0  0  0  0  0
   10.8338   34.4470   73.5677 C   0  0  0  0  0  0
    8.4059   42.2981   68.3172 C   0  0  0  0  0  0
    8.9345   43.0160   69.1370 O   0  0  0  0  0  0
    7.1363   41.8159   68.4010 O   0  0  0  0  0  0
   12.6916   43.8162   66.6019 H   0  0  0  0  0  0
    8.4969   42.1368   66.2236 H   0  0  0  0  0  0
   12.1530   45.0155   64.4691 H   0  0  0  0  0  0
   13.8003   44.4811   64.5377 H   0  0  0  0  0  0
   12.6308   43.5917   63.5611 H   0  0  0  0  0  0
   12.7129   41.0178   65.6593 H   0  0  0  0  0  0
   13.7012   41.8444   66.8410 H   0  0  0  0  0  0
   15.1397   43.0939   64.8604 H   0  0  0  0  0  0
   11.1435   41.7636   67.5241 H   0  0  0  0  0  0
    8.0390   39.8715   66.5262 H   0  0  0  0  0  0
    9.7151   39.8056   66.2298 H   0  0  0  0  0  0
    7.1901   39.3721   69.5514 H   0  0  0  0  0  0
    6.1062   37.4160   68.5890 H   0  0  0  0  0  0
    6.8795   38.2160   67.2457 H   0  0  0  0  0  0
    7.6439   36.8273   67.9399 H   0  0  0  0  0  0
    8.9210   39.4823   71.5167 H   0  0  0  0  0  0
    9.8947   38.2160   73.4027 H   0  0  0  0  0  0
    8.4732   34.5760   71.6924 H   0  0  0  0  0  0
    7.6343   35.8159   69.7776 H   0  0  0  0  0  0
    8.9211   35.0160   74.3067 H   0  0  0  0  0  0
    9.5004   37.0152   75.4931 H   0  0  0  0  0  0
   10.5889   35.7212   75.9402 H   0  0  0  0  0  0
   11.1498   36.9806   74.8544 H   0  0  0  0  0  0
   10.6372   33.9547   72.6151 H   0  0  0  0  0  0
   11.8271   34.8817   73.5399 H   0  0  0  0  0  0
   10.8758   33.6722   74.3338 H   0  0  0  0  0  0
    6.9001   41.2629   67.6587 H   0  0  0  0  0  0
  1  2  1  0  0  0
  1 27  1  0  0  0
  1 28  1  0  0  0
  1 29  1  0  0  0
  2 25  1  0  0  0
  2  3  1  0  0  0
  2  5  1  0  0  0
  3  4  1  0  0  0
  3 30  1  0  0  0
  3 31  1  0  0  0
  4 32  1  0  0  0
  5  6  2  0  0  0
  5  7  1  0  0  0
  7  8  1  0  0  0
  7 33  1  0  0  0
  8 26  1  0  0  0
  8  9  1  0  0  0
  8 22  1  0  0  0
  9 10  1  0  0  0
  9 34  1  0  0  0
  9 35  1  0  0  0
 10 11  1  0  0  0
 11 12  1  0  0  0
 11 13  1  0  0  0
 11 36  1  0  0  0
 12 37  1  0  0  0
 12 38  1  0  0  0
 12 39  1  0  0  0
 13 18  1  0  0  0
 13 14  2  0  0  0
 14 15  1  0  0  0
 14 40  1  0  0  0
 15 16  2  0  0  0
 15 41  1  0  0  0
 16 17  1  0  0  0
 16 19  1  0  0  0
 17 18  2  0  0  0
 17 42  1  0  0  0
 18 43  1  0  0  0
 19 20  1  0  0  0
 19 21  1  0  0  0
 19 44  1  0  0  0
 20 45  1  0  0  0
 20 46  1  0  0  0
 20 47  1  0  0  0
 21 48  1  0  0  0
 21 49  1  0  0  0
 21 50  1  0  0  0
 22 23  2  0  0  0
 22 24  1  0  0  0
 24 51  1  0  0  0
M  END
> <s_m_entry_id>
7362

> <s_m_entry_name>
ligand_docking-pose.237

> <s_m_Source_Path>
/home/csk/Desktop/cluster/DUD-E-result/lkha4

> <s_m_Source_File>
ligand_docking-pose.sdf

> <i_m_Source_File_Index>
237

> <i_lp_mmshare_version>
53161

> <r_lp_tautomer_probability>
1

> <s_lp_Force_Field>
OPLS_2005

> <r_lp_Energy>
-0.899595

> <b_lp_Chiralities_Consistent>
1

> <s_lp_Variant>
496195-2

> <s_i_glide_gridfile>
glide-grid_3chp

> <i_i_glide_lignum>
311

> <i_i_glide_rotatable_bonds>
12

> <r_i_docking_score>
-8.25962965824443

> <r_i_glide_ligand_efficiency>
-0.344151235760185

> <r_i_glide_ligand_efficiency_sa>
-0.992703942740158

> <r_i_glide_ligand_efficiency_ln>
-1.97690838692631

> <r_i_glide_gscore>
-8.25962965824443

> <r_i_glide_lipo>
-4.88798669669186

> <r_i_glide_hbond>
-0.0803165733783707

> <r_i_glide_metal>
0

> <r_i_glide_rewards>
-1.78794227252249

> <r_i_glide_evdw>
-44.5449485778809

> <r_i_glide_ecoul>
-2.97936701774597

> <r_i_glide_erotb>
1.27076836590423

> <r_i_glide_esite>
-0.1

> <r_i_glide_emodel>
-61.0334986316409

> <r_i_glide_energy>
-47.5243155956268

> <r_i_glide_einternal>
12.2988967895508

> <i_i_glide_confnum>
336

> <i_i_glide_posenum>
39

> <r_i_glide_eff_state_penalty>
0

> <i_f3d_flags>
0

> <s_user_duplicate_titles>
496195

> <s_m_subgroup_title>
dock_pv

> <s_m_subgroupid>
dock_pv1

> <b_m_subgroup_collapsed>
0

$$$$
495978
                    3D
 Schrodinger Suite 2021-1.
 39 39  0  0  1  0            999 V2000
   13.9478   43.4162   66.3398 C   0  0  0  0  0  0
   13.2166   42.1193   65.9235 C   0  0  2  0  0  0
   13.6972   41.5848   64.5390 C   0  0  0  0  0  0
   15.5084   41.4583   64.3400 S   0  0  0  0  0  0
   11.6850   42.3438   65.9400 C   0  0  0  0  0  0
   11.1894   43.2137   65.2202 O   0  0  0  0  0  0
   10.9389   41.5471   66.7340 N   0  0  0  0  0  0
    9.4684   41.5348   66.7666 C   0  0  1  0  0  0
    8.9036   40.1081   67.0731 C   0  0  0  0  0  0
    8.1685   39.8406   68.7370 S   0  0  0  0  0  0
    8.1769   38.0411   68.8595 C   0  0  0  0  0  0
    8.5213   37.5172   70.2480 C   0  0  0  0  0  0
    9.3212   38.2164   71.1561 C   0  0  0  0  0  0
    9.7177   37.6121   72.3480 C   0  0  0  0  0  0
    9.3220   36.3105   72.6353 C   0  0  0  0  0  0
    8.5210   35.6134   71.7387 C   0  0  0  0  0  0
    8.1209   36.2287   70.5586 C   0  0  0  0  0  0
    9.8435   35.5573   74.0969 Cl  0  0  0  0  0  0
    8.8735   42.6194   67.6818 C   0  0  0  0  0  0
    9.3210   42.9184   68.7657 O   0  0  0  0  0  0
    7.7210   43.0966   67.1401 O   0  0  0  0  0  0
   13.4274   41.3532   66.6671 H   0  0  0  0  0  0
    9.1662   41.8161   65.7592 H   0  0  0  0  0  0
   13.5454   43.8157   67.2697 H   0  0  0  0  0  0
   15.0124   43.2555   66.5043 H   0  0  0  0  0  0
   13.8439   44.1957   65.5820 H   0  0  0  0  0  0
   13.3306   42.2224   63.7317 H   0  0  0  0  0  0
   13.2984   40.5867   64.3564 H   0  0  0  0  0  0
   15.4499   41.4154   62.9930 H   0  0  0  0  0  0
   11.3866   40.8642   67.3246 H   0  0  0  0  0  0
    8.1212   39.8699   66.3530 H   0  0  0  0  0  0
    9.6751   39.3561   66.9019 H   0  0  0  0  0  0
    7.1954   37.6826   68.5462 H   0  0  0  0  0  0
    8.9013   37.6251   68.1590 H   0  0  0  0  0  0
    9.6667   39.2133   70.9341 H   0  0  0  0  0  0
   10.3393   38.1473   73.0502 H   0  0  0  0  0  0
    8.2095   34.5997   71.9397 H   0  0  0  0  0  0
    7.5005   35.7213   69.8459 H   0  0  0  0  0  0
    7.2090   43.6498   67.7478 H   0  0  0  0  0  0
  1  2  1  0  0  0
  1 24  1  0  0  0
  1 25  1  0  0  0
  1 26  1  0  0  0
  2 22  1  0  0  0
  2  3  1  0  0  0
  2  5  1  0  0  0
  3  4  1  0  0  0
  3 27  1  0  0  0
  3 28  1  0  0  0
  4 29  1  0  0  0
  5  6  2  0  0  0
  5  7  1  0  0  0
  7  8  1  0  0  0
  7 30  1  0  0  0
  8 23  1  0  0  0
  8  9  1  0  0  0
  8 19  1  0  0  0
  9 10  1  0  0  0
  9 31  1  0  0  0
  9 32  1  0  0  0
 10 11  1  0  0  0
 11 12  1  0  0  0
 11 33  1  0  0  0
 11 34  1  0  0  0
 12 17  1  0  0  0
 12 13  2  0  0  0
 13 14  1  0  0  0
 13 35  1  0  0  0
 14 15  2  0  0  0
 14 36  1  0  0  0
 15 16  1  0  0  0
 15 18  1  0  0  0
 16 17  2  0  0  0
 16 37  1  0  0  0
 17 38  1  0  0  0
 19 20  2  0  0  0
 19 21  1  0  0  0
 21 39  1  0  0  0
M  END
> <s_m_entry_id>
7364

> <s_m_entry_name>
ligand_docking-pose.239

> <s_m_Source_Path>
/home/csk/Desktop/cluster/DUD-E-result/lkha4

> <s_m_Source_File>
ligand_docking-pose.sdf

> <i_m_Source_File_Index>
239

> <i_lp_mmshare_version>
53161

> <r_lp_tautomer_probability>
1

> <s_lp_Force_Field>
OPLS_2005

> <r_lp_Energy>
-0.283833

> <b_lp_Chiralities_Consistent>
1

> <s_lp_Variant>
495978-1

> <s_i_glide_gridfile>
glide-grid_3chp

> <i_i_glide_lignum>
301

> <i_i_glide_rotatable_bonds>
11

> <r_i_docking_score>
-8.20929394026675

> <r_i_glide_ligand_efficiency>
-0.390918759060321

> <r_i_glide_ligand_efficiency_sa>
-1.07851521427791

> <r_i_glide_ligand_efficiency_ln>
-2.02973133829061

> <r_i_glide_gscore>
-8.20929394026675

> <r_i_glide_lipo>
-3.93498782530183

> <r_i_glide_hbond>
-0.152

> <r_i_glide_metal>
0

> <r_i_glide_rewards>
-1.93686711569038

> <r_i_glide_evdw>
-44.2426414489746

> <r_i_glide_ecoul>
-7.54164361953735

> <r_i_glide_erotb>
1.25793961610479

> <r_i_glide_esite>
-0.1

> <r_i_glide_emodel>
-68.799018334904

> <r_i_glide_energy>
-51.784285068512

> <r_i_glide_einternal>
21.6921138763428

> <i_i_glide_confnum>
80

> <i_i_glide_posenum>
301

> <r_i_glide_eff_state_penalty>
0

> <i_f3d_flags>
0

> <s_user_duplicate_titles>
495978

> <s_m_subgroup_title>
dock_pv

> <s_m_subgroupid>
dock_pv1

> <b_m_subgroup_collapsed>
0

$$$$
496052
                    3D
 Schrodinger Suite 2021-1.
 51 51  0  0  1  0            999 V2000
   12.6201   44.0552   64.6104 C   0  0  0  0  0  0
   12.3049   43.0272   65.7322 C   0  0  2  0  0  0
   13.1082   41.6883   65.6177 C   0  0  0  0  0  0
   14.7121   41.8151   64.7400 S   0  0  0  0  0  0
   10.7731   42.8380   65.9403 C   0  0  0  0  0  0
    9.9861   43.6798   65.5072 O   0  0  0  0  0  0
   10.3325   41.7441   66.5915 N   0  0  0  0  0  0
    8.9120   41.3927   66.7803 C   0  0  1  0  0  0
    8.7216   39.8485   66.7400 C   0  0  0  0  0  0
    9.1887   39.0667   68.2940 S   0  0  0  0  0  0
    7.7174   38.2191   68.9116 C   0  0  0  0  0  0
    8.0964   37.5939   70.2434 C   0  0  0  0  0  0
    8.1684   36.2160   70.4203 C   0  0  0  0  0  0
    8.7169   35.6707   71.5913 C   0  0  0  0  0  0
    9.2012   36.5082   72.6107 C   0  0  0  0  0  0
    9.0580   37.8748   72.4120 C   0  0  0  0  0  0
    8.5090   38.4238   71.2715 C   0  0  0  0  0  0
    9.9060   36.0051   73.9070 C   0  0  0  0  0  0
   11.0931   36.9052   74.3571 C   0  0  0  0  0  0
   10.4831   34.5758   73.7447 C   0  0  0  0  0  0
    8.9144   36.0579   75.0800 C   0  0  0  0  0  0
    8.2571   42.0852   68.0016 C   0  0  0  0  0  0
    8.8488   42.7699   68.8078 O   0  0  0  0  0  0
    6.9210   41.8160   68.0222 O   0  0  0  0  0  0
   12.6271   43.5071   66.6571 H   0  0  0  0  0  0
    8.3668   41.8162   65.9400 H   0  0  0  0  0  0
   12.0538   44.9734   64.7399 H   0  0  0  0  0  0
   13.6664   44.3627   64.6151 H   0  0  0  0  0  0
   12.3894   43.6578   63.6216 H   0  0  0  0  0  0
   13.3144   41.2999   66.6155 H   0  0  0  0  0  0
   12.5252   40.9121   65.1217 H   0  0  0  0  0  0
   14.2169   41.9761   63.5042 H   0  0  0  0  0  0
   10.9922   41.0803   66.9670 H   0  0  0  0  0  0
    9.3572   39.4135   65.9670 H   0  0  0  0  0  0
    7.7211   39.5401   66.4558 H   0  0  0  0  0  0
    7.3836   37.4715   68.1907 H   0  0  0  0  0  0
    6.9211   38.9485   69.0432 H   0  0  0  0  0  0
    7.8751   35.5739   69.6095 H   0  0  0  0  0  0
    8.7819   34.5968   71.6711 H   0  0  0  0  0  0
    9.3932   38.5741   73.1400 H   0  0  0  0  0  0
    8.4735   39.4980   71.1613 H   0  0  0  0  0  0
   11.6998   36.4244   75.1331 H   0  0  0  0  0  0
   10.7916   37.8160   74.8370 H   0  0  0  0  0  0
   11.7209   37.2421   73.5401 H   0  0  0  0  0  0
    9.7210   33.8283   73.5411 H   0  0  0  0  0  0
   11.2038   34.5343   72.9296 H   0  0  0  0  0  0
   10.9982   34.2418   74.6472 H   0  0  0  0  0  0
    8.0538   35.4161   74.9307 H   0  0  0  0  0  0
    9.3921   35.8161   76.0301 H   0  0  0  0  0  0
    8.5210   37.0446   75.2302 H   0  0  0  0  0  0
    6.4541   42.4515   68.5860 H   0  0  0  0  0  0
  1  2  1  0  0  0
  1 27  1  0  0  0
  1 28  1  0  0  0
  1 29  1  0  0  0
  2 25  1  0  0  0
  2  3  1  0  0  0
  2  5  1  0  0  0
  3  4  1  0  0  0
  3 30  1  0  0  0
  3 31  1  0  0  0
  4 32  1  0  0  0
  5  6  2  0  0  0
  5  7  1  0  0  0
  7  8  1  0  0  0
  7 33  1  0  0  0
  8 26  1  0  0  0
  8  9  1  0  0  0
  8 22  1  0  0  0
  9 10  1  0  0  0
  9 34  1  0  0  0
  9 35  1  0  0  0
 10 11  1  0  0  0
 11 12  1  0  0  0
 11 36  1  0  0  0
 11 37  1  0  0  0
 12 17  1  0  0  0
 12 13  2  0  0  0
 13 14  1  0  0  0
 13 38  1  0  0  0
 14 15  2  0  0  0
 14 39  1  0  0  0
 15 16  1  0  0  0
 15 18  1  0  0  0
 16 17  2  0  0  0
 16 40  1  0  0  0
 17 41  1  0  0  0
 18 19  1  0  0  0
 18 20  1  0  0  0
 18 21  1  0  0  0
 19 42  1  0  0  0
 19 43  1  0  0  0
 19 44  1  0  0  0
 20 45  1  0  0  0
 20 46  1  0  0  0
 20 47  1  0  0  0
 21 48  1  0  0  0
 21 49  1  0  0  0
 21 50  1  0  0  0
 22 23  2  0  0  0
 22 24  1  0  0  0
 24 51  1  0  0  0
M  END
> <s_m_entry_id>
7367

> <s_m_entry_name>
ligand_docking-pose.242

> <s_m_Source_Path>
/home/csk/Desktop/cluster/DUD-E-result/lkha4

> <s_m_Source_File>
ligand_docking-pose.sdf

> <i_m_Source_File_Index>
242

> <i_lp_mmshare_version>
53161

> <r_lp_tautomer_probability>
1

> <s_lp_Force_Field>
OPLS_2005

> <r_lp_Energy>
5.123003

> <b_lp_Chiralities_Consistent>
1

> <s_lp_Variant>
496052-1

> <s_i_glide_gridfile>
glide-grid_3chp

> <i_i_glide_lignum>
298

> <i_i_glide_rotatable_bonds>
12

> <r_i_docking_score>
-8.14693819131507

> <r_i_glide_ligand_efficiency>
-0.339455757971461

> <r_i_glide_ligand_efficiency_sa>
-0.979159841108157

> <r_i_glide_ligand_efficiency_ln>
-1.94993614781564

> <r_i_glide_gscore>
-8.14693819131507

> <r_i_glide_lipo>
-4.74436000974422

> <r_i_glide_hbond>
-0.0517195114956216

> <r_i_glide_metal>
0

> <r_i_glide_rewards>
-1.78935665214462

> <r_i_glide_evdw>
-34.1428451538086

> <r_i_glide_ecoul>
-6.83418750762939

> <r_i_glide_erotb>
1.27076836590423

> <r_i_glide_esite>
-0.1

> <r_i_glide_emodel>
-41.2685844332354

> <r_i_glide_energy>
-40.977032661438

> <r_i_glide_einternal>
9.86735534667969

> <i_i_glide_confnum>
326

> <i_i_glide_posenum>
369

> <r_i_glide_eff_state_penalty>
0

> <i_f3d_flags>
0

> <s_user_duplicate_titles>
496052

> <s_m_subgroup_title>
dock_pv

> <s_m_subgroupid>
dock_pv1

> <b_m_subgroup_collapsed>
0

$$$$
467587
                    3D
 Schrodinger Suite 2021-1.
 64 68  0  0  1  0            999 V2000
   10.0108   35.9252   74.0892 C   0  0  0  0  0  0
    9.5045   35.5299   72.8180 O   0  0  0  0  0  0
    9.0209   36.4933   71.9542 C   0  0  0  0  0  0
    9.0176   37.8606   72.2083 C   0  0  0  0  0  0
    8.5213   38.7604   71.2625 C   0  0  0  0  0  0
    8.0122   38.3075   70.0474 C   0  0  0  0  0  0
    8.0210   36.9452   69.7864 C   0  0  0  0  0  0
    8.5201   36.0599   70.7397 C   0  0  0  0  0  0
    7.4288   39.1639   69.1399 O   0  0  0  0  0  0
    8.2076   40.0747   68.4702 C   0  0  0  0  0  0
    8.1127   41.4304   68.7778 C   0  0  0  0  0  0
    8.9211   42.3556   68.1212 C   0  0  0  0  0  0
    9.8236   41.9389   67.1406 C   0  0  0  0  0  0
    9.8222   40.5912   66.7564 C   0  0  0  0  0  0
    9.0335   39.6609   67.4287 C   0  0  0  0  0  0
   10.7051   42.9057   66.6114 N   0  0  0  0  0  0
   11.7263   42.5935   65.6072 C   0  0  2  0  0  0
   12.7938   41.6129   66.1628 C   0  0  0  0  0  0
   14.1321   41.5279   65.3757 C   0  0  1  0  0  0
   13.9853   41.1301   63.9400 C   0  0  0  0  0  0
   13.5641   42.4569   63.3141 C   0  0  0  0  0  0
   13.7560   43.5380   64.3602 C   0  0  1  0  0  0
   12.4372   43.8647   65.1284 C   0  0  0  0  0  0
   14.7458   42.8408   65.1642 N   0  0  1  0  0  0
   15.2618   43.5855   66.2956 C   0  0  0  0  0  0
   16.7812   43.5674   66.4573 C   0  0  0  0  0  0
   17.3206   43.9442   67.6878 C   0  0  0  0  0  0
   18.6968   43.9849   67.8728 C   0  0  0  0  0  0
   19.5615   43.6559   66.8233 C   0  0  0  0  0  0
   19.0208   43.3000   65.5788 C   0  0  0  0  0  0
   17.6406   43.2569   65.3998 C   0  0  0  0  0  0
   21.0500   43.7515   67.0352 C   0  0  0  0  0  0
   21.5368   44.4350   67.9383 O   0  0  0  0  0  0
   21.7971   43.0156   66.1644 O   0  0  0  0  0  0
   14.7756   40.7844   65.8146 H   0  0  0  0  0  0
   14.1210   44.4597   63.9402 H   0  0  0  0  0  0
   10.3400   35.0416   74.6357 H   0  0  0  0  0  0
   10.8705   36.5897   73.9898 H   0  0  0  0  0  0
    9.2449   36.4182   74.6903 H   0  0  0  0  0  0
    9.4018   38.2305   73.1400 H   0  0  0  0  0  0
    8.5211   39.8157   71.4813 H   0  0  0  0  0  0
    7.6443   36.5770   68.8462 H   0  0  0  0  0  0
    8.5210   35.0132   70.5301 H   0  0  0  0  0  0
    7.4240   41.7628   69.5399 H   0  0  0  0  0  0
    8.8567   43.3960   68.4016 H   0  0  0  0  0  0
   10.4259   40.2323   65.9402 H   0  0  0  0  0  0
    9.0678   38.6187   67.1456 H   0  0  0  0  0  0
   10.3110   43.8358   66.5733 H   0  0  0  0  0  0
   11.1735   42.2156   64.7555 H   0  0  0  0  0  0
   12.4068   40.6160   66.2841 H   0  0  0  0  0  0
   13.0505   41.9677   67.1400 H   0  0  0  0  0  0
   13.3209   40.2874   63.7812 H   0  0  0  0  0  0
   14.9535   40.8252   63.5401 H   0  0  0  0  0  0
   12.5210   42.4625   63.1400 H   0  0  0  0  0  0
   14.1013   42.6160   62.3928 H   0  0  0  0  0  0
   12.6411   44.5354   65.9483 H   0  0  0  0  0  0
   11.7697   44.4097   64.4665 H   0  0  0  0  0  0
   14.7699   43.1733   67.1448 H   0  0  0  0  0  0
   14.9456   44.6160   66.2528 H   0  0  0  0  0  0
   16.6702   44.2158   68.5071 H   0  0  0  0  0  0
   19.0814   44.2739   68.8410 H   0  0  0  0  0  0
   19.6464   43.0825   64.7235 H   0  0  0  0  0  0
   17.2473   43.0159   64.4206 H   0  0  0  0  0  0
   21.2498   42.4613   65.6063 H   0  0  0  0  0  0
  1  2  1  0  0  0
  1 37  1  0  0  0
  1 38  1  0  0  0
  1 39  1  0  0  0
  2  3  1  0  0  0
  3  8  1  0  0  0
  3  4  2  0  0  0
  4  5  1  0  0  0
  4 40  1  0  0  0
  5  6  2  0  0  0
  5 41  1  0  0  0
  6  7  1  0  0  0
  6  9  1  0  0  0
  7  8  2  0  0  0
  7 42  1  0  0  0
  8 43  1  0  0  0
  9 10  1  0  0  0
 10 15  1  0  0  0
 10 11  2  0  0  0
 11 12  1  0  0  0
 11 44  1  0  0  0
 12 13  2  0  0  0
 12 45  1  0  0  0
 13 14  1  0  0  0
 13 16  1  0  0  0
 14 15  2  0  0  0
 14 46  1  0  0  0
 15 47  1  0  0  0
 16 17  1  0  0  0
 16 48  1  0  0  0
 17 23  1  0  0  0
 17 18  1  0  0  0
 17 49  1  0  0  0
 18 19  1  0  0  0
 18 50  1  0  0  0
 18 51  1  0  0  0
 19 35  1  0  0  0
 19 24  1  0  0  0
 19 20  1  0  0  0
 20 21  1  0  0  0
 20 52  1  0  0  0
 20 53  1  0  0  0
 21 22  1  0  0  0
 21 54  1  0  0  0
 21 55  1  0  0  0
 22 36  1  0  0  0
 22 23  1  0  0  0
 22 24  1  0  0  0
 23 56  1  0  0  0
 23 57  1  0  0  0
 24 25  1  0  0  0
 25 26  1  0  0  0
 25 58  1  0  0  0
 25 59  1  0  0  0
 26 31  1  0  0  0
 26 27  2  0  0  0
 27 28  1  0  0  0
 27 60  1  0  0  0
 28 29  2  0  0  0
 28 61  1  0  0  0
 29 30  1  0  0  0
 29 32  1  0  0  0
 30 31  2  0  0  0
 30 62  1  0  0  0
 31 63  1  0  0  0
 32 33  2  0  0  0
 32 34  1  0  0  0
 34 64  1  0  0  0
M  END
> <s_m_entry_id>
7369

> <s_m_entry_name>
ligand_docking-pose.244

> <s_m_Source_Path>
/home/csk/Desktop/cluster/DUD-E-result/lkha4

> <s_m_Source_File>
ligand_docking-pose.sdf

> <i_m_Source_File_Index>
244

> <i_lp_mmshare_version>
53161

> <r_lp_tautomer_probability>
1

> <s_lp_Force_Field>
OPLS_2005

> <r_lp_Energy>
62.394935

> <b_lp_Chiralities_Consistent>
1

> <s_lp_Variant>
467587-1

> <s_i_glide_gridfile>
glide-grid_3chp

> <i_i_glide_lignum>
401

> <i_i_glide_rotatable_bonds>
9

> <r_i_docking_score>
-8.12856810824854

> <r_i_glide_ligand_efficiency>
-0.239075532595545

> <r_i_glide_ligand_efficiency_sa>
-0.774511915882826

> <r_i_glide_ligand_efficiency_ln>
-1.79582869372471

> <r_i_glide_gscore>
-8.12856810824854

> <r_i_glide_lipo>
-5.17353002762275

> <r_i_glide_hbond>
0

> <r_i_glide_metal>
0

> <r_i_glide_rewards>
-0.37709200422934

> <r_i_glide_evdw>
-45.9058227539062

> <r_i_glide_ecoul>
-6.34838676452637

> <r_i_glide_erotb>
0.669603075977818

> <r_i_glide_esite>
0

> <r_i_glide_emodel>
-58.8189383808301

> <r_i_glide_energy>
-52.2542095184326

> <r_i_glide_einternal>
9.48648166656494

> <i_i_glide_confnum>
30

> <i_i_glide_posenum>
15

> <r_i_glide_eff_state_penalty>
0

> <i_f3d_flags>
0

> <s_user_duplicate_titles>
467587

> <s_m_subgroup_title>
dock_pv

> <s_m_subgroupid>
dock_pv1

> <b_m_subgroup_collapsed>
0

$$$$
554506
                    3D
 Schrodinger Suite 2021-1.
 47 50  0  0  1  0            999 V2000
    8.0418   41.4560   68.6880 C   0  0  0  0  0  0
    8.4825   42.4618   67.8220 C   0  0  0  0  0  0
    9.4540   42.1702   66.8541 C   0  0  0  0  0  0
    9.8946   40.8536   66.7012 C   0  0  0  0  0  0
    9.3867   39.8457   67.4938 C   0  0  0  0  0  0
    8.5125   40.1497   68.5246 C   0  0  0  0  0  0
    8.2276   39.0160   69.4271 C   0  0  0  0  0  0
    7.7438   37.7720   69.0060 C   0  0  0  0  0  0
    7.7188   36.8356   70.0214 C   0  0  0  0  0  0
    8.2311   37.4740   71.5400 S   0  0  0  0  0  0
    8.5210   39.0008   70.7832 C   0  0  0  0  0  0
   10.0126   43.2142   65.9400 C   0  0  0  0  0  0
    9.3210   44.1232   65.4921 O   0  0  0  0  0  0
   11.4612   43.1516   65.5945 C   0  0  0  0  0  0
   11.9553   43.4838   64.3386 C   0  0  0  0  0  0
   13.3210   43.4160   64.0666 C   0  0  0  0  0  0
   14.2256   43.0749   65.0683 C   0  0  0  0  0  0
   13.7210   42.8235   66.3373 C   0  0  0  0  0  0
   12.3641   42.8345   66.5914 C   0  0  0  0  0  0
   15.5683   43.0160   64.7400 O   0  0  0  0  0  0
   16.5919   42.7920   65.7137 C   0  0  0  0  0  0
   17.8498   43.6259   65.3621 C   0  0  2  0  0  0
   19.1907   42.8977   65.5589 C   0  0  0  0  0  0
   19.7237   43.3538   66.9146 C   0  0  0  0  0  0
   18.6808   44.3532   67.4029 C   0  0  0  0  0  0
   17.9915   44.8098   66.2065 N   0  0  1  0  0  0
   17.7708   43.9910   64.3400 H   0  0  0  0  0  0
    7.3412   41.6921   69.4766 H   0  0  0  0  0  0
    8.1011   43.4681   67.9400 H   0  0  0  0  0  0
   10.6147   40.5848   65.9400 H   0  0  0  0  0  0
    9.7210   38.8306   67.3421 H   0  0  0  0  0  0
    7.4586   37.5541   67.9867 H   0  0  0  0  0  0
    7.3909   35.8160   69.9474 H   0  0  0  0  0  0
    8.9036   39.8160   71.3699 H   0  0  0  0  0  0
   11.2816   43.7566   63.5433 H   0  0  0  0  0  0
   13.6948   43.6375   63.0786 H   0  0  0  0  0  0
   14.3757   42.6160   67.1400 H   0  0  0  0  0  0
   12.0021   42.6186   67.5731 H   0  0  0  0  0  0
   16.3059   43.0160   66.7386 H   0  0  0  0  0  0
   16.8203   41.7283   65.6752 H   0  0  0  0  0  0
   19.0743   41.8160   65.5400 H   0  0  0  0  0  0
   19.8749   43.1281   64.7400 H   0  0  0  0  0  0
   19.8233   42.5189   67.6097 H   0  0  0  0  0  0
   20.7055   43.8191   66.8159 H   0  0  0  0  0  0
   17.9927   43.8948   68.1156 H   0  0  0  0  0  0
   19.1479   45.2035   67.9001 H   0  0  0  0  0  0
   18.6212   45.4145   65.6988 H   0  0  0  0  0  0
  1  6  1  0  0  0
  1  2  2  0  0  0
  1 28  1  0  0  0
  2  3  1  0  0  0
  2 29  1  0  0  0
  3  4  2  0  0  0
  3 12  1  0  0  0
  4  5  1  0  0  0
  4 30  1  0  0  0
  5  6  2  0  0  0
  5 31  1  0  0  0
  6  7  1  0  0  0
  7 11  2  0  0  0
  7  8  1  0  0  0
  8  9  2  0  0  0
  8 32  1  0  0  0
  9 10  1  0  0  0
  9 33  1  0  0  0
 10 11  1  0  0  0
 11 34  1  0  0  0
 12 13  2  0  0  0
 12 14  1  0  0  0
 14 19  1  0  0  0
 14 15  2  0  0  0
 15 16  1  0  0  0
 15 35  1  0  0  0
 16 17  2  0  0  0
 16 36  1  0  0  0
 17 18  1  0  0  0
 17 20  1  0  0  0
 18 19  2  0  0  0
 18 37  1  0  0  0
 19 38  1  0  0  0
 20 21  1  0  0  0
 21 22  1  0  0  0
 21 39  1  0  0  0
 21 40  1  0  0  0
 22 27  1  0  0  0
 22 26  1  0  0  0
 22 23  1  0  0  0
 23 24  1  0  0  0
 23 41  1  0  0  0
 23 42  1  0  0  0
 24 25  1  0  0  0
 24 43  1  0  0  0
 24 44  1  0  0  0
 25 26  1  0  0  0
 25 45  1  0  0  0
 25 46  1  0  0  0
 26 47  1  0  0  0
M  END
> <s_m_entry_id>
7374

> <s_m_entry_name>
ligand_docking-pose.249

> <s_m_Source_Path>
/home/csk/Desktop/cluster/DUD-E-result/lkha4

> <s_m_Source_File>
ligand_docking-pose.sdf

> <i_m_Source_File_Index>
249

> <i_lp_mmshare_version>
53161

> <r_lp_tautomer_probability>
1

> <s_lp_Force_Field>
OPLS_2005

> <r_lp_Energy>
43.590152

> <b_lp_Chiralities_Consistent>
1

> <s_lp_Variant>
554506-1

> <s_i_glide_gridfile>
glide-grid_3chp

> <i_i_glide_lignum>
48

> <i_i_glide_rotatable_bonds>
6

> <r_i_docking_score>
-8.08376068035502

> <r_i_glide_ligand_efficiency>
-0.310913872321347

> <r_i_glide_ligand_efficiency_sa>
-0.921081123364978

> <r_i_glide_ligand_efficiency_ln>
-1.89844467079911

> <r_i_glide_gscore>
-8.08376068035502

> <r_i_glide_lipo>
-4.47515060587944

> <r_i_glide_hbond>
-0.307354201149074

> <r_i_glide_metal>
0

> <r_i_glide_rewards>
-1.83069158785417

> <r_i_glide_evdw>
-47.5274124145508

> <r_i_glide_ecoul>
0.221319749951363

> <r_i_glide_erotb>
0.872608372762497

> <r_i_glide_esite>
0

> <r_i_glide_emodel>
-59.5738649893326

> <r_i_glide_energy>
-47.3060926645994

> <r_i_glide_einternal>
7.81161785125732

> <i_i_glide_confnum>
28

> <i_i_glide_posenum>
333

> <r_i_glide_eff_state_penalty>
0

> <i_f3d_flags>
0

> <s_user_duplicate_titles>
554506

> <s_m_subgroup_title>
dock_pv

> <s_m_subgroupid>
dock_pv1

> <b_m_subgroup_collapsed>
0

$$$$
495980
                    3D
 Schrodinger Suite 2021-1.
 39 39  0  0  1  0            999 V2000
   12.8512   43.9962   64.5042 C   0  0  0  0  0  0
   12.6242   42.9606   65.6356 C   0  0  2  0  0  0
   13.4001   41.6212   65.4113 C   0  0  0  0  0  0
   15.0928   41.8159   64.7400 S   0  0  0  0  0  0
   11.1133   42.7441   65.9399 C   0  0  0  0  0  0
   10.2581   43.4160   65.3635 O   0  0  0  0  0  0
   10.7871   41.7949   66.8336 N   0  0  0  0  0  0
    9.4332   41.3961   67.2544 C   0  0  1  0  0  0
    9.4975   40.1262   68.1471 C   0  0  0  0  0  0
    8.5209   38.7283   67.5333 S   0  0  0  0  0  0
    7.3722   38.4648   68.9154 C   0  0  0  0  0  0
    8.0246   37.7730   70.1078 C   0  0  0  0  0  0
    8.0784   36.3829   70.1340 C   0  0  0  0  0  0
    8.5734   35.7112   71.2461 C   0  0  0  0  0  0
    9.0838   36.4293   72.3153 C   0  0  0  0  0  0
    9.0506   37.8159   72.2925 C   0  0  0  0  0  0
    8.5208   38.4948   71.1959 C   0  0  0  0  0  0
    9.9437   35.4334   73.9398 I   0  0  0  0  0  0
    8.6554   42.5303   67.9690 C   0  0  0  0  0  0
    8.8197   42.8387   69.1321 O   0  0  0  0  0  0
    7.7209   43.0639   67.1402 O   0  0  0  0  0  0
   13.0179   43.4230   66.5420 H   0  0  0  0  0  0
    8.8968   41.1462   66.3401 H   0  0  0  0  0  0
   12.2739   44.9046   64.6620 H   0  0  0  0  0  0
   13.8922   44.3123   64.4411 H   0  0  0  0  0  0
   12.5619   43.5871   63.5398 H   0  0  0  0  0  0
   12.8595   40.9580   64.7394 H   0  0  0  0  0  0
   13.4762   41.0703   66.3454 H   0  0  0  0  0  0
   14.7315   42.1390   63.4891 H   0  0  0  0  0  0
   11.5316   41.2774   67.2720 H   0  0  0  0  0  0
   10.5208   39.7821   68.2596 H   0  0  0  0  0  0
    9.1658   40.3256   69.1611 H   0  0  0  0  0  0
    6.9335   39.4184   69.2127 H   0  0  0  0  0  0
    6.5590   37.8344   68.5459 H   0  0  0  0  0  0
    7.7210   35.8161   69.2889 H   0  0  0  0  0  0
    8.5889   34.6313   71.2582 H   0  0  0  0  0  0
    9.4362   38.3511   73.1400 H   0  0  0  0  0  0
    8.4949   39.5739   71.2035 H   0  0  0  0  0  0
    7.1368   43.6665   67.6232 H   0  0  0  0  0  0
  1  2  1  0  0  0
  1 24  1  0  0  0
  1 25  1  0  0  0
  1 26  1  0  0  0
  2 22  1  0  0  0
  2  3  1  0  0  0
  2  5  1  0  0  0
  3  4  1  0  0  0
  3 27  1  0  0  0
  3 28  1  0  0  0
  4 29  1  0  0  0
  5  6  2  0  0  0
  5  7  1  0  0  0
  7  8  1  0  0  0
  7 30  1  0  0  0
  8 23  1  0  0  0
  8  9  1  0  0  0
  8 19  1  0  0  0
  9 10  1  0  0  0
  9 31  1  0  0  0
  9 32  1  0  0  0
 10 11  1  0  0  0
 11 12  1  0  0  0
 11 33  1  0  0  0
 11 34  1  0  0  0
 12 17  1  0  0  0
 12 13  2  0  0  0
 13 14  1  0  0  0
 13 35  1  0  0  0
 14 15  2  0  0  0
 14 36  1  0  0  0
 15 16  1  0  0  0
 15 18  1  0  0  0
 16 17  2  0  0  0
 16 37  1  0  0  0
 17 38  1  0  0  0
 19 20  2  0  0  0
 19 21  1  0  0  0
 21 39  1  0  0  0
M  END
> <s_m_entry_id>
7379

> <s_m_entry_name>
ligand_docking-pose.254

> <s_m_Source_Path>
/home/csk/Desktop/cluster/DUD-E-result/lkha4

> <s_m_Source_File>
ligand_docking-pose.sdf

> <i_m_Source_File_Index>
254

> <i_lp_mmshare_version>
53161

> <r_lp_tautomer_probability>
1

> <s_lp_Force_Field>
OPLS_2005

> <r_lp_Energy>
-0.62668

> <b_lp_Chiralities_Consistent>
1

> <s_lp_Variant>
495980-1

> <s_i_glide_gridfile>
glide-grid_3chp

> <i_i_glide_lignum>
303

> <i_i_glide_rotatable_bonds>
11

> <r_i_docking_score>
-8.02488642940027

> <r_i_glide_ligand_efficiency>
-0.38213744901906

> <r_i_glide_ligand_efficiency_sa>
-1.05428824572936

> <r_i_glide_ligand_efficiency_ln>
-1.98413695385933

> <r_i_glide_gscore>
-8.02488642940027

> <r_i_glide_lipo>
-4.0286836060563

> <r_i_glide_hbond>
0

> <r_i_glide_metal>
0

> <r_i_glide_rewards>
-1.31363112883576

> <r_i_glide_evdw>
-47.6928520202637

> <r_i_glide_ecoul>
-6.83410215377808

> <r_i_glide_erotb>
0.827186229571685

> <r_i_glide_esite>
-0.1

> <r_i_glide_emodel>
-77.8667012171643

> <r_i_glide_energy>
-54.5269541740417

> <r_i_glide_einternal>
8.87714958190918

> <i_i_glide_confnum>
32

> <i_i_glide_posenum>
363

> <r_i_glide_eff_state_penalty>
0

> <i_f3d_flags>
0

> <s_user_duplicate_titles>
495980

> <s_m_subgroup_title>
dock_pv

> <s_m_subgroupid>
dock_pv1

> <b_m_subgroup_collapsed>
0

$$$$
495981
                    3D
 Schrodinger Suite 2021-1.
 42 42  0  0  1  0            999 V2000
    9.5731   35.5487   73.4232 C   0  0  0  0  0  0
    9.0098   36.4012   72.2999 C   0  0  0  0  0  0
    9.0111   37.7838   72.4158 C   0  0  0  0  0  0
    8.5256   38.5880   71.3886 C   0  0  0  0  0  0
    8.0913   38.0060   70.2001 C   0  0  0  0  0  0
    8.0732   36.6159   70.0848 C   0  0  0  0  0  0
    8.5210   35.8160   71.1399 C   0  0  0  0  0  0
    7.7560   38.8910   69.0086 C   0  0  0  0  0  0
    9.3210   39.4160   68.2634 S   0  0  0  0  0  0
    8.8910   40.3057   66.7400 C   0  0  0  0  0  0
    9.4033   41.7655   66.6708 C   0  0  1  0  0  0
    8.6902   42.6306   67.7324 C   0  0  0  0  0  0
    8.9210   42.6122   68.9213 O   0  0  0  0  0  0
    7.7210   43.3774   67.1401 O   0  0  0  0  0  0
   10.8704   41.8063   66.7400 N   0  0  0  0  0  0
   11.6686   42.5182   65.9220 C   0  0  0  0  0  0
   11.2339   43.3752   65.1486 O   0  0  0  0  0  0
   13.1815   42.1846   65.9293 C   0  0  2  0  0  0
   13.9951   43.4161   66.3755 C   0  0  0  0  0  0
   13.6468   41.6394   64.5434 C   0  0  0  0  0  0
   15.4504   41.4284   64.3400 S   0  0  0  0  0  0
    9.1188   42.1656   65.6942 H   0  0  0  0  0  0
   13.3260   41.3914   66.6629 H   0  0  0  0  0  0
    9.7088   34.5082   73.1248 H   0  0  0  0  0  0
   10.5489   35.9286   73.7276 H   0  0  0  0  0  0
    8.9213   35.5906   74.2960 H   0  0  0  0  0  0
    9.4131   38.2160   73.3123 H   0  0  0  0  0  0
    8.5356   39.6631   71.4914 H   0  0  0  0  0  0
    7.7421   36.1488   69.1692 H   0  0  0  0  0  0
    8.5210   34.7408   71.0479 H   0  0  0  0  0  0
    7.1897   39.7684   69.3240 H   0  0  0  0  0  0
    7.1563   38.3512   68.2746 H   0  0  0  0  0  0
    7.8227   40.2895   66.5646 H   0  0  0  0  0  0
    9.3359   39.7161   65.9400 H   0  0  0  0  0  0
    7.1400   43.8160   67.7812 H   0  0  0  0  0  0
   11.2750   41.1398   67.3799 H   0  0  0  0  0  0
   13.6147   43.8160   67.3137 H   0  0  0  0  0  0
   15.0456   43.1813   66.5402 H   0  0  0  0  0  0
   13.9467   44.2158   65.6345 H   0  0  0  0  0  0
   13.3208   42.3009   63.7381 H   0  0  0  0  0  0
   13.1950   40.6656   64.3534 H   0  0  0  0  0  0
   15.3870   41.4084   62.9920 H   0  0  0  0  0  0
  1  2  1  0  0  0
  1 24  1  0  0  0
  1 25  1  0  0  0
  1 26  1  0  0  0
  2  7  1  0  0  0
  2  3  2  0  0  0
  3  4  1  0  0  0
  3 27  1  0  0  0
  4  5  2  0  0  0
  4 28  1  0  0  0
  5  6  1  0  0  0
  5  8  1  0  0  0
  6  7  2  0  0  0
  6 29  1  0  0  0
  7 30  1  0  0  0
  8  9  1  0  0  0
  8 31  1  0  0  0
  8 32  1  0  0  0
  9 10  1  0  0  0
 10 11  1  0  0  0
 10 33  1  0  0  0
 10 34  1  0  0  0
 11 22  1  0  0  0
 11 12  1  0  0  0
 11 15  1  0  0  0
 12 13  2  0  0  0
 12 14  1  0  0  0
 14 35  1  0  0  0
 15 16  1  0  0  0
 15 36  1  0  0  0
 16 17  2  0  0  0
 16 18  1  0  0  0
 18 23  1  0  0  0
 18 19  1  0  0  0
 18 20  1  0  0  0
 19 37  1  0  0  0
 19 38  1  0  0  0
 19 39  1  0  0  0
 20 21  1  0  0  0
 20 40  1  0  0  0
 20 41  1  0  0  0
 21 42  1  0  0  0
M  END
> <s_m_entry_id>
7383

> <s_m_entry_name>
ligand_docking-pose.258

> <s_m_Source_Path>
/home/csk/Desktop/cluster/DUD-E-result/lkha4

> <s_m_Source_File>
ligand_docking-pose.sdf

> <i_m_Source_File_Index>
258

> <i_lp_mmshare_version>
53161

> <r_lp_tautomer_probability>
1

> <s_lp_Force_Field>
OPLS_2005

> <r_lp_Energy>
-0.312714

> <b_lp_Chiralities_Consistent>
1

> <s_lp_Variant>
495981-1

> <s_i_glide_gridfile>
glide-grid_3chp

> <i_i_glide_lignum>
252

> <i_i_glide_rotatable_bonds>
11

> <r_i_docking_score>
-7.97297529159154

> <r_i_glide_ligand_efficiency>
-0.379665490075788

> <r_i_glide_ligand_efficiency_sa>
-1.04746829844466

> <r_i_glide_ligand_efficiency_ln>
-1.97130202993245

> <r_i_glide_gscore>
-7.97297529159154

> <r_i_glide_lipo>
-3.83737937010017

> <r_i_glide_hbond>
-0.152

> <r_i_glide_metal>
0

> <r_i_glide_rewards>
-2.06908030680015

> <r_i_glide_evdw>
-41.5604019165039

> <r_i_glide_ecoul>
-8.74486541748047

> <r_i_glide_erotb>
1.57523429375605

> <r_i_glide_esite>
-0.1

> <r_i_glide_emodel>
-67.4498336235635

> <r_i_glide_energy>
-50.3052673339844

> <r_i_glide_einternal>
14.0878648757935

> <i_i_glide_confnum>
332

> <i_i_glide_posenum>
245

> <r_i_glide_eff_state_penalty>
0

> <i_f3d_flags>
0

> <s_user_duplicate_titles>
495981

> <s_m_subgroup_title>
dock_pv

> <s_m_subgroupid>
dock_pv1

> <b_m_subgroup_collapsed>
0

$$$$
496124
                    3D
 Schrodinger Suite 2021-1.
 43 43  0  0  1  0            999 V2000
   12.8589   43.9999   64.5005 C   0  0  0  0  0  0
   12.6356   42.9679   65.6356 C   0  0  2  0  0  0
   13.4092   41.6279   65.4123 C   0  0  0  0  0  0
   15.1028   41.8160   64.7400 S   0  0  0  0  0  0
   11.1257   42.7513   65.9401 C   0  0  0  0  0  0
   10.2688   43.4159   65.3560 O   0  0  0  0  0  0
   10.7993   41.8076   66.8398 N   0  0  0  0  0  0
    9.4436   41.4110   67.2564 C   0  0  1  0  0  0
    9.4993   40.1380   68.1437 C   0  0  0  0  0  0
    8.5210   38.7474   67.5180 S   0  0  0  0  0  0
    7.3587   38.4918   68.8906 C   0  0  0  0  0  0
    7.9963   37.7869   70.0837 C   0  0  0  0  0  0
    8.0662   36.3993   70.0928 C   0  0  0  0  0  0
    8.5707   35.7278   71.1988 C   0  0  0  0  0  0
    9.0643   36.4195   72.2950 C   0  0  0  0  0  0
    8.9833   37.8160   72.2934 C   0  0  0  0  0  0
    8.4659   38.4973   71.1903 C   0  0  0  0  0  0
    9.6435   35.6460   73.2843 O   0  0  0  0  0  0
   10.1217   36.2266   74.4945 C   0  0  0  0  0  0
   10.8007   35.2806   75.1396 F   0  0  0  0  0  0
   10.9753   37.2262   74.2788 F   0  0  0  0  0  0
    9.1128   36.6157   75.2723 F   0  0  0  0  0  0
    8.6624   42.5451   67.9682 C   0  0  0  0  0  0
    8.8275   42.8577   69.1299 O   0  0  0  0  0  0
    7.7209   43.0690   67.1402 O   0  0  0  0  0  0
   13.0347   43.4310   66.5395 H   0  0  0  0  0  0
    8.9074   41.1668   66.3402 H   0  0  0  0  0  0
   12.2908   44.9133   64.6631 H   0  0  0  0  0  0
   13.9005   44.3084   64.4228 H   0  0  0  0  0  0
   12.5535   43.5909   63.5399 H   0  0  0  0  0  0
   12.8696   40.9647   64.7398 H   0  0  0  0  0  0
   13.4830   41.0769   66.3472 H   0  0  0  0  0  0
   14.7380   42.1431   63.4926 H   0  0  0  0  0  0
   11.5428   41.2937   67.2847 H   0  0  0  0  0  0
   10.5211   39.7929   68.2572 H   0  0  0  0  0  0
    9.1656   40.3341   69.1582 H   0  0  0  0  0  0
    6.9300   39.4504   69.1875 H   0  0  0  0  0  0
    6.5385   37.8791   68.5097 H   0  0  0  0  0  0
    7.7210   35.8193   69.2492 H   0  0  0  0  0  0
    8.6102   34.6490   71.1871 H   0  0  0  0  0  0
    9.3208   38.3837   73.1399 H   0  0  0  0  0  0
    8.4202   39.5745   71.2091 H   0  0  0  0  0  0
    7.1340   43.6709   67.6202 H   0  0  0  0  0  0
  1  2  1  0  0  0
  1 28  1  0  0  0
  1 29  1  0  0  0
  1 30  1  0  0  0
  2 26  1  0  0  0
  2  3  1  0  0  0
  2  5  1  0  0  0
  3  4  1  0  0  0
  3 31  1  0  0  0
  3 32  1  0  0  0
  4 33  1  0  0  0
  5  6  2  0  0  0
  5  7  1  0  0  0
  7  8  1  0  0  0
  7 34  1  0  0  0
  8 27  1  0  0  0
  8  9  1  0  0  0
  8 23  1  0  0  0
  9 10  1  0  0  0
  9 35  1  0  0  0
  9 36  1  0  0  0
 10 11  1  0  0  0
 11 12  1  0  0  0
 11 37  1  0  0  0
 11 38  1  0  0  0
 12 17  1  0  0  0
 12 13  2  0  0  0
 13 14  1  0  0  0
 13 39  1  0  0  0
 14 15  2  0  0  0
 14 40  1  0  0  0
 15 16  1  0  0  0
 15 18  1  0  0  0
 16 17  2  0  0  0
 16 41  1  0  0  0
 17 42  1  0  0  0
 18 19  1  0  0  0
 19 20  1  0  0  0
 19 21  1  0  0  0
 19 22  1  0  0  0
 23 24  2  0  0  0
 23 25  1  0  0  0
 25 43  1  0  0  0
M  END
> <s_m_entry_id>
7388

> <s_m_entry_name>
ligand_docking-pose.263

> <s_m_Source_Path>
/home/csk/Desktop/cluster/DUD-E-result/lkha4

> <s_m_Source_File>
ligand_docking-pose.sdf

> <i_m_Source_File_Index>
263

> <i_lp_mmshare_version>
53161

> <r_lp_tautomer_probability>
1

> <s_lp_Force_Field>
OPLS_2005

> <r_lp_Energy>
6.138151

> <b_lp_Chiralities_Consistent>
1

> <s_lp_Variant>
496124-1

> <s_i_glide_gridfile>
glide-grid_3chp

> <i_i_glide_lignum>
307

> <i_i_glide_rotatable_bonds>
13

> <r_i_docking_score>
-7.88361721149419

> <r_i_glide_ligand_efficiency>
-0.315344688459768

> <r_i_glide_ligand_efficiency_sa>
-0.922073461718224

> <r_i_glide_ligand_efficiency_ln>
-1.86865353206751

> <r_i_glide_gscore>
-7.88361721149419

> <r_i_glide_lipo>
-3.92623310200938

> <r_i_glide_hbond>
0

> <r_i_glide_metal>
0

> <r_i_glide_rewards>
-1.57417416159638

> <r_i_glide_evdw>
-48.1428451538086

> <r_i_glide_ecoul>
-7.15765428543091

> <r_i_glide_erotb>
1.23926382946159

> <r_i_glide_esite>
-0.141683376844948

> <r_i_glide_emodel>
-77.9992638117009

> <r_i_glide_energy>
-55.3004994392395

> <r_i_glide_einternal>
9.26377773284912

> <i_i_glide_confnum>
673

> <i_i_glide_posenum>
94

> <r_i_glide_eff_state_penalty>
0

> <i_f3d_flags>
0

> <s_user_duplicate_titles>
496124

> <s_m_subgroup_title>
dock_pv

> <s_m_subgroupid>
dock_pv1

> <b_m_subgroup_collapsed>
0

$$$$
496128
                    3D
 Schrodinger Suite 2021-1.
 40 40  0  0  1  0            999 V2000
   12.1210   43.7859   64.9420 C   0  0  0  0  0  0
   11.9749   42.6599   66.0046 C   0  0  2  0  0  0
   12.8817   41.4148   65.7414 C   0  0  0  0  0  0
   14.3828   41.7375   64.7400 S   0  0  0  0  0  0
   10.4826   42.3197   66.2908 C   0  0  0  0  0  0
    9.6047   43.0571   65.8421 O   0  0  0  0  0  0
   10.1595   41.2287   67.0215 N   0  0  0  0  0  0
    8.7677   40.8822   67.3920 C   0  0  1  0  0  0
    8.6067   39.4018   67.8695 C   0  0  0  0  0  0
    8.9210   39.1574   69.6425 S   0  0  0  0  0  0
    7.6546   38.0401   70.2818 C   0  0  0  0  0  0
    8.3241   37.1631   71.3246 C   0  0  0  0  0  0
    8.5210   35.8160   71.0698 C   0  0  0  0  0  0
    9.2657   35.0230   71.9400 C   0  0  0  0  0  0
    9.8341   35.6037   73.0729 C   0  0  0  0  0  0
    9.6141   36.9505   73.3538 C   0  0  0  0  0  0
    8.8442   37.7198   72.4873 C   0  0  0  0  0  0
   10.7013   34.8261   73.9400 C   0  0  0  0  0  0
   11.4004   34.2160   74.6281 N   0  0  0  0  0  0
    8.1210   41.9296   68.3400 C   0  0  0  0  0  0
    8.7335   42.7395   69.0030 O   0  0  0  0  0  0
    6.7691   41.8160   68.2898 O   0  0  0  0  0  0
   12.3129   43.1110   66.9390 H   0  0  0  0  0  0
    8.2031   40.9593   66.4618 H   0  0  0  0  0  0
   11.4466   44.6160   65.1400 H   0  0  0  0  0  0
   13.1231   44.2159   64.9352 H   0  0  0  0  0  0
   11.8993   43.4185   63.9400 H   0  0  0  0  0  0
   12.3323   40.6115   65.2478 H   0  0  0  0  0  0
   13.2174   41.0138   66.6965 H   0  0  0  0  0  0
   13.7642   41.9452   63.5718 H   0  0  0  0  0  0
   10.8802   40.6290   67.3920 H   0  0  0  0  0  0
    7.6129   39.0160   67.6563 H   0  0  0  0  0  0
    9.2839   38.7515   67.3137 H   0  0  0  0  0  0
    6.8512   38.6160   70.7399 H   0  0  0  0  0  0
    7.2249   37.4489   69.4720 H   0  0  0  0  0  0
    8.1210   35.4160   70.1545 H   0  0  0  0  0  0
    9.4206   33.9785   71.7063 H   0  0  0  0  0  0
   10.0525   37.4160   74.2261 H   0  0  0  0  0  0
    8.6837   38.7646   72.6906 H   0  0  0  0  0  0
    6.3272   42.5777   68.7014 H   0  0  0  0  0  0
  1  2  1  0  0  0
  1 25  1  0  0  0
  1 26  1  0  0  0
  1 27  1  0  0  0
  2 23  1  0  0  0
  2  3  1  0  0  0
  2  5  1  0  0  0
  3  4  1  0  0  0
  3 28  1  0  0  0
  3 29  1  0  0  0
  4 30  1  0  0  0
  5  6  2  0  0  0
  5  7  1  0  0  0
  7  8  1  0  0  0
  7 31  1  0  0  0
  8 24  1  0  0  0
  8  9  1  0  0  0
  8 20  1  0  0  0
  9 10  1  0  0  0
  9 32  1  0  0  0
  9 33  1  0  0  0
 10 11  1  0  0  0
 11 12  1  0  0  0
 11 34  1  0  0  0
 11 35  1  0  0  0
 12 17  1  0  0  0
 12 13  2  0  0  0
 13 14  1  0  0  0
 13 36  1  0  0  0
 14 15  2  0  0  0
 14 37  1  0  0  0
 15 16  1  0  0  0
 15 18  1  0  0  0
 16 17  2  0  0  0
 16 38  1  0  0  0
 17 39  1  0  0  0
 18 19  3  0  0  0
 20 21  2  0  0  0
 20 22  1  0  0  0
 22 40  1  0  0  0
M  END
> <s_m_entry_id>
7390

> <s_m_entry_name>
ligand_docking-pose.265

> <s_m_Source_Path>
/home/csk/Desktop/cluster/DUD-E-result/lkha4

> <s_m_Source_File>
ligand_docking-pose.sdf

> <i_m_Source_File_Index>
265

> <i_lp_mmshare_version>
53161

> <r_lp_tautomer_probability>
1

> <s_lp_Force_Field>
OPLS_2005

> <r_lp_Energy>
1.786645

> <b_lp_Chiralities_Consistent>
1

> <s_lp_Variant>
496128-1

> <s_i_glide_gridfile>
glide-grid_3chp

> <i_i_glide_lignum>
302

> <i_i_glide_rotatable_bonds>
11

> <r_i_docking_score>
-7.82713532963613

> <r_i_glide_ligand_efficiency>
-0.355778878619824

> <r_i_glide_ligand_efficiency_sa>
-0.996906409882056

> <r_i_glide_ligand_efficiency_ln>
-1.91323737626112

> <r_i_glide_gscore>
-7.82713532963613

> <r_i_glide_lipo>
-4.01250453531459

> <r_i_glide_hbond>
0

> <r_i_glide_metal>
0

> <r_i_glide_rewards>
-2.00144432575794

> <r_i_glide_evdw>
-48.6556968688965

> <r_i_glide_ecoul>
-5.5366530418396

> <r_i_glide_erotb>
1.48593829954596

> <r_i_glide_esite>
-0.0358419683887876

> <r_i_glide_emodel>
-69.9480248010369

> <r_i_glide_energy>
-54.1923499107361

> <r_i_glide_einternal>
20.6681747436523

> <i_i_glide_confnum>
243

> <i_i_glide_posenum>
182

> <r_i_glide_eff_state_penalty>
0

> <i_f3d_flags>
0

> <s_user_duplicate_titles>
496128

> <s_m_subgroup_title>
dock_pv

> <s_m_subgroupid>
dock_pv1

> <b_m_subgroup_collapsed>
0

$$$$
467459
                    3D
 Schrodinger Suite 2021-1.
 60 64  0  0  1  0            999 V2000
   11.3210   33.8838   74.1602 C   0  0  0  0  0  0
   10.6884   33.5963   72.9523 C   0  0  0  0  0  0
    9.7220   34.4650   72.4552 C   0  0  0  0  0  0
    9.3593   35.5965   73.1927 C   0  0  0  0  0  0
    9.9953   35.8793   74.4003 C   0  0  0  0  0  0
   10.9747   35.0196   74.8882 C   0  0  0  0  0  0
    8.2962   36.3783   72.8202 O   0  0  0  0  0  0
    8.3591   37.0463   71.6293 C   0  0  0  0  0  0
    8.6838   38.3853   71.6331 C   0  0  0  0  0  0
    8.6944   39.1017   70.4480 C   0  0  0  0  0  0
    8.3671   38.4757   69.2423 C   0  0  0  0  0  0
    8.0363   37.1299   69.2381 C   0  0  0  0  0  0
    8.0351   36.4293   70.4318 C   0  0  0  0  0  0
    8.3189   39.1405   68.0163 N   0  0  0  0  0  0
    8.8379   40.4895   67.8719 C   0  0  2  0  0  0
    8.1210   41.1979   66.7400 C   0  0  0  0  0  0
    8.9338   42.3622   66.0993 C   0  0  1  0  0  0
    9.0026   43.4160   67.1402 C   0  0  0  0  0  0
   10.2784   43.0158   67.9051 C   0  0  0  0  0  0
   10.8580   41.8163   67.1401 C   0  0  1  0  0  0
   10.3196   40.4329   67.5370 C   0  0  0  0  0  0
   10.3298   42.0255   65.8229 N   0  0  2  0  0  0
   11.0551   43.0680   65.0812 C   0  0  0  0  0  0
   12.5573   42.8426   64.9887 C   0  0  0  0  0  0
   13.3632   43.9537   65.0899 C   0  0  0  0  0  0
   14.7276   43.7960   65.1775 C   0  0  0  0  0  0
   15.3237   42.5743   64.9531 C   0  0  0  0  0  0
   14.5195   41.4628   64.7402 C   0  0  0  0  0  0
   13.1466   41.5835   64.8382 C   0  0  0  0  0  0
   16.8058   42.4646   65.0295 C   0  0  0  0  0  0
   17.3206   41.4160   65.3811 O   0  0  0  0  0  0
   17.4907   43.6008   64.7401 O   0  0  0  0  0  0
    8.5210   42.7274   65.1711 H   0  0  0  0  0  0
   11.9461   41.7895   67.1400 H   0  0  0  0  0  0
   12.0639   33.2020   74.5497 H   0  0  0  0  0  0
   10.9443   32.6976   72.4104 H   0  0  0  0  0  0
    9.2093   34.2129   71.5406 H   0  0  0  0  0  0
    9.6981   36.7435   74.9768 H   0  0  0  0  0  0
   11.4516   35.2208   75.8368 H   0  0  0  0  0  0
    8.8958   38.8634   72.5717 H   0  0  0  0  0  0
    8.9201   40.1496   70.5087 H   0  0  0  0  0  0
    7.7593   36.6263   68.3251 H   0  0  0  0  0  0
    7.7214   35.4161   70.4449 H   0  0  0  0  0  0
    8.3427   38.5616   67.1894 H   0  0  0  0  0  0
    8.6691   41.0694   68.7758 H   0  0  0  0  0  0
    7.2084   41.6240   67.1566 H   0  0  0  0  0  0
    7.7210   40.4668   66.0438 H   0  0  0  0  0  0
    8.1261   43.4927   67.7879 H   0  0  0  0  0  0
    9.0863   44.3844   66.6546 H   0  0  0  0  0  0
   10.0804   42.8320   68.9559 H   0  0  0  0  0  0
   11.0169   43.8028   67.8529 H   0  0  0  0  0  0
   10.4857   39.7388   66.7103 H   0  0  0  0  0  0
   10.8979   40.0084   68.3400 H   0  0  0  0  0  0
   10.8848   44.0546   65.5117 H   0  0  0  0  0  0
   10.6637   43.1249   64.0681 H   0  0  0  0  0  0
   12.9311   44.9360   65.1399 H   0  0  0  0  0  0
   15.3701   44.6160   65.3772 H   0  0  0  0  0  0
   14.9357   40.5094   64.5044 H   0  0  0  0  0  0
   12.5346   40.6980   64.7575 H   0  0  0  0  0  0
   17.0182   44.1025   64.0656 H   0  0  0  0  0  0
  1  6  1  0  0  0
  1  2  2  0  0  0
  1 35  1  0  0  0
  2  3  1  0  0  0
  2 36  1  0  0  0
  3  4  2  0  0  0
  3 37  1  0  0  0
  4  5  1  0  0  0
  4  7  1  0  0  0
  5  6  2  0  0  0
  5 38  1  0  0  0
  6 39  1  0  0  0
  7  8  1  0  0  0
  8 13  1  0  0  0
  8  9  2  0  0  0
  9 10  1  0  0  0
  9 40  1  0  0  0
 10 11  2  0  0  0
 10 41  1  0  0  0
 11 12  1  0  0  0
 11 14  1  0  0  0
 12 13  2  0  0  0
 12 42  1  0  0  0
 13 43  1  0  0  0
 14 15  1  0  0  0
 14 44  1  0  0  0
 15 21  1  0  0  0
 15 16  1  0  0  0
 15 45  1  0  0  0
 16 17  1  0  0  0
 16 46  1  0  0  0
 16 47  1  0  0  0
 17 33  1  0  0  0
 17 22  1  0  0  0
 17 18  1  0  0  0
 18 19  1  0  0  0
 18 48  1  0  0  0
 18 49  1  0  0  0
 19 20  1  0  0  0
 19 50  1  0  0  0
 19 51  1  0  0  0
 20 34  1  0  0  0
 20 21  1  0  0  0
 20 22  1  0  0  0
 21 52  1  0  0  0
 21 53  1  0  0  0
 22 23  1  0  0  0
 23 24  1  0  0  0
 23 54  1  0  0  0
 23 55  1  0  0  0
 24 29  1  0  0  0
 24 25  2  0  0  0
 25 26  1  0  0  0
 25 56  1  0  0  0
 26 27  2  0  0  0
 26 57  1  0  0  0
 27 28  1  0  0  0
 27 30  1  0  0  0
 28 29  2  0  0  0
 28 58  1  0  0  0
 29 59  1  0  0  0
 30 31  2  0  0  0
 30 32  1  0  0  0
 32 60  1  0  0  0
M  END
> <s_m_entry_id>
7393

> <s_m_entry_name>
ligand_docking-pose.268

> <s_m_Source_Path>
/home/csk/Desktop/cluster/DUD-E-result/lkha4

> <s_m_Source_File>
ligand_docking-pose.sdf

> <i_m_Source_File_Index>
268

> <i_lp_mmshare_version>
53161

> <r_lp_tautomer_probability>
1

> <s_lp_Force_Field>
OPLS_2005

> <r_lp_Energy>
60.339742

> <b_lp_Chiralities_Consistent>
1

> <s_lp_Variant>
467459-1

> <s_i_glide_gridfile>
glide-grid_3chp

> <i_i_glide_lignum>
201

> <i_i_glide_rotatable_bonds>
8

> <r_i_docking_score>
-7.80164179308847

> <r_i_glide_ligand_efficiency>
-0.243801306034015

> <r_i_glide_ligand_efficiency_sa>
-0.774020898445048

> <r_i_glide_ligand_efficiency_ln>
-1.74700026219583

> <r_i_glide_gscore>
-7.80164179308847

> <r_i_glide_lipo>
-5.62095773270444

> <r_i_glide_hbond>
-0.304

> <r_i_glide_metal>
0

> <r_i_glide_rewards>
-1.17077203858439

> <r_i_glide_evdw>
-0.344917804002762

> <r_i_glide_ecoul>
-8.97262477874756

> <r_i_glide_erotb>
0.757227585212624

> <r_i_glide_esite>
-0.1

> <r_i_glide_emodel>
-44.0578464950982

> <r_i_glide_energy>
-9.31754258275032

> <r_i_glide_einternal>
20.6393527984619

> <i_i_glide_confnum>
33

> <i_i_glide_posenum>
48

> <r_i_glide_eff_state_penalty>
0

> <i_f3d_flags>
0

> <s_user_duplicate_titles>
467459

> <s_m_subgroup_title>
dock_pv

> <s_m_subgroupid>
dock_pv1

> <b_m_subgroup_collapsed>
0

$$$$
583375
                    3D
 Schrodinger Suite 2021-1.
 42 44  0  0  1  0            999 V2000
   11.2550   41.2658   66.7399 C   0  0  0  0  0  0
   12.4767   41.4161   66.1098 C   0  0  0  0  0  0
   12.7148   42.5199   65.2899 C   0  0  0  0  0  0
   11.7080   43.4718   65.1401 C   0  0  0  0  0  0
   10.4641   43.3056   65.7551 C   0  0  0  0  0  0
   10.2183   42.1766   66.5449 C   0  0  0  0  0  0
    8.9013   41.9670   67.2358 C   0  0  0  0  0  0
    8.1210   42.9047   67.3895 O   0  0  0  0  0  0
    8.5682   40.6141   67.7913 C   0  0  0  0  0  0
    7.9768   40.4726   69.0543 C   0  0  0  0  0  0
    7.7210   39.1840   69.5399 C   0  0  0  0  0  0
    7.9847   38.0602   68.8371 N   0  0  0  0  0  0
    8.5210   38.2160   67.6070 C   0  0  0  0  0  0
    8.8191   39.4518   67.0468 C   0  0  0  0  0  0
   13.8990   42.7312   64.6166 O   0  0  0  0  0  0
   14.7739   41.6251   64.3718 C   0  0  0  0  0  0
   16.2024   42.1283   64.1071 C   0  0  0  0  0  0
   16.9211   42.3653   65.3699 N   0  0  0  0  0  0
   18.2358   42.9557   65.1426 C   0  0  0  0  0  0
   18.6939   43.4580   66.5113 C   0  0  0  0  0  0
   17.3845   43.7731   67.2339 C   0  0  0  0  0  0
   16.3120   43.3981   66.2108 C   0  0  0  0  0  0
   11.1393   40.4246   67.4032 H   0  0  0  0  0  0
   13.2173   40.6610   66.3093 H   0  0  0  0  0  0
   11.8994   44.3424   64.5341 H   0  0  0  0  0  0
    9.6952   44.0533   65.6179 H   0  0  0  0  0  0
    7.7310   41.3382   69.6537 H   0  0  0  0  0  0
    7.2935   39.0160   70.5176 H   0  0  0  0  0  0
    8.7654   37.3144   67.0780 H   0  0  0  0  0  0
    9.2648   39.4842   66.0623 H   0  0  0  0  0  0
   14.8470   40.9209   65.1920 H   0  0  0  0  0  0
   14.3766   41.0552   63.5400 H   0  0  0  0  0  0
   16.7481   41.4095   63.4975 H   0  0  0  0  0  0
   16.1640   43.0160   63.4863 H   0  0  0  0  0  0
   18.9162   42.2160   64.7279 H   0  0  0  0  0  0
   18.1932   43.7604   64.4046 H   0  0  0  0  0  0
   19.2749   42.6944   67.0304 H   0  0  0  0  0  0
   19.3302   44.3375   66.4088 H   0  0  0  0  0  0
   17.3100   44.8252   67.5087 H   0  0  0  0  0  0
   17.2777   43.1872   68.1483 H   0  0  0  0  0  0
   15.9707   44.2525   65.6215 H   0  0  0  0  0  0
   15.4099   43.0161   66.6883 H   0  0  0  0  0  0
  1  6  1  0  0  0
  1  2  2  0  0  0
  1 23  1  0  0  0
  2  3  1  0  0  0
  2 24  1  0  0  0
  3  4  2  0  0  0
  3 15  1  0  0  0
  4  5  1  0  0  0
  4 25  1  0  0  0
  5  6  2  0  0  0
  5 26  1  0  0  0
  6  7  1  0  0  0
  7  8  2  0  0  0
  7  9  1  0  0  0
  9 14  1  0  0  0
  9 10  2  0  0  0
 10 11  1  0  0  0
 10 27  1  0  0  0
 11 12  2  0  0  0
 11 28  1  0  0  0
 12 13  1  0  0  0
 13 14  2  0  0  0
 13 29  1  0  0  0
 14 30  1  0  0  0
 15 16  1  0  0  0
 16 17  1  0  0  0
 16 31  1  0  0  0
 16 32  1  0  0  0
 17 18  1  0  0  0
 17 33  1  0  0  0
 17 34  1  0  0  0
 18 22  1  0  0  0
 18 19  1  0  0  0
 19 20  1  0  0  0
 19 35  1  0  0  0
 19 36  1  0  0  0
 20 21  1  0  0  0
 20 37  1  0  0  0
 20 38  1  0  0  0
 21 22  1  0  0  0
 21 39  1  0  0  0
 21 40  1  0  0  0
 22 41  1  0  0  0
 22 42  1  0  0  0
M  END
> <s_m_entry_id>
7394

> <s_m_entry_name>
ligand_docking-pose.269

> <s_m_Source_Path>
/home/csk/Desktop/cluster/DUD-E-result/lkha4

> <s_m_Source_File>
ligand_docking-pose.sdf

> <i_m_Source_File_Index>
269

> <i_lp_mmshare_version>
53161

> <r_lp_tautomer_probability>
1

> <s_lp_Force_Field>
OPLS_2005

> <r_lp_Energy>
41.845563

> <b_lp_Chiralities_Consistent>
1

> <s_lp_Variant>
583375-1

> <s_i_glide_gridfile>
glide-grid_3chp

> <i_i_glide_lignum>
194

> <i_i_glide_rotatable_bonds>
6

> <r_i_docking_score>
-7.78619105997199

> <r_i_glide_ligand_efficiency>
-0.353917775453272

> <r_i_glide_ligand_efficiency_sa>
-0.991691525616344

> <r_i_glide_ligand_efficiency_ln>
-1.90322910327668

> <r_i_glide_gscore>
-7.78619105997199

> <r_i_glide_lipo>
-3.4815470094682

> <r_i_glide_hbond>
-0.252501598682497

> <r_i_glide_metal>
0

> <r_i_glide_rewards>
-2.2077125026051

> <r_i_glide_evdw>
-43.2010307312012

> <r_i_glide_ecoul>
-4.84811925888062

> <r_i_glide_erotb>
1.04283947617595

> <r_i_glide_esite>
0

> <r_i_glide_emodel>
-68.9420308682256

> <r_i_glide_energy>
-48.0491499900818

> <r_i_glide_einternal>
4.82321310043335

> <i_i_glide_confnum>
14

> <i_i_glide_posenum>
281

> <r_i_glide_eff_state_penalty>
0

> <i_f3d_flags>
0

> <s_user_duplicate_titles>
583375

> <s_m_subgroup_title>
dock_pv

> <s_m_subgroupid>
dock_pv1

> <b_m_subgroup_collapsed>
0

$$$$
467524
                    3D
 Schrodinger Suite 2021-1.
 60 64  0  0  1  0            999 V2000
   10.9210   35.4680   75.1392 C   0  0  0  0  0  0
   11.4045   34.2874   74.5806 C   0  0  0  0  0  0
   10.8816   33.8282   73.3769 C   0  0  0  0  0  0
    9.8646   34.5390   72.7398 C   0  0  0  0  0  0
    9.3528   35.7159   73.3098 C   0  0  0  0  0  0
    9.8867   36.1627   74.5177 C   0  0  0  0  0  0
    8.2391   36.3555   72.8157 O   0  0  0  0  0  0
    8.3296   37.0620   71.6444 C   0  0  0  0  0  0
    8.1210   36.4406   70.4256 C   0  0  0  0  0  0
    8.1205   37.1421   69.2345 C   0  0  0  0  0  0
    8.3353   38.5080   69.2556 C   0  0  0  0  0  0
    8.5357   39.1517   70.4805 C   0  0  0  0  0  0
    8.5210   38.4307   71.6683 C   0  0  0  0  0  0
    8.2936   39.1642   68.0239 N   0  0  0  0  0  0
    8.8254   40.5063   67.8705 C   0  0  2  0  0  0
    8.1210   41.2266   66.7400 C   0  0  0  0  0  0
    8.9629   42.3828   66.0818 C   0  0  1  0  0  0
    9.0080   43.4160   67.1400 C   0  0  0  0  0  0
   10.2518   43.0002   67.9399 C   0  0  0  0  0  0
   10.8535   41.8211   67.1403 C   0  0  1  0  0  0
   10.3017   40.4362   67.5248 C   0  0  0  0  0  0
   10.3864   42.0912   65.8102 N   0  0  2  0  0  0
   11.1513   43.1802   65.1401 C   0  0  0  0  0  0
   12.6843   43.0350   65.1394 C   0  0  0  0  0  0
   13.4242   43.4234   66.2562 C   0  0  0  0  0  0
   14.8116   43.4160   66.2491 C   0  0  0  0  0  0
   15.4729   42.8867   65.1465 C   0  0  0  0  0  0
   14.7566   42.4822   64.0247 C   0  0  0  0  0  0
   13.3757   42.5826   64.0192 C   0  0  0  0  0  0
   16.9292   42.6160   65.2048 C   0  0  0  0  0  0
   17.3168   41.4519   65.1401 O   0  0  0  0  0  0
   17.7296   43.6969   65.3975 O   0  0  0  0  0  0
    9.3210   34.0095   71.6253 F   0  0  0  0  0  0
    8.5210   42.7563   65.1685 H   0  0  0  0  0  0
   11.9334   41.7434   67.1655 H   0  0  0  0  0  0
   11.3334   35.8359   76.0626 H   0  0  0  0  0  0
   12.1721   33.7216   75.0858 H   0  0  0  0  0  0
   11.2416   32.9034   72.9504 H   0  0  0  0  0  0
    9.4575   37.0160   75.0075 H   0  0  0  0  0  0
    7.8819   35.4160   70.4065 H   0  0  0  0  0  0
    7.9348   36.6187   68.3090 H   0  0  0  0  0  0
    8.6539   40.2159   70.5548 H   0  0  0  0  0  0
    8.6149   38.9335   72.6139 H   0  0  0  0  0  0
    8.3415   38.5757   67.2047 H   0  0  0  0  0  0
    8.6643   41.0819   68.7767 H   0  0  0  0  0  0
    7.2061   41.6582   67.1471 H   0  0  0  0  0  0
    7.7210   40.4928   66.0483 H   0  0  0  0  0  0
    8.1156   43.5071   67.7631 H   0  0  0  0  0  0
    9.1144   44.3869   66.6661 H   0  0  0  0  0  0
    9.9940   42.7603   68.9669 H   0  0  0  0  0  0
   10.9556   43.8160   67.9954 H   0  0  0  0  0  0
   10.4625   39.7491   66.6918 H   0  0  0  0  0  0
   10.8660   40.0083   68.3400 H   0  0  0  0  0  0
   10.9404   44.1552   65.5767 H   0  0  0  0  0  0
   10.8092   43.2613   64.1097 H   0  0  0  0  0  0
   12.9271   43.8087   67.1295 H   0  0  0  0  0  0
   15.3515   43.7511   67.1242 H   0  0  0  0  0  0
   15.2619   42.1115   63.1415 H   0  0  0  0  0  0
   12.8733   42.2691   63.1319 H   0  0  0  0  0  0
   18.6435   43.4291   65.2802 H   0  0  0  0  0  0
  1  6  1  0  0  0
  1  2  2  0  0  0
  1 36  1  0  0  0
  2  3  1  0  0  0
  2 37  1  0  0  0
  3  4  2  0  0  0
  3 38  1  0  0  0
  4  5  1  0  0  0
  4 33  1  0  0  0
  5  6  2  0  0  0
  5  7  1  0  0  0
  6 39  1  0  0  0
  7  8  1  0  0  0
  8 13  1  0  0  0
  8  9  2  0  0  0
  9 10  1  0  0  0
  9 40  1  0  0  0
 10 11  2  0  0  0
 10 41  1  0  0  0
 11 12  1  0  0  0
 11 14  1  0  0  0
 12 13  2  0  0  0
 12 42  1  0  0  0
 13 43  1  0  0  0
 14 15  1  0  0  0
 14 44  1  0  0  0
 15 21  1  0  0  0
 15 16  1  0  0  0
 15 45  1  0  0  0
 16 17  1  0  0  0
 16 46  1  0  0  0
 16 47  1  0  0  0
 17 34  1  0  0  0
 17 22  1  0  0  0
 17 18  1  0  0  0
 18 19  1  0  0  0
 18 48  1  0  0  0
 18 49  1  0  0  0
 19 20  1  0  0  0
 19 50  1  0  0  0
 19 51  1  0  0  0
 20 35  1  0  0  0
 20 21  1  0  0  0
 20 22  1  0  0  0
 21 52  1  0  0  0
 21 53  1  0  0  0
 22 23  1  0  0  0
 23 24  1  0  0  0
 23 54  1  0  0  0
 23 55  1  0  0  0
 24 29  1  0  0  0
 24 25  2  0  0  0
 25 26  1  0  0  0
 25 56  1  0  0  0
 26 27  2  0  0  0
 26 57  1  0  0  0
 27 28  1  0  0  0
 27 30  1  0  0  0
 28 29  2  0  0  0
 28 58  1  0  0  0
 29 59  1  0  0  0
 30 31  2  0  0  0
 30 32  1  0  0  0
 32 60  1  0  0  0
M  END
> <s_m_entry_id>
7396

> <s_m_entry_name>
ligand_docking-pose.271

> <s_m_Source_Path>
/home/csk/Desktop/cluster/DUD-E-result/lkha4

> <s_m_Source_File>
ligand_docking-pose.sdf

> <i_m_Source_File_Index>
271

> <i_lp_mmshare_version>
53161

> <r_lp_tautomer_probability>
1

> <s_lp_Force_Field>
OPLS_2005

> <r_lp_Energy>
59.981784

> <b_lp_Chiralities_Consistent>
1

> <s_lp_Variant>
467524-1

> <s_i_glide_gridfile>
glide-grid_3chp

> <i_i_glide_lignum>
205

> <i_i_glide_rotatable_bonds>
8

> <r_i_docking_score>
-7.77692876016866

> <r_i_glide_ligand_efficiency>
-0.235664507883899

> <r_i_glide_ligand_efficiency_sa>
-0.755901998518172

> <r_i_glide_ligand_efficiency_ln>
-1.72954868947942

> <r_i_glide_gscore>
-7.77692876016866

> <r_i_glide_lipo>
-5.37629287990811

> <r_i_glide_hbond>
-0.173006488959468

> <r_i_glide_metal>
0

> <r_i_glide_rewards>
-0.998463336342463

> <r_i_glide_evdw>
-11.6013736724854

> <r_i_glide_ecoul>
-8.3459529876709

> <r_i_glide_erotb>
0.702795576816281

> <r_i_glide_esite>
-0.1

> <r_i_glide_emodel>
-44.4161623810914

> <r_i_glide_energy>
-19.9473266601562

> <r_i_glide_einternal>
10.9345474243164

> <i_i_glide_confnum>
8

> <i_i_glide_posenum>
328

> <r_i_glide_eff_state_penalty>
0

> <i_f3d_flags>
0

> <s_user_duplicate_titles>
467524

> <s_m_subgroup_title>
dock_pv

> <s_m_subgroupid>
dock_pv1

> <b_m_subgroup_collapsed>
0

$$$$
495979
                    3D
 Schrodinger Suite 2021-1.
 39 39  0  0  1  0            999 V2000
   12.0253   43.7894   64.8832 C   0  0  0  0  0  0
   11.9669   42.6783   65.9648 C   0  0  2  0  0  0
   12.8851   41.4472   65.6798 C   0  0  0  0  0  0
   14.4112   41.8160   64.7400 S   0  0  0  0  0  0
   10.5037   42.3030   66.3400 C   0  0  0  0  0  0
    9.5700   42.9939   65.9390 O   0  0  0  0  0  0
   10.2850   41.2472   67.1478 N   0  0  0  0  0  0
    8.9823   40.7298   67.6444 C   0  0  1  0  0  0
    9.1957   39.4960   68.5720 C   0  0  0  0  0  0
    7.9649   38.1621   68.4317 S   0  0  0  0  0  0
    7.3567   37.9943   70.1448 C   0  0  0  0  0  0
    8.3110   37.2817   71.1052 C   0  0  0  0  0  0
    8.5210   35.9128   70.9938 C   0  0  0  0  0  0
    9.2727   35.2134   71.9400 C   0  0  0  0  0  0
    9.8651   35.9069   72.9880 C   0  0  0  0  0  0
    9.7032   37.2839   73.0848 C   0  0  0  0  0  0
    8.9085   37.9622   72.1591 C   0  0  0  0  0  0
   10.9182   34.9812   74.2787 Br  0  0  0  0  0  0
    8.0067   41.7214   68.3400 C   0  0  0  0  0  0
    6.9210   41.3712   68.7400 O   0  0  0  0  0  0
    8.5210   42.9710   68.5085 O   0  0  0  0  0  0
   12.3508   43.1533   66.8693 H   0  0  0  0  0  0
    8.4615   40.3957   66.7456 H   0  0  0  0  0  0
   11.3656   44.6160   65.1399 H   0  0  0  0  0  0
   13.0211   44.2236   64.7892 H   0  0  0  0  0  0
   11.7213   43.4160   63.9059 H   0  0  0  0  0  0
   12.3511   40.6645   65.1400 H   0  0  0  0  0  0
   13.1967   41.0066   66.6257 H   0  0  0  0  0  0
   13.8291   42.0434   63.5565 H   0  0  0  0  0  0
   11.0835   40.7102   67.4490 H   0  0  0  0  0  0
   10.1210   39.0160   68.3086 H   0  0  0  0  0  0
    9.3017   39.7813   69.6188 H   0  0  0  0  0  0
    7.0952   38.9846   70.5138 H   0  0  0  0  0  0
    6.4323   37.4160   70.1136 H   0  0  0  0  0  0
    8.0827   35.4160   70.1506 H   0  0  0  0  0  0
    9.4033   34.1451   71.8494 H   0  0  0  0  0  0
   10.1711   37.8160   73.8982 H   0  0  0  0  0  0
    8.7239   39.0160   72.2749 H   0  0  0  0  0  0
    9.2328   43.1456   67.8871 H   0  0  0  0  0  0
  1  2  1  0  0  0
  1 24  1  0  0  0
  1 25  1  0  0  0
  1 26  1  0  0  0
  2 22  1  0  0  0
  2  3  1  0  0  0
  2  5  1  0  0  0
  3  4  1  0  0  0
  3 27  1  0  0  0
  3 28  1  0  0  0
  4 29  1  0  0  0
  5  6  2  0  0  0
  5  7  1  0  0  0
  7  8  1  0  0  0
  7 30  1  0  0  0
  8 23  1  0  0  0
  8  9  1  0  0  0
  8 19  1  0  0  0
  9 10  1  0  0  0
  9 31  1  0  0  0
  9 32  1  0  0  0
 10 11  1  0  0  0
 11 12  1  0  0  0
 11 33  1  0  0  0
 11 34  1  0  0  0
 12 17  1  0  0  0
 12 13  2  0  0  0
 13 14  1  0  0  0
 13 35  1  0  0  0
 14 15  2  0  0  0
 14 36  1  0  0  0
 15 16  1  0  0  0
 15 18  1  0  0  0
 16 17  2  0  0  0
 16 37  1  0  0  0
 17 38  1  0  0  0
 19 20  2  0  0  0
 19 21  1  0  0  0
 21 39  1  0  0  0
M  END
> <s_m_entry_id>
7402

> <s_m_entry_name>
ligand_docking-pose.277

> <s_m_Source_Path>
/home/csk/Desktop/cluster/DUD-E-result/lkha4

> <s_m_Source_File>
ligand_docking-pose.sdf

> <i_m_Source_File_Index>
277

> <i_lp_mmshare_version>
53161

> <r_lp_tautomer_probability>
1

> <s_lp_Force_Field>
OPLS_2005

> <r_lp_Energy>
-0.446607

> <b_lp_Chiralities_Consistent>
1

> <s_lp_Variant>
495979-1

> <s_i_glide_gridfile>
glide-grid_3chp

> <i_i_glide_lignum>
289

> <i_i_glide_rotatable_bonds>
11

> <r_i_docking_score>
-7.65945567089833

> <r_i_glide_ligand_efficiency>
-0.364735984328492

> <r_i_glide_ligand_efficiency_sa>
-1.00627892413883

> <r_i_glide_ligand_efficiency_ln>
-1.8937849372421

> <r_i_glide_gscore>
-7.65945567089833

> <r_i_glide_lipo>
-4.23991236618884

> <r_i_glide_hbond>
0

> <r_i_glide_metal>
0

> <r_i_glide_rewards>
-1.63408598946901

> <r_i_glide_evdw>
-50.506404876709

> <r_i_glide_ecoul>
-1.57184386253357

> <r_i_glide_erotb>
1.01470792536784

> <r_i_glide_esite>
-0.0390684173928359

> <r_i_glide_emodel>
-71.5666932435098

> <r_i_glide_energy>
-52.0782487392426

> <r_i_glide_einternal>
7.73377418518066

> <i_i_glide_confnum>
122

> <i_i_glide_posenum>
82

> <r_i_glide_eff_state_penalty>
0

> <i_f3d_flags>
0

> <s_user_duplicate_titles>
495979

> <s_m_subgroup_title>
dock_pv

> <s_m_subgroupid>
dock_pv1

> <b_m_subgroup_collapsed>
0

$$$$
510250
                    3D
 Schrodinger Suite 2021-1.
 59 61  0  0  1  0            999 V2000
   10.1198   32.4683   71.3192 C   0  0  0  0  0  0
   10.3875   33.7297   72.1757 C   0  0  2  0  0  0
   10.5218   33.3070   73.6377 C   0  0  0  0  0  0
   12.1211   33.6710   74.3402 S   0  0  0  0  0  0
    9.3409   34.8567   71.9999 C   0  0  0  0  0  0
    8.2602   34.6160   71.5400 O   0  0  0  0  0  0
    9.5761   36.1292   72.3224 N   0  0  0  0  0  0
   10.5208   36.5922   73.3254 C   0  0  1  0  0  0
   10.8392   38.0197   72.8801 C   0  0  0  0  0  0
    9.6842   38.4076   71.9401 C   0  0  0  0  0  0
    9.0813   37.1701   71.4153 C   0  0  2  0  0  0
    7.3210   37.4177   71.1273 S   0  0  0  0  0  0
    7.2769   37.4033   69.3069 C   0  0  0  0  0  0
    7.9633   38.5978   68.6686 C   0  0  0  0  0  0
    8.5225   38.4836   67.4040 C   0  0  0  0  0  0
    9.1889   39.5664   66.8443 C   0  0  0  0  0  0
    9.2184   40.7937   67.5110 C   0  0  0  0  0  0
    8.5931   40.9276   68.7397 C   0  0  0  0  0  0
    8.0405   39.8158   69.3314 C   0  0  0  0  0  0
    9.9741   41.9924   66.9781 C   0  0  0  0  0  0
   11.3482   41.6386   66.3691 C   0  0  0  0  0  0
   12.0693   42.9051   65.8884 C   0  0  0  0  0  0
   11.1953   43.7321   64.9324 C   0  0  0  0  0  0
    9.7648   43.9955   65.4721 C   0  0  0  0  0  0
    9.0733   42.7706   66.0070 C   0  0  0  0  0  0
   10.0370   36.4718   74.7831 C   0  0  0  0  0  0
    8.9060   36.2162   75.1237 O   0  0  0  0  0  0
   11.0961   36.6393   75.6219 O   0  0  0  0  0  0
   11.3188   34.1381   71.7991 H   0  0  0  0  0  0
   11.3209   35.8852   73.3356 H   0  0  0  0  0  0
    9.4771   37.0134   70.4222 H   0  0  0  0  0  0
   10.5253   32.6144   70.3400 H   0  0  0  0  0  0
   10.6211   31.5785   71.7000 H   0  0  0  0  0  0
    9.0640   32.2202   71.2140 H   0  0  0  0  0  0
    9.7900   33.8174   74.2522 H   0  0  0  0  0  0
   10.3825   32.2354   73.7732 H   0  0  0  0  0  0
   11.9173   33.0097   75.4908 H   0  0  0  0  0  0
   10.9219   38.6159   73.7792 H   0  0  0  0  0  0
   11.7759   38.2160   72.3537 H   0  0  0  0  0  0
    8.9209   38.9387   72.5146 H   0  0  0  0  0  0
   10.0109   39.0640   71.1340 H   0  0  0  0  0  0
    7.7205   36.4711   68.9527 H   0  0  0  0  0  0
    6.2378   37.4160   68.9884 H   0  0  0  0  0  0
    8.5210   37.5409   66.8833 H   0  0  0  0  0  0
    9.6964   39.4284   65.9098 H   0  0  0  0  0  0
    8.6130   41.8626   69.2802 H   0  0  0  0  0  0
    7.7211   39.9051   70.3400 H   0  0  0  0  0  0
   10.1736   42.6388   67.8372 H   0  0  0  0  0  0
   11.9679   41.1539   67.1203 H   0  0  0  0  0  0
   11.2535   40.9438   65.5404 H   0  0  0  0  0  0
   12.3386   43.5165   66.7502 H   0  0  0  0  0  0
   13.0080   42.6400   65.4003 H   0  0  0  0  0  0
   11.7178   44.6660   64.7394 H   0  0  0  0  0  0
   11.1246   43.2238   63.9717 H   0  0  0  0  0  0
    9.7577   44.6160   66.3400 H   0  0  0  0  0  0
    9.1305   44.4908   64.7399 H   0  0  0  0  0  0
    8.7996   42.2160   65.1400 H   0  0  0  0  0  0
    8.1523   43.0802   66.5074 H   0  0  0  0  0  0
   10.8656   36.4400   76.5359 H   0  0  0  0  0  0
  1  2  1  0  0  0
  1 32  1  0  0  0
  1 33  1  0  0  0
  1 34  1  0  0  0
  2 29  1  0  0  0
  2  3  1  0  0  0
  2  5  1  0  0  0
  3  4  1  0  0  0
  3 35  1  0  0  0
  3 36  1  0  0  0
  4 37  1  0  0  0
  5  6  2  0  0  0
  5  7  1  0  0  0
  7 11  1  0  0  0
  7  8  1  0  0  0
  8 30  1  0  0  0
  8  9  1  0  0  0
  8 26  1  0  0  0
  9 10  1  0  0  0
  9 38  1  0  0  0
  9 39  1  0  0  0
 10 11  1  0  0  0
 10 40  1  0  0  0
 10 41  1  0  0  0
 11 31  1  0  0  0
 11 12  1  0  0  0
 12 13  1  0  0  0
 13 14  1  0  0  0
 13 42  1  0  0  0
 13 43  1  0  0  0
 14 19  1  0  0  0
 14 15  2  0  0  0
 15 16  1  0  0  0
 15 44  1  0  0  0
 16 17  2  0  0  0
 16 45  1  0  0  0
 17 18  1  0  0  0
 17 20  1  0  0  0
 18 19  2  0  0  0
 18 46  1  0  0  0
 19 47  1  0  0  0
 20 25  1  0  0  0
 20 21  1  0  0  0
 20 48  1  0  0  0
 21 22  1  0  0  0
 21 49  1  0  0  0
 21 50  1  0  0  0
 22 23  1  0  0  0
 22 51  1  0  0  0
 22 52  1  0  0  0
 23 24  1  0  0  0
 23 53  1  0  0  0
 23 54  1  0  0  0
 24 25  1  0  0  0
 24 55  1  0  0  0
 24 56  1  0  0  0
 25 57  1  0  0  0
 25 58  1  0  0  0
 26 27  2  0  0  0
 26 28  1  0  0  0
 28 59  1  0  0  0
M  END
> <s_m_entry_id>
7417

> <s_m_entry_name>
ligand_docking-pose.292

> <s_m_Source_Path>
/home/csk/Desktop/cluster/DUD-E-result/lkha4

> <s_m_Source_File>
ligand_docking-pose.sdf

> <i_m_Source_File_Index>
292

> <i_lp_mmshare_version>
53161

> <r_lp_tautomer_probability>
1

> <s_lp_Force_Field>
OPLS_2005

> <r_lp_Energy>
22.870975

> <b_lp_Chiralities_Consistent>
1

> <s_lp_Variant>
510250-1

> <s_i_glide_gridfile>
glide-grid_3chp

> <i_i_glide_lignum>
283

> <i_i_glide_rotatable_bonds>
10

> <r_i_docking_score>
-7.01033845234612

> <r_i_glide_ligand_efficiency>
-0.250369230440933

> <r_i_glide_ligand_efficiency_sa>
-0.760268443209476

> <r_i_glide_ligand_efficiency_ln>
-1.61819194728242

> <r_i_glide_gscore>
-7.01033845234612

> <r_i_glide_lipo>
-5.02426427540922

> <r_i_glide_hbond>
-0.304

> <r_i_glide_metal>
0

> <r_i_glide_rewards>
-1.64666964605834

> <r_i_glide_evdw>
-8.82383060455322

> <r_i_glide_ecoul>
-3.23620104789734

> <r_i_glide_erotb>
0.89121715653371

> <r_i_glide_esite>
0

> <r_i_glide_emodel>
-24.2480428349923

> <r_i_glide_energy>
-12.0600316524506

> <r_i_glide_einternal>
20.1744403839111

> <i_i_glide_confnum>
119

> <i_i_glide_posenum>
33

> <r_i_glide_eff_state_penalty>
0

> <i_f3d_flags>
0

> <s_user_duplicate_titles>
510250

> <s_m_subgroup_title>
dock_pv

> <s_m_subgroupid>
dock_pv1

> <b_m_subgroup_collapsed>
0

$$$$
496258
                    3D
 Schrodinger Suite 2021-1.
 57 57  0  0  1  0            999 V2000
    7.9566   36.6166   68.5985 C   0  0  0  0  0  0
    7.9637   37.7151   67.5402 C   0  0  0  0  0  0
    8.6137   39.0042   67.9523 C   0  0  0  0  0  0
    7.9930   39.6260   69.2001 C   0  0  1  0  0  0
    8.3998   38.8671   70.4990 C   0  0  0  0  0  0
    9.7320   38.6164   70.7841 C   0  0  0  0  0  0
   10.1233   37.8190   71.8527 C   0  0  0  0  0  0
    9.1948   37.1679   72.6442 C   0  0  0  0  0  0
    7.8435   37.3518   72.3397 C   0  0  0  0  0  0
    7.4538   38.2158   71.3065 C   0  0  0  0  0  0
    9.7223   36.3058   73.8004 C   0  0  0  0  0  0
   10.1530   34.9090   73.3146 C   0  0  0  0  0  0
    8.8244   36.2312   75.0493 C   0  0  0  0  0  0
    8.1204   41.4586   69.1400 S   0  0  0  0  0  0
    9.6583   41.8836   68.2250 C   0  0  0  0  0  0
    9.5126   42.1595   66.7059 C   0  0  1  0  0  0
    8.9211   43.5261   66.3408 C   0  0  0  0  0  0
    9.3212   44.2153   65.4245 O   0  0  0  0  0  0
    7.8522   43.8163   67.1400 O   0  0  0  0  0  0
   10.7359   41.8530   65.9436 N   0  0  0  0  0  0
   11.9240   42.4921   65.9725 C   0  0  0  0  0  0
   12.1559   43.4158   66.7376 O   0  0  0  0  0  0
   13.0181   42.0026   64.9954 C   0  0  2  0  0  0
   13.1218   40.4723   65.0555 C   0  0  0  0  0  0
   14.4068   42.7026   65.1572 C   0  0  0  0  0  0
   15.7936   41.8160   64.3398 S   0  0  0  0  0  0
    8.7600   41.4873   66.3191 H   0  0  0  0  0  0
   12.6597   42.2940   64.0093 H   0  0  0  0  0  0
    7.7210   35.6690   68.1455 H   0  0  0  0  0  0
    8.9045   36.5391   69.1344 H   0  0  0  0  0  0
    7.1723   36.7735   69.3282 H   0  0  0  0  0  0
    6.9502   37.8821   67.1728 H   0  0  0  0  0  0
    8.5622   37.4161   66.6979 H   0  0  0  0  0  0
    8.4840   39.6445   67.0921 H   0  0  0  0  0  0
    9.6908   38.8699   68.0617 H   0  0  0  0  0  0
    6.9212   39.4928   69.1049 H   0  0  0  0  0  0
   10.5077   39.0158   70.1611 H   0  0  0  0  0  0
   11.1749   37.8161   72.0788 H   0  0  0  0  0  0
    7.0838   36.8484   72.9125 H   0  0  0  0  0  0
    6.4034   38.3207   71.0959 H   0  0  0  0  0  0
   10.6244   36.8073   74.1567 H   0  0  0  0  0  0
   10.9193   34.9735   72.5418 H   0  0  0  0  0  0
   10.5678   34.3130   74.1289 H   0  0  0  0  0  0
    9.3204   34.3526   72.8909 H   0  0  0  0  0  0
    8.5213   37.2022   75.4066 H   0  0  0  0  0  0
    7.9035   35.6828   74.8867 H   0  0  0  0  0  0
    9.3720   35.8165   75.8920 H   0  0  0  0  0  0
   10.3386   41.0493   68.3380 H   0  0  0  0  0  0
   10.1196   42.7401   68.7185 H   0  0  0  0  0  0
    7.6475   43.1845   67.8346 H   0  0  0  0  0  0
   10.6419   41.0952   65.2823 H   0  0  0  0  0  0
   12.1786   39.9319   65.1399 H   0  0  0  0  0  0
   13.5964   40.0937   64.1504 H   0  0  0  0  0  0
   13.7195   40.2160   65.9292 H   0  0  0  0  0  0
   14.6657   42.8037   66.2124 H   0  0  0  0  0  0
   14.3650   43.7167   64.7573 H   0  0  0  0  0  0
   15.3501   41.9517   63.0780 H   0  0  0  0  0  0
  1  2  1  0  0  0
  1 29  1  0  0  0
  1 30  1  0  0  0
  1 31  1  0  0  0
  2  3  1  0  0  0
  2 32  1  0  0  0
  2 33  1  0  0  0
  3  4  1  0  0  0
  3 34  1  0  0  0
  3 35  1  0  0  0
  4  5  1  0  0  0
  4 14  1  0  0  0
  4 36  1  0  0  0
  5 10  1  0  0  0
  5  6  2  0  0  0
  6  7  1  0  0  0
  6 37  1  0  0  0
  7  8  2  0  0  0
  7 38  1  0  0  0
  8  9  1  0  0  0
  8 11  1  0  0  0
  9 10  2  0  0  0
  9 39  1  0  0  0
 10 40  1  0  0  0
 11 12  1  0  0  0
 11 13  1  0  0  0
 11 41  1  0  0  0
 12 42  1  0  0  0
 12 43  1  0  0  0
 12 44  1  0  0  0
 13 45  1  0  0  0
 13 46  1  0  0  0
 13 47  1  0  0  0
 14 15  1  0  0  0
 15 16  1  0  0  0
 15 48  1  0  0  0
 15 49  1  0  0  0
 16 27  1  0  0  0
 16 17  1  0  0  0
 16 20  1  0  0  0
 17 18  2  0  0  0
 17 19  1  0  0  0
 19 50  1  0  0  0
 20 21  1  0  0  0
 20 51  1  0  0  0
 21 22  2  0  0  0
 21 23  1  0  0  0
 23 28  1  0  0  0
 23 24  1  0  0  0
 23 25  1  0  0  0
 24 52  1  0  0  0
 24 53  1  0  0  0
 24 54  1  0  0  0
 25 26  1  0  0  0
 25 55  1  0  0  0
 25 56  1  0  0  0
 26 57  1  0  0  0
M  END
> <s_m_entry_id>
7418

> <s_m_entry_name>
ligand_docking-pose.293

> <s_m_Source_Path>
/home/csk/Desktop/cluster/DUD-E-result/lkha4

> <s_m_Source_File>
ligand_docking-pose.sdf

> <i_m_Source_File_Index>
293

> <i_lp_mmshare_version>
53161

> <r_lp_tautomer_probability>
1

> <s_lp_Force_Field>
OPLS_2005

> <r_lp_Energy>
5.139659

> <b_lp_Chiralities_Consistent>
1

> <s_lp_Variant>
496258-2

> <s_i_glide_gridfile>
glide-grid_3chp

> <i_i_glide_lignum>
266

> <i_i_glide_rotatable_bonds>
14

> <r_i_docking_score>
-6.98690518984598

> <r_i_glide_ligand_efficiency>
-0.268727122686384

> <r_i_glide_ligand_efficiency_sa>
-0.796103043568243

> <r_i_glide_ligand_efficiency_ln>
-1.64085175792948

> <r_i_glide_gscore>
-6.98690518984598

> <r_i_glide_lipo>
-4.36882225828497

> <r_i_glide_hbond>
-0.422834354261052

> <r_i_glide_metal>
0

> <r_i_glide_rewards>
-1.89756895520535

> <r_i_glide_evdw>
-20.7115077972412

> <r_i_glide_ecoul>
-2.60170531272888

> <r_i_glide_erotb>
1.23835497597855

> <r_i_glide_esite>
-0.110203411301759

> <r_i_glide_emodel>
-18.8134541151144

> <r_i_glide_energy>
-23.3132131099701

> <r_i_glide_einternal>
10.3977518081665

> <i_i_glide_confnum>
209

> <i_i_glide_posenum>
371

> <r_i_glide_eff_state_penalty>
0

> <i_f3d_flags>
0

> <s_user_duplicate_titles>
496258

> <s_m_subgroup_title>
dock_pv

> <s_m_subgroupid>
dock_pv1

> <b_m_subgroup_collapsed>
0

$$$$
