CHEMBL301_lig518
                    3D
 Schrodinger Suite 2021-1.
 46 49  0  0  1  0            999 V2000
   -1.4190   28.0355   10.7884 N   0  0  0  0  0  0
    4.4665   25.0944    6.0433 C   0  0  0  0  0  0
    4.3651   25.3803    4.6829 C   0  0  0  0  0  0
    4.4580   26.6917    4.2228 C   0  0  0  0  0  0
    4.6304   27.7305    5.1335 C   0  0  0  0  0  0
    4.7257   27.4514    6.5001 C   0  0  0  0  0  0
    4.6541   26.1308    6.9543 C   0  0  0  0  0  0
    4.8433   28.5935    7.4992 C   0  0  0  0  0  0
    3.4676   29.0002    8.0392 C   0  0  0  0  0  0
    3.0252   28.4183    9.0259 O   0  0  0  0  0  0
    2.8552   30.0008    7.3761 N   0  0  0  0  0  0
    1.6578   30.6415    7.6789 C   0  0  0  0  0  0
    0.3585   32.3392    7.7811 N   0  0  0  0  0  0
    1.4653   31.8455    7.2030 N   0  0  0  0  0  0
   -0.2727   31.4031    8.5764 C   0  0  0  0  0  0
    0.5468   30.2443    8.5174 C   0  0  0  0  0  0
    0.1384   29.1065    9.2324 C   0  0  0  0  0  0
   -1.0115   29.1495   10.0262 C   0  0  0  0  0  0
   -1.7644   30.3244   10.0928 C   0  0  0  0  0  0
   -1.4339   31.4657    9.3561 C   0  0  0  0  0  0
   -1.3081   26.6982   10.2040 C   0  0  0  0  0  0
    0.0322   26.0511   10.6216 C   0  0  0  0  0  0
    0.6482   26.8757   11.7683 C   0  0  0  0  0  0
   -0.7936   27.8704   12.4346 S   0  0  0  0  0  0
   -0.3420   29.1559   12.9760 O   0  0  0  0  0  0
   -1.5893   26.9374   13.2411 O   0  0  0  0  0  0
    4.1512   24.3473    3.7760 N   0  0  0  0  0  0
    4.3863   24.0779    6.3989 H   0  0  0  0  0  0
    4.3807   26.9064    3.1670 H   0  0  0  0  0  0
    4.6836   28.7498    4.7794 H   0  0  0  0  0  0
    4.7135   25.9131    8.0116 H   0  0  0  0  0  0
    5.4811   28.2999    8.3345 H   0  0  0  0  0  0
    5.3232   29.4506    7.0285 H   0  0  0  0  0  0
    3.4196   30.4639    6.6702 H   0  0  0  0  0  0
    0.0631   33.2874    7.5844 H   0  0  0  0  0  0
    0.7144   28.2017    9.1822 H   0  0  0  0  0  0
   -2.6389   30.3527   10.7302 H   0  0  0  0  0  0
   -2.0375   32.3598    9.4155 H   0  0  0  0  0  0
   -2.1762   26.0616   10.3849 H   0  0  0  0  0  0
   -1.2965   26.7593    9.1141 H   0  0  0  0  0  0
   -0.1467   25.0203   10.9309 H   0  0  0  0  0  0
    0.7213   25.9829    9.7768 H   0  0  0  0  0  0
    1.0374   26.2522   12.5711 H   0  0  0  0  0  0
    1.4343   27.5593   11.4437 H   0  0  0  0  0  0
    4.1063   24.5461    2.7749 H   0  0  0  0  0  0
    4.0639   23.3991    4.1063 H   0  0  0  0  0  0
  1 18  1  0  0  0
  1 21  1  0  0  0
  1 24  1  0  0  0
  2  3  2  0  0  0
  2  7  1  0  0  0
  2 28  1  0  0  0
  3  4  1  0  0  0
  3 27  1  0  0  0
  4  5  2  0  0  0
  4 29  1  0  0  0
  5  6  1  0  0  0
  5 30  1  0  0  0
  6  8  1  0  0  0
  6  7  2  0  0  0
  7 31  1  0  0  0
  8  9  1  0  0  0
  8 32  1  0  0  0
  8 33  1  0  0  0
  9 10  2  0  0  0
  9 11  1  0  0  0
 11 12  1  0  0  0
 11 34  1  0  0  0
 12 14  2  0  0  0
 12 16  1  0  0  0
 13 15  1  0  0  0
 13 14  1  0  0  0
 13 35  1  0  0  0
 15 16  2  0  0  0
 15 20  1  0  0  0
 16 17  1  0  0  0
 17 18  2  0  0  0
 17 36  1  0  0  0
 18 19  1  0  0  0
 19 20  2  0  0  0
 19 37  1  0  0  0
 20 38  1  0  0  0
 21 22  1  0  0  0
 21 39  1  0  0  0
 21 40  1  0  0  0
 22 23  1  0  0  0
 22 41  1  0  0  0
 22 42  1  0  0  0
 23 24  1  0  0  0
 23 43  1  0  0  0
 23 44  1  0  0  0
 24 25  2  0  0  0
 24 26  2  0  0  0
 27 45  1  0  0  0
 27 46  1  0  0  0
M  END
> <s_m_entry_id>
32601

> <s_m_entry_name>
dock_pv.2

> <s_m_Source_Path>
/home/csk/Desktop/cluster/DUD-E-result/cdk2

> <s_m_Source_File>
dock_pv.maegz

> <i_m_Source_File_Index>
2

> <chembl_id>
CHEMBL255932

> <chembl_pref_name>
None

> <i_lp_mmshare_version>
53161

> <i_f3d_flags>
0

> <r_lp_tautomer_probability>
0.980392156862745

> <s_lp_Force_Field>
OPLS_2005

> <r_lp_Energy>
18.843666

> <b_lp_Chiralities_Consistent>
1

> <s_lp_Variant>
CHEMBL301_lig518-1

> <s_i_glide_gridfile>
glide-grid_1h00

> <i_i_glide_lignum>
720

> <i_i_glide_rotatable_bonds>
5

> <r_i_docking_score>
-9.48710912780362

> <r_i_glide_ligand_efficiency>
-0.351374412140875

> <r_i_glide_ligand_efficiency_sa>
-1.05412323526455

> <r_i_glide_ligand_efficiency_ln>
-2.20844259773482

> <r_i_glide_gscore>
-9.48710912780362

> <r_i_glide_lipo>
-2.9287246540544

> <r_i_glide_hbond>
-0.541897178966242

> <r_i_glide_metal>
0

> <r_i_glide_rewards>
-2.75908114834588

> <r_i_glide_evdw>
-43.2271614074707

> <r_i_glide_ecoul>
-9.69229507446289

> <r_i_glide_erotb>
0.458289009338688

> <r_i_glide_esite>
-0.100492824232813

> <r_i_glide_emodel>
-79.6074183912595

> <r_i_glide_energy>
-52.9194564819336

> <r_i_glide_einternal>
6.51001596450806

> <i_i_glide_confnum>
185

> <i_i_glide_posenum>
28

> <r_i_glide_eff_state_penalty>
0

> <s_user_duplicate_titles>
CHEMBL301_lig518,CHEMBL301_lig518,424725

> <s_m_subgroup_title>
dock_pv

> <s_m_subgroupid>
dock_pv

> <b_m_subgroup_collapsed>
1

$$$$
CHEMBL301_lig164
                    3D
 Schrodinger Suite 2021-1.
 51 54  0  0  1  0            999 V2000
   -2.3398   30.1684   10.5103 C   0  0  0  0  0  0
   -2.8346   31.4715   10.4288 C   0  0  0  0  0  0
   -2.1797   32.4308    9.6697 C   0  0  0  0  0  0
   -1.1727   29.8030    9.8287 C   0  0  0  0  0  0
   -0.5228   30.7743    9.0434 C   0  0  0  0  0  0
   -1.0392   32.0577    8.9763 C   0  0  0  0  0  0
   -0.2494   32.8333    8.1760 N   0  0  0  0  0  0
    0.7892   32.1470    7.7044 C   0  0  0  0  0  0
    0.6916   30.7879    8.2397 C   0  0  0  0  0  0
    1.6580   32.5995    6.9760 O   0  0  0  0  0  0
    1.5471   29.8517    8.1112 N   0  0  0  0  0  0
    2.6584   29.9477    7.2559 N   0  0  0  0  0  0
    3.6322   28.9574    7.1200 C   0  0  0  0  0  0
    4.2777   28.4474    8.2438 C   0  0  0  0  0  0
    5.2289   27.4468    8.1068 C   0  0  0  0  0  0
    5.5267   26.9341    6.8483 C   0  0  0  0  0  0
    4.8877   27.4402    5.7143 C   0  0  0  0  0  0
    3.9608   28.4714    5.8528 C   0  0  0  0  0  0
    6.7352   25.6215    6.7393 S   0  0  0  0  0  0
    7.5703   25.8520    5.2277 N   0  0  0  0  0  0
    7.7077   25.8520    7.8126 O   0  0  0  0  0  0
    5.9897   24.3629    6.6504 O   0  0  0  0  0  0
   -0.6955   28.3570    9.9355 C   0  0  0  0  0  0
    0.4290   28.1266   10.9659 C   0  0  0  0  0  0
    0.9621   26.7018   10.8921 C   0  0  0  0  0  0
    0.4437   25.6974   11.7136 C   0  0  0  0  0  0
    0.8788   24.3811   11.5584 C   0  0  0  0  0  0
    1.8191   24.0759   10.5750 C   0  0  0  0  0  0
    2.3652   25.0790    9.7794 C   0  0  0  0  0  0
    1.9438   26.3925    9.9509 C   0  0  0  0  0  0
    2.1905   22.7765   10.3594 O   0  0  0  0  0  0
   -2.8637   29.4500   11.1259 H   0  0  0  0  0  0
   -3.7246   31.7471   10.9755 H   0  0  0  0  0  0
   -2.5606   33.4403    9.6344 H   0  0  0  0  0  0
   -0.3966   33.8088    7.9569 H   0  0  0  0  0  0
    2.6615   30.7551    6.6418 H   0  0  0  0  0  0
    4.0327   28.8144    9.2277 H   0  0  0  0  0  0
    5.7250   27.0524    8.9762 H   0  0  0  0  0  0
    5.1143   27.0521    4.7321 H   0  0  0  0  0  0
    3.4736   28.8702    4.9784 H   0  0  0  0  0  0
    6.9959   25.6429    4.4090 H   0  0  0  0  0  0
    8.0269   26.7696    5.1714 H   0  0  0  0  0  0
   -0.3700   28.0393    8.9460 H   0  0  0  0  0  0
   -1.5419   27.7055   10.1568 H   0  0  0  0  0  0
    0.0788   28.3399   11.9774 H   0  0  0  0  0  0
    1.2560   28.8148   10.7883 H   0  0  0  0  0  0
   -0.3106   25.9302   12.4510 H   0  0  0  0  0  0
    0.4627   23.5971   12.1736 H   0  0  0  0  0  0
    3.0952   24.8486    9.0170 H   0  0  0  0  0  0
    2.3316   27.1632    9.3079 H   0  0  0  0  0  0
    2.4586   22.6456    9.4451 H   0  0  0  0  0  0
  1  4  1  0  0  0
  1  2  2  0  0  0
  1 32  1  0  0  0
  2  3  1  0  0  0
  2 33  1  0  0  0
  3  6  2  0  0  0
  3 34  1  0  0  0
  4  5  2  0  0  0
  4 23  1  0  0  0
  5  9  1  0  0  0
  5  6  1  0  0  0
  6  7  1  0  0  0
  7  8  1  0  0  0
  7 35  1  0  0  0
  8  9  1  0  0  0
  8 10  2  0  0  0
  9 11  2  0  0  0
 11 12  1  0  0  0
 12 13  1  0  0  0
 12 36  1  0  0  0
 13 18  1  0  0  0
 13 14  2  0  0  0
 14 15  1  0  0  0
 14 37  1  0  0  0
 15 16  2  0  0  0
 15 38  1  0  0  0
 16 17  1  0  0  0
 16 19  1  0  0  0
 17 18  2  0  0  0
 17 39  1  0  0  0
 18 40  1  0  0  0
 19 20  1  0  0  0
 19 21  2  0  0  0
 19 22  2  0  0  0
 20 41  1  0  0  0
 20 42  1  0  0  0
 23 24  1  0  0  0
 23 43  1  0  0  0
 23 44  1  0  0  0
 24 25  1  0  0  0
 24 45  1  0  0  0
 24 46  1  0  0  0
 25 26  2  0  0  0
 25 30  1  0  0  0
 26 27  1  0  0  0
 26 47  1  0  0  0
 27 28  2  0  0  0
 27 48  1  0  0  0
 28 29  1  0  0  0
 28 31  1  0  0  0
 29 30  2  0  0  0
 29 49  1  0  0  0
 30 50  1  0  0  0
 31 51  1  0  0  0
M  END
> <s_m_entry_id>
32602

> <s_m_entry_name>
dock_pv.3

> <s_m_Source_Path>
/home/csk/Desktop/cluster/DUD-E-result/cdk2

> <s_m_Source_File>
dock_pv.maegz

> <i_m_Source_File_Index>
3

> <chembl_id>
CHEMBL411865

> <chembl_pref_name>
None

> <i_lp_mmshare_version>
53161

> <i_f3d_flags>
0

> <r_lp_tautomer_probability>
0.999999999997365

> <s_lp_Force_Field>
OPLS_2005

> <r_lp_Energy>
44.441405

> <b_lp_Chiralities_Consistent>
1

> <s_lp_Variant>
CHEMBL301_lig164-1

> <s_i_glide_gridfile>
glide-grid_1h00

> <i_i_glide_lignum>
304

> <i_i_glide_rotatable_bonds>
7

> <r_i_docking_score>
-9.47236771735883

> <r_i_glide_ligand_efficiency>
-0.305560248947059

> <r_i_glide_ligand_efficiency_sa>
-0.959881053083449

> <r_i_glide_ligand_efficiency_ln>
-2.13630921347206

> <r_i_glide_gscore>
-9.47236771735883

> <r_i_glide_lipo>
-2.9722251872881

> <r_i_glide_hbond>
-0.79611792274828

> <r_i_glide_metal>
0

> <r_i_glide_rewards>
-1.95726091865612

> <r_i_glide_evdw>
-42.8726768493652

> <r_i_glide_ecoul>
-12.9353742599487

> <r_i_glide_erotb>
0.366191233519344

> <r_i_glide_esite>
-0.029014940725105

> <r_i_glide_emodel>
-82.7074578097237

> <r_i_glide_energy>
-55.808051109314

> <r_i_glide_einternal>
7.33769369125366

> <i_i_glide_confnum>
3

> <i_i_glide_posenum>
245

> <r_i_glide_eff_state_penalty>
0

> <s_user_duplicate_titles>
CHEMBL301_lig164,440638,137416

> <s_m_subgroup_title>
dock_pv

> <s_m_subgroupid>
dock_pv

> <b_m_subgroup_collapsed>
1

$$$$
CHEMBL301_lig209
                    3D
 Schrodinger Suite 2021-1.
 49 52  0  0  1  0            999 V2000
    7.7890   26.2520    5.3013 N   0  0  0  0  0  0
    6.8388   25.7418    6.6721 S   0  0  0  0  0  0
    7.6894   25.8520    7.8619 O   0  0  0  0  0  0
    6.1918   24.4757    6.3178 O   0  0  0  0  0  0
    5.5493   26.9686    6.8336 C   0  0  0  0  0  0
    5.2044   27.4293    8.1024 C   0  0  0  0  0  0
    4.2221   28.4002    8.2457 C   0  0  0  0  0  0
    3.6056   28.9404    7.1188 C   0  0  0  0  0  0
    2.6391   29.9385    7.2472 N   0  0  0  0  0  0
    1.5267   29.8520    8.0958 N   0  0  0  0  0  0
    0.6848   30.7988    8.2299 C   0  0  0  0  0  0
    0.7876   32.1590    7.7000 C   0  0  0  0  0  0
    1.6580   32.6135    6.9760 O   0  0  0  0  0  0
   -0.2481   32.8474    8.1762 N   0  0  0  0  0  0
   -1.0391   32.0705    8.9760 C   0  0  0  0  0  0
   -2.1764   32.4401    9.6764 C   0  0  0  0  0  0
   -2.8324   31.4741   10.4260 C   0  0  0  0  0  0
   -2.3421   30.1679   10.4908 C   0  0  0  0  0  0
   -1.1811   29.8051    9.7987 C   0  0  0  0  0  0
   -0.7021   28.3586    9.8900 C   0  0  0  0  0  0
    0.3960   28.1269   10.9411 C   0  0  0  0  0  0
    0.8448   26.6737   10.9775 C   0  0  0  0  0  0
    1.9048   26.2421   10.1760 C   0  0  0  0  0  0
    2.2760   24.8981   10.2127 C   0  0  0  0  0  0
    1.6589   23.9845   11.0054 N   0  0  0  0  0  0
    0.6311   24.4166   11.7811 C   0  0  0  0  0  0
    0.1941   25.7437   11.7962 C   0  0  0  0  0  0
   -0.5303   30.7840    9.0262 C   0  0  0  0  0  0
    3.9638   28.4892    5.8485 C   0  0  0  0  0  0
    4.9119   27.4807    5.7023 C   0  0  0  0  0  0
    7.3340   26.0723    4.4049 H   0  0  0  0  0  0
    8.0580   27.2453    5.3760 H   0  0  0  0  0  0
    5.6992   27.0391    8.9760 H   0  0  0  0  0  0
    3.9521   28.7407    9.2335 H   0  0  0  0  0  0
    2.6582   30.7503    6.6394 H   0  0  0  0  0  0
   -0.3930   33.8240    7.9587 H   0  0  0  0  0  0
   -2.5544   33.4508    9.6535 H   0  0  0  0  0  0
   -3.7213   31.7460   10.9760 H   0  0  0  0  0  0
   -2.8671   29.4452   11.0996 H   0  0  0  0  0  0
   -0.3562   28.0461    8.9062 H   0  0  0  0  0  0
   -1.5459   27.7022   10.0932 H   0  0  0  0  0  0
    0.0459   28.4182   11.9329 H   0  0  0  0  0  0
    1.2580   28.7610   10.7368 H   0  0  0  0  0  0
    2.4181   26.9293    9.5237 H   0  0  0  0  0  0
    3.0835   24.5406    9.5902 H   0  0  0  0  0  0
    0.1520   23.6729   12.4006 H   0  0  0  0  0  0
   -0.6307   26.0430   12.4262 H   0  0  0  0  0  0
    3.4920   28.9090    4.9760 H   0  0  0  0  0  0
    5.1728   27.1294    4.7147 H   0  0  0  0  0  0
  1  2  1  0  0  0
  1 31  1  0  0  0
  1 32  1  0  0  0
  2  3  2  0  0  0
  2  4  2  0  0  0
  2  5  1  0  0  0
  5  6  2  0  0  0
  5 30  1  0  0  0
  6  7  1  0  0  0
  6 33  1  0  0  0
  7  8  2  0  0  0
  7 34  1  0  0  0
  8  9  1  0  0  0
  8 29  1  0  0  0
  9 10  1  0  0  0
  9 35  1  0  0  0
 10 11  2  0  0  0
 11 12  1  0  0  0
 11 28  1  0  0  0
 12 13  2  0  0  0
 12 14  1  0  0  0
 14 15  1  0  0  0
 14 36  1  0  0  0
 15 16  2  0  0  0
 15 28  1  0  0  0
 16 17  1  0  0  0
 16 37  1  0  0  0
 17 18  2  0  0  0
 17 38  1  0  0  0
 18 19  1  0  0  0
 18 39  1  0  0  0
 19 20  1  0  0  0
 19 28  2  0  0  0
 20 21  1  0  0  0
 20 40  1  0  0  0
 20 41  1  0  0  0
 21 22  1  0  0  0
 21 42  1  0  0  0
 21 43  1  0  0  0
 22 23  2  0  0  0
 22 27  1  0  0  0
 23 24  1  0  0  0
 23 44  1  0  0  0
 24 25  2  0  0  0
 24 45  1  0  0  0
 25 26  1  0  0  0
 26 27  2  0  0  0
 26 46  1  0  0  0
 27 47  1  0  0  0
 29 30  2  0  0  0
 29 48  1  0  0  0
 30 49  1  0  0  0
M  END
> <s_m_entry_id>
32603

> <s_m_entry_name>
dock_pv.4

> <s_m_Source_Path>
/home/csk/Desktop/cluster/DUD-E-result/cdk2

> <s_m_Source_File>
dock_pv.maegz

> <i_m_Source_File_Index>
4

> <chembl_id>
CHEMBL1794054

> <chembl_pref_name>
None

> <i_lp_mmshare_version>
53161

> <i_f3d_flags>
0

> <r_lp_tautomer_probability>
1

> <s_lp_Force_Field>
OPLS_2005

> <r_lp_Energy>
43.150266

> <b_lp_Chiralities_Consistent>
1

> <s_lp_Variant>
CHEMBL301_lig209-1

> <s_i_glide_gridfile>
glide-grid_1h00

> <i_i_glide_lignum>
351

> <i_i_glide_rotatable_bonds>
6

> <r_i_docking_score>
-9.41245410412602

> <r_i_glide_ligand_efficiency>
-0.313748470137534

> <r_i_glide_ligand_efficiency_sa>
-0.974889443999376

> <r_i_glide_ligand_efficiency_ln>
-2.13861212935906

> <r_i_glide_gscore>
-9.41245410412602

> <r_i_glide_lipo>
-2.92545284952732

> <r_i_glide_hbond>
-0.806101236286729

> <r_i_glide_metal>
0

> <r_i_glide_rewards>
-1.95084495029474

> <r_i_glide_evdw>
-40.430965423584

> <r_i_glide_ecoul>
-13.6205902099609

> <r_i_glide_erotb>
0.390150401914995

> <r_i_glide_esite>
-0.0555686672588822

> <r_i_glide_emodel>
-80.5999952663473

> <r_i_glide_energy>
-54.0515556335449

> <r_i_glide_einternal>
6.33503580093384

> <i_i_glide_confnum>
13

> <i_i_glide_posenum>
345

> <r_i_glide_eff_state_penalty>
0

> <s_user_duplicate_titles>
CHEMBL301_lig209,137417

> <s_m_subgroup_title>
dock_pv

> <s_m_subgroupid>
dock_pv

> <b_m_subgroup_collapsed>
1

$$$$
CHEMBL301_lig195
                    3D
 Schrodinger Suite 2021-1.
 44 46  0  0  1  0            999 V2000
   -0.7422   28.4415   12.6267 C   0  0  0  0  0  0
   -0.3915   27.8389   11.2737 C   0  0  0  0  0  0
    0.1127   26.4073   11.3481 C   0  0  0  0  0  0
   -0.4735   28.4881   10.0900 C   0  0  0  0  0  0
   -0.9770   29.8503    9.8191 C   0  0  0  0  0  0
   -2.1638   30.3021   10.4132 C   0  0  0  0  0  0
   -2.6381   31.5929   10.1761 C   0  0  0  0  0  0
   -1.9338   32.4524    9.3377 C   0  0  0  0  0  0
   -0.7731   31.9916    8.7233 C   0  0  0  0  0  0
    0.0581   32.6521    7.8492 N   0  0  0  0  0  0
    1.0437   31.8661    7.4067 C   0  0  0  0  0  0
    1.8916   32.1699    6.5760 O   0  0  0  0  0  0
    0.9462   30.6121    8.1749 C   0  0  0  0  0  0
   -0.2918   30.7128    8.9433 C   0  0  0  0  0  0
    1.7936   29.6499    8.1769 N   0  0  0  0  0  0
    2.9489   29.6946    7.3760 N   0  0  0  0  0  0
    3.8006   28.6168    7.1322 C   0  0  0  0  0  0
    4.4021   28.5131    5.8766 C   0  0  0  0  0  0
    5.2561   27.4514    5.5906 C   0  0  0  0  0  0
    5.5249   26.4985    6.5711 C   0  0  0  0  0  0
    4.9168   26.5887    7.8216 C   0  0  0  0  0  0
    4.0591   27.6489    8.1072 C   0  0  0  0  0  0
    6.6848   25.1813    6.2303 S   0  0  0  0  0  0
    8.2435   25.8522    6.6191 N   0  0  0  0  0  0
    6.4359   24.0997    7.1886 O   0  0  0  0  0  0
    6.6726   24.9324    4.7860 O   0  0  0  0  0  0
   -1.6602   27.9961   13.0144 H   0  0  0  0  0  0
   -0.8876   29.5207   12.5898 H   0  0  0  0  0  0
    0.0598   28.2549   13.3415 H   0  0  0  0  0  0
    0.9937   26.3444   11.9887 H   0  0  0  0  0  0
   -0.6594   25.7543   11.7563 H   0  0  0  0  0  0
    0.3914   26.0196   10.3662 H   0  0  0  0  0  0
   -0.1602   27.9520    9.2051 H   0  0  0  0  0  0
   -2.7287   29.6591   11.0743 H   0  0  0  0  0  0
   -3.5458   31.9262   10.6574 H   0  0  0  0  0  0
   -2.3017   33.4520    9.1708 H   0  0  0  0  0  0
   -0.0613   33.6071    7.5320 H   0  0  0  0  0  0
    3.0041   30.5110    6.7701 H   0  0  0  0  0  0
    4.2151   29.2616    5.1199 H   0  0  0  0  0  0
    5.7328   27.3896    4.6223 H   0  0  0  0  0  0
    5.1222   25.8467    8.5763 H   0  0  0  0  0  0
    3.6027   27.7182    9.0845 H   0  0  0  0  0  0
    8.9284   25.1325    6.8524 H   0  0  0  0  0  0
    8.5987   26.4364    5.8577 H   0  0  0  0  0  0
  1  2  1  0  0  0
  1 27  1  0  0  0
  1 28  1  0  0  0
  1 29  1  0  0  0
  2  3  1  0  0  0
  2  4  2  0  0  0
  3 30  1  0  0  0
  3 31  1  0  0  0
  3 32  1  0  0  0
  4  5  1  0  0  0
  4 33  1  0  0  0
  5  6  2  0  0  0
  5 14  1  0  0  0
  6  7  1  0  0  0
  6 34  1  0  0  0
  7  8  2  0  0  0
  7 35  1  0  0  0
  8  9  1  0  0  0
  8 36  1  0  0  0
  9 10  1  0  0  0
  9 14  2  0  0  0
 10 11  1  0  0  0
 10 37  1  0  0  0
 11 12  2  0  0  0
 11 13  1  0  0  0
 13 14  1  0  0  0
 13 15  2  0  0  0
 15 16  1  0  0  0
 16 17  1  0  0  0
 16 38  1  0  0  0
 17 18  2  0  0  0
 17 22  1  0  0  0
 18 19  1  0  0  0
 18 39  1  0  0  0
 19 20  2  0  0  0
 19 40  1  0  0  0
 20 21  1  0  0  0
 20 23  1  0  0  0
 21 22  2  0  0  0
 21 41  1  0  0  0
 22 42  1  0  0  0
 23 24  1  0  0  0
 23 25  2  0  0  0
 23 26  2  0  0  0
 24 43  1  0  0  0
 24 44  1  0  0  0
M  END
> <s_m_entry_id>
32604

> <s_m_entry_name>
dock_pv.5

> <s_m_Source_Path>
/home/csk/Desktop/cluster/DUD-E-result/cdk2

> <s_m_Source_File>
dock_pv.maegz

> <i_m_Source_File_Index>
5

> <chembl_id>
CHEMBL270544

> <chembl_pref_name>
GW396574X

> <i_lp_mmshare_version>
53161

> <i_f3d_flags>
0

> <r_lp_tautomer_probability>
1

> <s_lp_Force_Field>
OPLS_2005

> <r_lp_Energy>
51.109358

> <b_lp_Chiralities_Consistent>
1

> <s_lp_Variant>
CHEMBL301_lig195-1

> <s_i_glide_gridfile>
glide-grid_1h00

> <i_i_glide_lignum>
337

> <i_i_glide_rotatable_bonds>
4

> <r_i_docking_score>
-9.24445691217233

> <r_i_glide_ligand_efficiency>
-0.355556035083551

> <r_i_glide_ligand_efficiency_sa>
-1.05333335488958

> <r_i_glide_ligand_efficiency_ln>
-2.17103037228643

> <r_i_glide_gscore>
-9.24445691217233

> <r_i_glide_lipo>
-2.74454702231553

> <r_i_glide_hbond>
-0.722973841764498

> <r_i_glide_metal>
0

> <r_i_glide_rewards>
-2.82226695578402

> <r_i_glide_evdw>
-33.843578338623

> <r_i_glide_ecoul>
-10.3719835281372

> <r_i_glide_erotb>
0.295251090696687

> <r_i_glide_esite>
-0.00194373685323363

> <r_i_glide_emodel>
-68.36657337042

> <r_i_glide_energy>
-44.2155618667603

> <r_i_glide_einternal>
2.62400603294373

> <i_i_glide_confnum>
4

> <i_i_glide_posenum>
183

> <r_i_glide_eff_state_penalty>
0

> <s_user_duplicate_titles>
CHEMBL301_lig195,440844,137256

> <s_m_subgroup_title>
dock_pv

> <s_m_subgroupid>
dock_pv

> <b_m_subgroup_collapsed>
1

$$$$
CHEMBL301_lig535
                    3D
 Schrodinger Suite 2021-1.
 40 42  0  0  1  0            999 V2000
    4.4584   25.0814    5.7859 C   0  0  0  0  0  0
    4.4224   25.5763    4.4836 C   0  0  0  0  0  0
    4.4597   26.9484    4.2439 C   0  0  0  0  0  0
    4.5372   27.8346    5.3144 C   0  0  0  0  0  0
    4.5862   27.3436    6.6238 C   0  0  0  0  0  0
    4.5436   25.9650    6.8584 C   0  0  0  0  0  0
    4.6427   28.3130    7.7995 C   0  0  0  0  0  0
    3.2563   28.8557    8.1752 C   0  0  0  0  0  0
    2.6687   28.3823    9.1427 O   0  0  0  0  0  0
    2.7986   29.8531    7.3941 N   0  0  0  0  0  0
    1.6973   30.6878    7.5777 C   0  0  0  0  0  0
    0.7225   32.6003    7.4364 N   0  0  0  0  0  0
    1.7332   31.8518    6.9759 N   0  0  0  0  0  0
   -0.0823   31.8800    8.2930 C   0  0  0  0  0  0
    0.5191   30.5945    8.4203 C   0  0  0  0  0  0
   -0.0922   29.6587    9.2785 C   0  0  0  0  0  0
   -1.2418   30.0251    9.9961 C   0  0  0  0  0  0
   -1.7992   31.2910    9.8263 C   0  0  0  0  0  0
   -1.2431   32.2454    8.9772 C   0  0  0  0  0  0
   -1.8769   29.1850   10.9277 N   0  0  0  0  0  0
   -1.3228   27.9019   11.3452 C   0  0  0  0  0  0
   -0.3420   28.0464   12.5152 C   0  0  0  0  0  0
    4.4161   24.0176    5.9661 H   0  0  0  0  0  0
    4.3565   24.8925    3.6480 H   0  0  0  0  0  0
    4.4276   27.3190    3.2297 H   0  0  0  0  0  0
    4.5689   28.8986    5.1251 H   0  0  0  0  0  0
    4.5650   25.5796    7.8686 H   0  0  0  0  0  0
    5.0771   27.8250    8.6753 H   0  0  0  0  0  0
    5.3035   29.1461    7.5539 H   0  0  0  0  0  0
    3.4429   30.1797    6.6862 H   0  0  0  0  0  0
    0.5980   33.5605    7.1285 H   0  0  0  0  0  0
    0.3366   28.6816    9.4008 H   0  0  0  0  0  0
   -2.6881   31.5558   10.3839 H   0  0  0  0  0  0
   -1.6820   33.2262    8.8767 H   0  0  0  0  0  0
   -2.4965   29.6389   11.5914 H   0  0  0  0  0  0
   -2.1531   27.2561   11.6312 H   0  0  0  0  0  0
   -0.8459   27.3880   10.5129 H   0  0  0  0  0  0
    0.0367   27.0720   12.8290 H   0  0  0  0  0  0
    0.5181   28.6578   12.2401 H   0  0  0  0  0  0
   -0.8237   28.5096   13.3765 H   0  0  0  0  0  0
  1  6  1  0  0  0
  1  2  2  0  0  0
  1 23  1  0  0  0
  2  3  1  0  0  0
  2 24  1  0  0  0
  3  4  2  0  0  0
  3 25  1  0  0  0
  4  5  1  0  0  0
  4 26  1  0  0  0
  5  6  2  0  0  0
  5  7  1  0  0  0
  6 27  1  0  0  0
  7  8  1  0  0  0
  7 28  1  0  0  0
  7 29  1  0  0  0
  8  9  2  0  0  0
  8 10  1  0  0  0
 10 11  1  0  0  0
 10 30  1  0  0  0
 11 15  1  0  0  0
 11 13  2  0  0  0
 12 14  1  0  0  0
 12 13  1  0  0  0
 12 31  1  0  0  0
 14 15  2  0  0  0
 14 19  1  0  0  0
 15 16  1  0  0  0
 16 17  2  0  0  0
 16 32  1  0  0  0
 17 18  1  0  0  0
 17 20  1  0  0  0
 18 19  2  0  0  0
 18 33  1  0  0  0
 19 34  1  0  0  0
 20 21  1  0  0  0
 20 35  1  0  0  0
 21 22  1  0  0  0
 21 36  1  0  0  0
 21 37  1  0  0  0
 22 38  1  0  0  0
 22 39  1  0  0  0
 22 40  1  0  0  0
M  END
> <s_m_entry_id>
32605

> <s_m_entry_name>
dock_pv.6

> <s_m_Source_Path>
/home/csk/Desktop/cluster/DUD-E-result/cdk2

> <s_m_Source_File>
dock_pv.maegz

> <i_m_Source_File_Index>
6

> <chembl_id>
CHEMBL257625

> <chembl_pref_name>
None

> <i_lp_mmshare_version>
53161

> <i_f3d_flags>
0

> <r_lp_tautomer_probability>
0.983170504884488

> <s_lp_Force_Field>
OPLS_2005

> <r_lp_Energy>
13.316829

> <b_lp_Chiralities_Consistent>
1

> <s_lp_Variant>
CHEMBL301_lig535-1

> <s_i_glide_gridfile>
glide-grid_1h00

> <i_i_glide_lignum>
754

> <i_i_glide_rotatable_bonds>
6

> <r_i_docking_score>
-9.23454891510687

> <r_i_glide_ligand_efficiency>
-0.419752223413949

> <r_i_glide_ligand_efficiency_sa>
-1.17616223792408

> <r_i_glide_ligand_efficiency_ln>
-2.25726059320804

> <r_i_glide_gscore>
-9.23454891510687

> <r_i_glide_lipo>
-3.22235552975524

> <r_i_glide_hbond>
-0.809624657551772

> <r_i_glide_metal>
0

> <r_i_glide_rewards>
-2.87667686324955

> <r_i_glide_evdw>
-37.7520599365234

> <r_i_glide_ecoul>
-6.82423639297485

> <r_i_glide_erotb>
0.590983835297722

> <r_i_glide_esite>
-0.00563724407563762

> <r_i_glide_emodel>
-64.6052760502205

> <r_i_glide_energy>
-44.5762963294983

> <r_i_glide_einternal>
8.25882911682129

> <i_i_glide_confnum>
7

> <i_i_glide_posenum>
286

> <r_i_glide_eff_state_penalty>
0

> <s_user_duplicate_titles>
CHEMBL301_lig535,424676

> <s_m_subgroup_title>
dock_pv

> <s_m_subgroupid>
dock_pv

> <b_m_subgroup_collapsed>
1

$$$$
CHEMBL301_lig519
                    3D
 Schrodinger Suite 2021-1.
 45 48  0  0  1  0            999 V2000
   -1.4599   28.0432   10.8175 N   0  0  0  0  0  0
    4.4578   26.6596    4.1806 C   0  0  0  0  0  0
    4.3778   25.3507    4.6506 C   0  0  0  0  0  0
    4.4597   25.0802    6.0143 C   0  0  0  0  0  0
    4.6187   26.1254    6.9210 C   0  0  0  0  0  0
    4.6760   27.4436    6.4581 C   0  0  0  0  0  0
    4.5964   27.7092    5.0869 C   0  0  0  0  0  0
    4.7816   28.5936    7.4527 C   0  0  0  0  0  0
    3.4074   28.9937    8.0082 C   0  0  0  0  0  0
    2.9668   28.3893    8.9818 O   0  0  0  0  0  0
    2.7968   30.0154    7.3762 N   0  0  0  0  0  0
    1.5978   30.6506    7.6865 C   0  0  0  0  0  0
    0.2854   32.3399    7.7764 N   0  0  0  0  0  0
    1.3997   31.8525    7.2104 N   0  0  0  0  0  0
   -0.3371   31.4071    8.5843 C   0  0  0  0  0  0
    0.4881   30.2498    8.5265 C   0  0  0  0  0  0
    0.0837   29.1115    9.2444 C   0  0  0  0  0  0
   -1.0607   29.1548   10.0458 C   0  0  0  0  0  0
   -1.8172   30.3277   10.1111 C   0  0  0  0  0  0
   -1.4954   31.4676    9.3690 C   0  0  0  0  0  0
   -1.3621   26.7008   10.2417 C   0  0  0  0  0  0
   -0.0215   26.0460   10.6486 C   0  0  0  0  0  0
    0.6168   26.8763   11.7756 C   0  0  0  0  0  0
   -0.8089   27.8852   12.4540 S   0  0  0  0  0  0
   -0.3424   29.1730   12.9761 O   0  0  0  0  0  0
   -1.5974   26.9633   13.2797 O   0  0  0  0  0  0
    4.2026   24.3140    3.7759 O   0  0  0  0  0  0
    4.3954   26.8636    3.1221 H   0  0  0  0  0  0
    4.3865   24.0625    6.3685 H   0  0  0  0  0  0
    4.6673   25.9163    7.9810 H   0  0  0  0  0  0
    4.6419   28.7251    4.7236 H   0  0  0  0  0  0
    5.4305   28.3096    8.2830 H   0  0  0  0  0  0
    5.2591   29.4493    6.9768 H   0  0  0  0  0  0
    3.3593   30.4863    6.6749 H   0  0  0  0  0  0
   -0.0098   33.2870    7.5772 H   0  0  0  0  0  0
    0.6598   28.2065    9.1964 H   0  0  0  0  0  0
   -2.6879   30.3561   10.7539 H   0  0  0  0  0  0
   -2.1015   32.3591    9.4284 H   0  0  0  0  0  0
   -2.2317   26.0702   10.4348 H   0  0  0  0  0  0
   -1.3574   26.7547    9.1507 H   0  0  0  0  0  0
   -0.2094   25.0221   10.9775 H   0  0  0  0  0  0
    0.6572   25.9580    9.7970 H   0  0  0  0  0  0
    1.0158   26.2516   12.5743 H   0  0  0  0  0  0
    1.4018   27.5523   11.4332 H   0  0  0  0  0  0
    4.1624   24.5624    2.8391 H   0  0  0  0  0  0
  1 18  1  0  0  0
  1 21  1  0  0  0
  1 24  1  0  0  0
  2  3  2  0  0  0
  2  7  1  0  0  0
  2 28  1  0  0  0
  3  4  1  0  0  0
  3 27  1  0  0  0
  4  5  2  0  0  0
  4 29  1  0  0  0
  5  6  1  0  0  0
  5 30  1  0  0  0
  6  8  1  0  0  0
  6  7  2  0  0  0
  7 31  1  0  0  0
  8  9  1  0  0  0
  8 32  1  0  0  0
  8 33  1  0  0  0
  9 10  2  0  0  0
  9 11  1  0  0  0
 11 12  1  0  0  0
 11 34  1  0  0  0
 12 14  2  0  0  0
 12 16  1  0  0  0
 13 15  1  0  0  0
 13 14  1  0  0  0
 13 35  1  0  0  0
 15 16  2  0  0  0
 15 20  1  0  0  0
 16 17  1  0  0  0
 17 18  2  0  0  0
 17 36  1  0  0  0
 18 19  1  0  0  0
 19 20  2  0  0  0
 19 37  1  0  0  0
 20 38  1  0  0  0
 21 22  1  0  0  0
 21 39  1  0  0  0
 21 40  1  0  0  0
 22 23  1  0  0  0
 22 41  1  0  0  0
 22 42  1  0  0  0
 23 24  1  0  0  0
 23 43  1  0  0  0
 23 44  1  0  0  0
 24 25  2  0  0  0
 24 26  2  0  0  0
 27 45  1  0  0  0
M  END
> <s_m_entry_id>
32606

> <s_m_entry_name>
dock_pv.7

> <s_m_Source_Path>
/home/csk/Desktop/cluster/DUD-E-result/cdk2

> <s_m_Source_File>
dock_pv.maegz

> <i_m_Source_File_Index>
7

> <chembl_id>
CHEMBL255718

> <chembl_pref_name>
None

> <i_lp_mmshare_version>
53161

> <i_f3d_flags>
0

> <r_lp_tautomer_probability>
0.980392156860162

> <s_lp_Force_Field>
OPLS_2005

> <r_lp_Energy>
21.799908

> <b_lp_Chiralities_Consistent>
1

> <s_lp_Variant>
CHEMBL301_lig519-1

> <s_i_glide_gridfile>
glide-grid_1h00

> <i_i_glide_lignum>
722

> <i_i_glide_rotatable_bonds>
6

> <r_i_docking_score>
-9.22757661822384

> <r_i_glide_ligand_efficiency>
-0.341762096971253

> <r_i_glide_ligand_efficiency_sa>
-1.02528628978737

> <r_i_glide_ligand_efficiency_ln>
-2.14802770823247

> <r_i_glide_gscore>
-9.22757661822384

> <r_i_glide_lipo>
-2.9315577517329

> <r_i_glide_hbond>
-0.509408523091903

> <r_i_glide_metal>
0

> <r_i_glide_rewards>
-2.74764651936401

> <r_i_glide_evdw>
-43.5830192565918

> <r_i_glide_ecoul>
-9.89301872253418

> <r_i_glide_erotb>
0.651708117020333

> <r_i_glide_esite>
-0.0275681698456501

> <r_i_glide_emodel>
-79.9980773708358

> <r_i_glide_energy>
-53.476037979126

> <r_i_glide_einternal>
7.1543231010437

> <i_i_glide_confnum>
194

> <i_i_glide_posenum>
249

> <r_i_glide_eff_state_penalty>
0

> <s_user_duplicate_titles>
CHEMBL301_lig519,CHEMBL301_lig519,424721

> <s_m_subgroup_title>
dock_pv

> <s_m_subgroupid>
dock_pv

> <b_m_subgroup_collapsed>
1

$$$$
CHEMBL301_lig324
                    3D
 Schrodinger Suite 2021-1.
 47 50  0  0  1  0            999 V2000
    1.3173   30.2521    8.1822 C   0  0  0  0  0  0
    0.1262   30.2514    9.0106 C   0  0  0  0  0  0
    1.2580   31.4590    7.3762 C   0  0  0  0  0  0
    8.3890   25.1123    6.4511 S   0  0  0  0  0  0
    0.1628   32.1145    7.7934 N   0  0  0  0  0  0
   -0.5531   31.4194    8.7490 C   0  0  0  0  0  0
    2.3284   29.3678    8.1350 C   0  0  0  0  0  0
   -0.3879   29.3772    9.9788 C   0  0  0  0  0  0
   -1.9862   28.7838   11.5870 N   0  0  0  0  0  0
    0.2115   27.8288   10.5744 S   0  0  0  0  0  0
   -1.1658   27.7756   11.6399 C   0  0  0  0  0  0
   -1.5852   29.7050   10.6705 C   0  0  0  0  0  0
    8.3355   25.8519    7.7171 O   0  0  0  0  0  0
    9.0383   23.8008    6.3944 O   0  0  0  0  0  0
    3.4486   29.3773    7.3437 N   0  0  0  0  0  0
    2.0498   31.8521    6.5231 O   0  0  0  0  0  0
    9.1772   26.1714    5.2816 N   0  0  2  0  0  0
   -1.7257   31.7676    9.4188 C   0  0  0  0  0  0
    6.6240   24.9087    5.7990 C   0  0  0  0  0  0
   -2.2525   30.9118   10.3920 C   0  0  0  0  0  0
    4.1832   28.2508    6.9710 C   0  0  0  0  0  0
    5.7186   26.0647    6.1865 C   0  0  0  0  0  0
   10.6560   26.0620    5.1879 C   0  0  0  0  0  0
    4.4628   27.2322    7.8852 C   0  0  0  0  0  0
    4.6424   28.1567    5.6564 C   0  0  0  0  0  0
    5.3927   27.0520    5.2566 C   0  0  0  0  0  0
    5.2335   26.1447    7.4938 C   0  0  0  0  0  0
   12.4578   24.6505    4.3723 O   0  0  0  0  0  0
   11.0890   24.9675    4.1930 C   0  0  0  0  0  0
   -0.0867   33.0241    7.4336 H   0  0  0  0  0  0
    2.3024   28.5083    8.7877 H   0  0  0  0  0  0
   -1.3138   26.9405   12.3090 H   0  0  0  0  0  0
    3.5034   30.1286    6.6611 H   0  0  0  0  0  0
    8.9135   27.1428    5.4832 H   0  0  0  0  0  0
   -2.2246   32.7035    9.2095 H   0  0  0  0  0  0
    6.2402   23.9827    6.2245 H   0  0  0  0  0  0
    6.6890   24.7714    4.7198 H   0  0  0  0  0  0
   -3.1421   31.1771   10.9485 H   0  0  0  0  0  0
   11.0408   27.0233    4.8451 H   0  0  0  0  0  0
   11.0454   25.8532    6.1859 H   0  0  0  0  0  0
    4.1303   27.2886    8.9116 H   0  0  0  0  0  0
    4.4316   28.9450    4.9479 H   0  0  0  0  0  0
    5.7638   26.9976    4.2436 H   0  0  0  0  0  0
    5.4844   25.3886    8.2237 H   0  0  0  0  0  0
   12.9944   25.4342    4.1767 H   0  0  0  0  0  0
   10.5299   24.0458    4.3562 H   0  0  0  0  0  0
   10.8977   25.2744    3.1624 H   0  0  0  0  0  0
  1  2  1  0  0  0
  1  3  1  0  0  0
  1  7  2  0  0  0
  2  6  2  0  0  0
  2  8  1  0  0  0
  3  5  1  0  0  0
  3 16  2  0  0  0
  4 19  1  0  0  0
  4 13  2  0  0  0
  4 14  2  0  0  0
  4 17  1  0  0  0
  5  6  1  0  0  0
  5 30  1  0  0  0
  6 18  1  0  0  0
  7 15  1  0  0  0
  7 31  1  0  0  0
  8 10  1  0  0  0
  8 12  2  0  0  0
  9 12  1  0  0  0
  9 11  2  0  0  0
 10 11  1  0  0  0
 11 32  1  0  0  0
 12 20  1  0  0  0
 15 21  1  0  0  0
 15 33  1  0  0  0
 17 23  1  0  0  0
 17 34  1  0  0  0
 18 20  2  0  0  0
 18 35  1  0  0  0
 19 22  1  0  0  0
 19 36  1  0  0  0
 19 37  1  0  0  0
 20 38  1  0  0  0
 21 24  2  0  0  0
 21 25  1  0  0  0
 22 26  1  0  0  0
 22 27  2  0  0  0
 23 29  1  0  0  0
 23 39  1  0  0  0
 23 40  1  0  0  0
 24 27  1  0  0  0
 24 41  1  0  0  0
 25 26  2  0  0  0
 25 42  1  0  0  0
 26 43  1  0  0  0
 27 44  1  0  0  0
 28 29  1  0  0  0
 28 45  1  0  0  0
 29 46  1  0  0  0
 29 47  1  0  0  0
M  END
> <s_m_entry_id>
32607

> <s_m_entry_name>
dock_pv.8

> <s_m_Source_Path>
/home/csk/Desktop/cluster/DUD-E-result/cdk2

> <s_m_Source_File>
dock_pv.maegz

> <i_m_Source_File_Index>
8

> <chembl_id>
CHEMBL1964258

> <chembl_pref_name>
None

> <i_lp_mmshare_version>
53161

> <i_f3d_flags>
0

> <r_lp_tautomer_probability>
0.499999999999422

> <s_lp_Force_Field>
OPLS_2005

> <r_lp_Energy>
33.737965

> <b_lp_Chiralities_Consistent>
1

> <s_lp_Variant>
CHEMBL301_lig324-1

> <s_i_glide_gridfile>
glide-grid_1h00

> <i_i_glide_lignum>
501

> <i_i_glide_rotatable_bonds>
8

> <r_i_docking_score>
-9.22016661199924

> <r_i_glide_ligand_efficiency>
-0.317936779724112

> <r_i_glide_ligand_efficiency_sa>
-0.976802516754369

> <r_i_glide_ligand_efficiency_ln>
-2.11118435089564

> <r_i_glide_gscore>
-9.22016661199924

> <r_i_glide_lipo>
-2.50407695319141

> <r_i_glide_hbond>
-1.21370951362983

> <r_i_glide_metal>
0

> <r_i_glide_rewards>
-1.88731393268715

> <r_i_glide_evdw>
-41.9497261047363

> <r_i_glide_ecoul>
-15.0112609863281

> <r_i_glide_erotb>
0.750932312590296

> <r_i_glide_esite>
-0.0168230718951135

> <r_i_glide_emodel>
-81.7384063365246

> <r_i_glide_energy>
-56.9609870910645

> <r_i_glide_einternal>
11.1677618026733

> <i_i_glide_confnum>
77

> <i_i_glide_posenum>
137

> <r_i_glide_eff_state_penalty>
0

> <s_user_duplicate_titles>
CHEMBL301_lig324,226614

> <s_m_subgroup_title>
dock_pv

> <s_m_subgroupid>
dock_pv

> <b_m_subgroup_collapsed>
1

$$$$
CHEMBL301_lig224
                    3D
 Schrodinger Suite 2021-1.
 46 48  0  0  1  0            999 V2000
   -2.4809   30.3707   10.4371 C   0  0  0  0  0  0
   -2.8851   31.7064   10.4171 C   0  0  0  0  0  0
   -2.1530   32.6520    9.7127 C   0  0  0  0  0  0
   -1.3245   29.9617    9.7644 C   0  0  0  0  0  0
   -0.6250   30.9124    8.9981 C   0  0  0  0  0  0
   -1.0537   32.2291    8.9820 C   0  0  0  0  0  0
   -0.2235   32.9782    8.1958 N   0  0  0  0  0  0
    0.7654   32.2384    7.6981 C   0  0  0  0  0  0
    0.5737   30.8672    8.1760 C   0  0  0  0  0  0
    1.6580   32.6520    6.9760 O   0  0  0  0  0  0
    1.3402   29.8656    7.9671 N   0  0  0  0  0  0
    2.4580   29.9429    7.1205 N   0  0  0  0  0  0
    3.4602   28.9732    7.0620 C   0  0  0  0  0  0
    3.9197   28.5397    5.8197 C   0  0  0  0  0  0
    4.8580   27.5150    5.7259 C   0  0  0  0  0  0
    5.3924   26.9697    6.8930 C   0  0  0  0  0  0
    4.9849   27.4494    8.1339 C   0  0  0  0  0  0
    3.9996   28.4248    8.2243 C   0  0  0  0  0  0
    6.5947   25.6447    6.8298 S   0  0  0  0  0  0
    7.4633   25.8520    5.3352 N   0  0  0  0  0  0
    7.5528   25.8520    7.9205 O   0  0  0  0  0  0
    5.8443   24.3902    6.7275 O   0  0  0  0  0  0
   -0.8706   28.5099    9.9225 C   0  0  0  0  0  0
    0.4236   28.3433   10.7538 C   0  0  0  0  0  0
    0.8579   26.8700   10.8373 C   0  0  0  0  0  0
    0.3170   28.9793   12.1490 C   0  0  0  0  0  0
   -3.0489   29.6676   11.0295 H   0  0  0  0  0  0
   -3.7573   32.0127   10.9760 H   0  0  0  0  0  0
   -2.4464   33.6893    9.7421 H   0  0  0  0  0  0
   -0.3180   33.9656    7.9933 H   0  0  0  0  0  0
    2.5732   30.8237    6.6295 H   0  0  0  0  0  0
    3.5192   28.9791    4.9278 H   0  0  0  0  0  0
    5.1771   27.1627    4.7554 H   0  0  0  0  0  0
    5.4290   27.0520    9.0235 H   0  0  0  0  0  0
    3.6627   28.7571    9.1946 H   0  0  0  0  0  0
    8.0947   26.6595    5.3759 H   0  0  0  0  0  0
    7.9595   25.0039    5.0552 H   0  0  0  0  0  0
   -0.7420   28.0845    8.9270 H   0  0  0  0  0  0
   -1.6676   27.9190   10.3751 H   0  0  0  0  0  0
    1.2347   28.8647   10.2528 H   0  0  0  0  0  0
    0.1138   26.2608   11.3513 H   0  0  0  0  0  0
    1.8009   26.7669   11.3760 H   0  0  0  0  0  0
    1.0085   26.4462    9.8437 H   0  0  0  0  0  0
   -0.3154   28.3992   12.8218 H   0  0  0  0  0  0
    1.3101   29.0520   12.5760 H   0  0  0  0  0  0
   -0.0699   29.9977   12.1173 H   0  0  0  0  0  0
  1  2  2  0  0  0
  1  4  1  0  0  0
  1 27  1  0  0  0
  2  3  1  0  0  0
  2 28  1  0  0  0
  3  6  2  0  0  0
  3 29  1  0  0  0
  4  5  2  0  0  0
  4 23  1  0  0  0
  5  9  1  0  0  0
  5  6  1  0  0  0
  6  7  1  0  0  0
  7  8  1  0  0  0
  7 30  1  0  0  0
  8  9  1  0  0  0
  8 10  2  0  0  0
  9 11  2  0  0  0
 11 12  1  0  0  0
 12 13  1  0  0  0
 12 31  1  0  0  0
 13 14  2  0  0  0
 13 18  1  0  0  0
 14 15  1  0  0  0
 14 32  1  0  0  0
 15 16  2  0  0  0
 15 33  1  0  0  0
 16 17  1  0  0  0
 16 19  1  0  0  0
 17 18  2  0  0  0
 17 34  1  0  0  0
 18 35  1  0  0  0
 19 20  1  0  0  0
 19 21  2  0  0  0
 19 22  2  0  0  0
 20 36  1  0  0  0
 20 37  1  0  0  0
 23 24  1  0  0  0
 23 38  1  0  0  0
 23 39  1  0  0  0
 24 25  1  0  0  0
 24 26  1  0  0  0
 24 40  1  0  0  0
 25 41  1  0  0  0
 25 42  1  0  0  0
 25 43  1  0  0  0
 26 44  1  0  0  0
 26 45  1  0  0  0
 26 46  1  0  0  0
M  END
> <s_m_entry_id>
32608

> <s_m_entry_name>
dock_pv.9

> <s_m_Source_Path>
/home/csk/Desktop/cluster/DUD-E-result/cdk2

> <s_m_Source_File>
dock_pv.maegz

> <i_m_Source_File_Index>
9

> <chembl_id>
CHEMBL411224

> <chembl_pref_name>
None

> <i_lp_mmshare_version>
53161

> <i_f3d_flags>
0

> <r_lp_tautomer_probability>
1

> <s_lp_Force_Field>
OPLS_2005

> <r_lp_Energy>
45.50659

> <b_lp_Chiralities_Consistent>
1

> <s_lp_Variant>
CHEMBL301_lig224-1

> <s_i_glide_gridfile>
glide-grid_1h00

> <i_i_glide_lignum>
366

> <i_i_glide_rotatable_bonds>
5

> <r_i_docking_score>
-9.08025926845262

> <r_i_glide_ligand_efficiency>
-0.349240741094332

> <r_i_glide_ligand_efficiency_sa>
-1.034624321296

> <r_i_glide_ligand_efficiency_ln>
-2.13246909443527

> <r_i_glide_gscore>
-9.08025926845262

> <r_i_glide_lipo>
-2.86345069550837

> <r_i_glide_hbond>
-0.702469014386661

> <r_i_glide_metal>
0

> <r_i_glide_rewards>
-2.42353525190105

> <r_i_glide_evdw>
-35.963249206543

> <r_i_glide_ecoul>
-10.3723459243774

> <r_i_glide_erotb>
0.292400018315135

> <r_i_glide_esite>
-0.0291899759879156

> <r_i_glide_emodel>
-66.79627446767

> <r_i_glide_energy>
-46.3355951309204

> <r_i_glide_einternal>
6.4154052734375

> <i_i_glide_confnum>
2

> <i_i_glide_posenum>
132

> <r_i_glide_eff_state_penalty>
0

> <s_user_duplicate_titles>
CHEMBL301_lig224,440878,137264

> <s_m_subgroup_title>
dock_pv

> <s_m_subgroupid>
dock_pv

> <b_m_subgroup_collapsed>
1

$$$$
CHEMBL301_lig1435
                    3D
 Schrodinger Suite 2021-1.
 51 55  0  0  1  0            999 V2000
   -3.0415   31.4520    8.5305 C   0  0  0  0  0  0
   -1.7730   31.6061    9.3910 C   0  0  0  0  0  0
   -1.8496   32.8960   10.2317 C   0  0  0  0  0  0
    0.3017   32.1975    7.7760 C   0  0  0  0  0  0
    1.4158   31.6804    7.1724 N   0  0  0  0  0  0
    1.8159   30.4371    7.5716 C   0  0  0  0  0  0
    1.2477   29.7367    8.5768 N   0  0  0  0  0  0
   -0.4499   31.4519    8.6825 C   0  0  0  0  0  0
    0.1316   30.2863    9.1070 C   0  0  0  0  0  0
   -0.5067   29.8519   10.2386 N   0  0  0  0  0  0
   -1.7525   30.3627   10.3083 C   0  0  0  0  0  0
   -2.6842   29.9270   10.9759 O   0  0  0  0  0  0
    0.0266   28.8308   11.1244 C   0  0  1  0  0  0
   -0.9729   27.9113   13.1920 C   0  0  0  0  0  0
   -0.1438   29.0524   12.6089 C   0  0  0  0  0  0
   -1.1061   26.9525   12.0481 C   0  0  0  0  0  0
   -0.5877   27.5064   10.8847 C   0  0  0  0  0  0
   -0.7420   26.8906    9.6655 C   0  0  0  0  0  0
   -1.3056   25.6270    9.6018 C   0  0  0  0  0  0
   -1.7897   25.0519   10.7682 C   0  0  0  0  0  0
   -1.7305   25.7163   11.9885 C   0  0  0  0  0  0
   -2.3381   25.1868   13.0947 O   0  0  0  0  0  0
    2.8580   29.8520    6.8458 N   0  0  0  0  0  0
    3.6202   28.6777    6.9508 C   0  0  0  0  0  0
    3.7293   27.9238    8.1250 C   0  0  0  0  0  0
    4.4581   26.7364    8.1040 C   0  0  0  0  0  0
    5.1112   26.3291    6.9449 C   0  0  0  0  0  0
    5.0362   27.0957    5.7882 C   0  0  0  0  0  0
    4.2891   28.2686    5.7943 C   0  0  0  0  0  0
   -3.0389   30.5356    7.9518 H   0  0  0  0  0  0
   -3.9531   31.4517    9.1308 H   0  0  0  0  0  0
   -3.1314   32.2518    7.8031 H   0  0  0  0  0  0
   -0.9246   33.0732   10.7791 H   0  0  0  0  0  0
   -2.0012   33.7677    9.5956 H   0  0  0  0  0  0
   -2.6696   32.8735   10.9527 H   0  0  0  0  0  0
   -0.0201   33.1683    7.4274 H   0  0  0  0  0  0
    1.0986   28.7395   10.9381 H   0  0  0  0  0  0
   -1.9419   28.2890   13.5019 H   0  0  0  0  0  0
   -0.4864   27.4515   14.0512 H   0  0  0  0  0  0
    0.8580   28.9285   12.9760 H   0  0  0  0  0  0
   -0.4930   30.0439   12.8983 H   0  0  0  0  0  0
   -0.4354   27.4485    8.7898 H   0  0  0  0  0  0
   -1.4148   25.1224    8.6528 H   0  0  0  0  0  0
   -2.2848   24.1105   10.7074 H   0  0  0  0  0  0
   -3.0860   24.6451   12.8291 H   0  0  0  0  0  0
    3.3050   30.5187    6.2235 H   0  0  0  0  0  0
    3.2382   28.2250    9.0370 H   0  0  0  0  0  0
    4.5069   26.1119    8.9760 H   0  0  0  0  0  0
    5.6786   25.4098    6.9429 H   0  0  0  0  0  0
    5.5522   26.7836    4.8921 H   0  0  0  0  0  0
    4.2278   28.8578    4.8914 H   0  0  0  0  0  0
  1  2  1  0  0  0
  1 30  1  0  0  0
  1 31  1  0  0  0
  1 32  1  0  0  0
  2  3  1  0  0  0
  2 11  1  0  0  0
  2  8  1  0  0  0
  3 33  1  0  0  0
  3 34  1  0  0  0
  3 35  1  0  0  0
  4  8  2  0  0  0
  4  5  1  0  0  0
  4 36  1  0  0  0
  5  6  2  0  0  0
  6  7  1  0  0  0
  6 23  1  0  0  0
  7  9  2  0  0  0
  8  9  1  0  0  0
  9 10  1  0  0  0
 10 11  1  0  0  0
 10 13  1  0  0  0
 11 12  2  0  0  0
 13 17  1  0  0  0
 13 15  1  0  0  0
 13 37  1  0  0  0
 14 16  1  0  0  0
 14 15  1  0  0  0
 14 38  1  0  0  0
 14 39  1  0  0  0
 15 40  1  0  0  0
 15 41  1  0  0  0
 16 17  2  0  0  0
 16 21  1  0  0  0
 17 18  1  0  0  0
 18 19  2  0  0  0
 18 42  1  0  0  0
 19 20  1  0  0  0
 19 43  1  0  0  0
 20 21  2  0  0  0
 20 44  1  0  0  0
 21 22  1  0  0  0
 22 45  1  0  0  0
 23 24  1  0  0  0
 23 46  1  0  0  0
 24 25  2  0  0  0
 24 29  1  0  0  0
 25 26  1  0  0  0
 25 47  1  0  0  0
 26 27  2  0  0  0
 26 48  1  0  0  0
 27 28  1  0  0  0
 27 49  1  0  0  0
 28 29  2  0  0  0
 28 50  1  0  0  0
 29 51  1  0  0  0
M  END
> <s_m_entry_id>
32609

> <s_m_entry_name>
dock_pv.10

> <s_m_Source_Path>
/home/csk/Desktop/cluster/DUD-E-result/cdk2

> <s_m_Source_File>
dock_pv.maegz

> <i_m_Source_File_Index>
10

> <chembl_id>
CHEMBL3884319

> <chembl_pref_name>
None

> <i_lp_mmshare_version>
53161

> <i_f3d_flags>
0

> <r_lp_tautomer_probability>
0.999999987633365

> <s_lp_Force_Field>
OPLS_2005

> <r_lp_Energy>
35.035928

> <b_lp_Chiralities_Consistent>
1

> <s_lp_Variant>
CHEMBL301_lig1435-1

> <s_i_glide_gridfile>
glide-grid_1h00

> <i_i_glide_lignum>
1947

> <i_i_glide_rotatable_bonds>
4

> <r_i_docking_score>
-9.03783608858822

> <r_i_glide_ligand_efficiency>
-0.311649520296146

> <r_i_glide_ligand_efficiency_sa>
-0.957486063848058

> <r_i_glide_ligand_efficiency_ln>
-2.06943528453767

> <r_i_glide_gscore>
-9.03783608858822

> <r_i_glide_lipo>
-3.97285340826381

> <r_i_glide_hbond>
-0.552367941239114

> <r_i_glide_metal>
0

> <r_i_glide_rewards>
-2.63215503002526

> <r_i_glide_evdw>
-30.0659446716309

> <r_i_glide_ecoul>
-5.04706239700317

> <r_i_glide_erotb>
0.390987722121065

> <r_i_glide_esite>
-0.0110908380490891

> <r_i_glide_emodel>
-49.9296631419546

> <r_i_glide_energy>
-35.113007068634

> <r_i_glide_einternal>
11.286187171936

> <i_i_glide_confnum>
16

> <i_i_glide_posenum>
314

> <r_i_glide_eff_state_penalty>
0

> <s_user_duplicate_titles>
CHEMBL301_lig1435

> <s_m_subgroup_title>
dock_pv

> <s_m_subgroupid>
dock_pv

> <b_m_subgroup_collapsed>
1

$$$$
CHEMBL301_lig1151
                    3D
 Schrodinger Suite 2021-1.
 53 57  0  0  1  0            999 V2000
    4.8996   26.5954    6.8174 C   0  0  0  0  0  0
    5.9419   25.8078    5.6025 S   0  0  0  0  0  0
    7.5532   26.2520    6.0776 N   0  0  0  0  0  0
    5.8227   24.3568    5.7780 O   0  0  0  0  0  0
    5.6772   26.4448    4.3091 O   0  0  0  0  0  0
    4.5159   27.9282    6.6463 C   0  0  0  0  0  0
    4.4580   25.8852    7.9340 C   0  0  0  0  0  0
    3.6580   26.5165    8.8852 C   0  0  0  0  0  0
    3.2978   27.8520    8.7292 C   0  0  0  0  0  0
    3.6895   28.5517    7.5836 C   0  0  0  0  0  0
    3.2580   29.8520    7.3080 N   0  0  0  0  0  0
    2.0522   30.5077    7.5346 C   0  0  0  0  0  0
    1.9318   31.7379    6.9760 N   0  0  0  0  0  0
    0.8580   32.4626    7.3760 C   0  0  0  0  0  0
   -0.1202   31.9657    8.2279 C   0  0  0  0  0  0
    0.0509   30.6571    8.6944 C   0  0  0  0  0  0
    1.1418   29.9297    8.3481 N   0  0  0  0  0  0
   -0.8994   29.9961    9.6240 C   0  0  0  0  0  0
   -0.5309   28.8564   10.3598 C   0  0  0  0  0  0
   -1.4797   28.2015   11.1399 C   0  0  0  0  0  0
   -2.7420   28.6712   11.2838 N   0  0  0  0  0  0
   -3.0903   29.7784   10.5760 C   0  0  0  0  0  0
   -2.2110   30.4656    9.7550 C   0  0  0  0  0  0
   -1.1942   26.9686   11.7212 N   0  0  0  0  0  0
    0.0254   26.5129   12.3726 C   0  0  1  0  0  0
   -0.3420   26.4746   13.8852 C   0  0  0  0  0  0
   -1.3640   25.5145   14.1604 O   0  0  0  0  0  0
   -2.5072   25.6893   13.3217 C   0  0  0  0  0  0
   -2.0631   25.8076   11.8351 C   0  0  2  0  0  0
   -1.1420   24.6594   11.3760 C   0  0  0  0  0  0
    0.2680   25.1265   11.7613 C   0  0  0  0  0  0
    8.2468   25.6095    5.6906 H   0  0  0  0  0  0
    7.7705   27.2144    5.7760 H   0  0  0  0  0  0
    4.8391   28.4705    5.7683 H   0  0  0  0  0  0
    4.7427   24.8532    8.0776 H   0  0  0  0  0  0
    3.3321   25.9751    9.7613 H   0  0  0  0  0  0
    2.6992   28.3212    9.4932 H   0  0  0  0  0  0
    3.8935   30.4113    6.7363 H   0  0  0  0  0  0
    0.7744   33.4520    6.9760 H   0  0  0  0  0  0
   -0.9559   32.5861    8.5125 H   0  0  0  0  0  0
    0.4577   28.4333   10.2708 H   0  0  0  0  0  0
   -4.0904   30.1492   10.7251 H   0  0  0  0  0  0
   -2.5669   31.3338    9.2219 H   0  0  0  0  0  0
    0.8580   27.1930   12.1952 H   0  0  0  0  0  0
    0.5183   26.2520   14.5065 H   0  0  0  0  0  0
   -0.7007   27.4554   14.1760 H   0  0  0  0  0  0
   -3.0753   26.5677   13.6353 H   0  0  0  0  0  0
   -3.1627   24.8283   13.4481 H   0  0  0  0  0  0
   -2.9351   25.8980   11.1866 H   0  0  0  0  0  0
   -1.2139   24.5386   10.2942 H   0  0  0  0  0  0
   -1.4091   23.7067   11.8343 H   0  0  0  0  0  0
    0.8987   25.2047   10.8742 H   0  0  0  0  0  0
    0.7597   24.4495   12.4609 H   0  0  0  0  0  0
  1  2  1  0  0  0
  1  7  1  0  0  0
  1  6  2  0  0  0
  2  3  1  0  0  0
  2  4  2  0  0  0
  2  5  2  0  0  0
  3 32  1  0  0  0
  3 33  1  0  0  0
  6 10  1  0  0  0
  6 34  1  0  0  0
  7  8  2  0  0  0
  7 35  1  0  0  0
  8  9  1  0  0  0
  8 36  1  0  0  0
  9 10  2  0  0  0
  9 37  1  0  0  0
 10 11  1  0  0  0
 11 12  1  0  0  0
 11 38  1  0  0  0
 12 13  2  0  0  0
 12 17  1  0  0  0
 13 14  1  0  0  0
 14 15  2  0  0  0
 14 39  1  0  0  0
 15 16  1  0  0  0
 15 40  1  0  0  0
 16 18  1  0  0  0
 16 17  2  0  0  0
 18 23  1  0  0  0
 18 19  2  0  0  0
 19 20  1  0  0  0
 19 41  1  0  0  0
 20 21  2  0  0  0
 20 24  1  0  0  0
 21 22  1  0  0  0
 22 23  2  0  0  0
 22 42  1  0  0  0
 23 43  1  0  0  0
 24 25  1  0  0  0
 24 29  1  0  0  0
 25 26  1  0  0  0
 25 31  1  0  0  0
 25 44  1  0  0  0
 26 27  1  0  0  0
 26 45  1  0  0  0
 26 46  1  0  0  0
 27 28  1  0  0  0
 28 29  1  0  0  0
 28 47  1  0  0  0
 28 48  1  0  0  0
 29 30  1  0  0  0
 29 49  1  0  0  0
 30 31  1  0  0  0
 30 50  1  0  0  0
 30 51  1  0  0  0
 31 52  1  0  0  0
 31 53  1  0  0  0
M  END
> <s_m_entry_id>
32610

> <s_m_entry_name>
dock_pv.11

> <s_m_Source_Path>
/home/csk/Desktop/cluster/DUD-E-result/cdk2

> <s_m_Source_File>
dock_pv.maegz

> <i_m_Source_File_Index>
11

> <chembl_id>
CHEMBL2158854

> <chembl_pref_name>
None

> <i_lp_mmshare_version>
53161

> <i_f3d_flags>
0

> <r_lp_tautomer_probability>
0.999999987636

> <s_lp_Force_Field>
OPLS_2005

> <r_lp_Energy>
51.222947

> <b_lp_Chiralities_Consistent>
1

> <s_lp_Variant>
CHEMBL301_lig1151-1

> <s_i_glide_gridfile>
glide-grid_1h00

> <i_i_glide_lignum>
1563

> <i_i_glide_rotatable_bonds>
5

> <r_i_docking_score>
-9.02661313144455

> <r_i_glide_ligand_efficiency>
-0.291181068756276

> <r_i_glide_ligand_efficiency_sa>
-0.914710574686578

> <r_i_glide_ligand_efficiency_ln>
-2.03577789361092

> <r_i_glide_gscore>
-9.02661313144455

> <r_i_glide_lipo>
-2.73632762834548

> <r_i_glide_hbond>
-0.832941812293128

> <r_i_glide_metal>
0

> <r_i_glide_rewards>
-2.18252416902326

> <r_i_glide_evdw>
-31.9545421600342

> <r_i_glide_ecoul>
-12.7258014678955

> <r_i_glide_erotb>
0.290510623274401

> <r_i_glide_esite>
-0.0587328168710441

> <r_i_glide_emodel>
-66.8290234827268

> <r_i_glide_energy>
-44.6803436279297

> <r_i_glide_einternal>
7.15462636947632

> <i_i_glide_confnum>
5

> <i_i_glide_posenum>
206

> <r_i_glide_eff_state_penalty>
0

> <s_user_duplicate_titles>
CHEMBL301_lig1151

> <s_m_subgroup_title>
dock_pv

> <s_m_subgroupid>
dock_pv

> <b_m_subgroup_collapsed>
1

$$$$
CHEMBL301_lig514
                    3D
 Schrodinger Suite 2021-1.
 48 51  0  0  1  0            999 V2000
   -1.5419   28.2462   10.7217 N   0  0  0  0  0  0
    4.5142   24.9935    7.1894 C   0  0  0  0  0  0
    4.4570   24.7314    5.8208 C   0  0  0  0  0  0
    4.4372   25.7845    4.9036 C   0  0  0  0  0  0
    4.4599   27.1000    5.3590 C   0  0  0  0  0  0
    4.5068   27.3642    6.7311 C   0  0  0  0  0  0
    4.5408   26.3085    7.6462 C   0  0  0  0  0  0
    4.5281   28.8050    7.2212 C   0  0  0  0  0  0
    3.1904   29.2584    7.8259 C   0  0  0  0  0  0
    2.8377   28.7691    8.8987 O   0  0  0  0  0  0
    2.5187   30.2168    7.1462 N   0  0  0  0  0  0
    1.3942   30.9117    7.5540 C   0  0  0  0  0  0
    0.1877   32.6520    7.8347 N   0  0  0  0  0  0
    1.2579   32.1598    7.1911 N   0  0  0  0  0  0
   -0.4305   31.6976    8.6184 C   0  0  0  0  0  0
    0.3295   30.5146    8.4380 C   0  0  0  0  0  0
   -0.0661   29.3522    9.1113 C   0  0  0  0  0  0
   -1.1516   29.3877    9.9909 C   0  0  0  0  0  0
   -1.8584   30.5809   10.1689 C   0  0  0  0  0  0
   -1.5361   31.7524    9.4748 C   0  0  0  0  0  0
   -1.3648   26.9146   10.1400 C   0  0  0  0  0  0
   -0.0107   26.3254   10.5905 C   0  0  0  0  0  0
    0.5112   27.1472   11.7801 C   0  0  0  0  0  0
   -0.9870   28.0820   12.3919 S   0  0  0  0  0  0
   -0.5931   29.3686   12.9757 O   0  0  0  0  0  0
   -1.7799   27.1041   13.1473 O   0  0  0  0  0  0
    4.4011   23.0421    5.2884 S   0  0  0  0  0  0
    4.1597   23.0051    3.4886 C   0  0  0  0  0  0
    4.5280   24.1819    7.9010 H   0  0  0  0  0  0
    4.4030   25.6024    3.8395 H   0  0  0  0  0  0
    4.4441   27.9105    4.6451 H   0  0  0  0  0  0
    4.5747   26.5083    8.7077 H   0  0  0  0  0  0
    5.3010   28.9152    7.9835 H   0  0  0  0  0  0
    4.8310   29.4518    6.4008 H   0  0  0  0  0  0
    3.0394   30.6418    6.3899 H   0  0  0  0  0  0
   -0.0657   33.6260    7.7114 H   0  0  0  0  0  0
    0.4860   28.4401    8.9760 H   0  0  0  0  0  0
   -2.6853   30.6016   10.8662 H   0  0  0  0  0  0
   -2.1017   32.6599    9.6250 H   0  0  0  0  0  0
   -2.2068   26.2439   10.3125 H   0  0  0  0  0  0
   -1.3377   26.9769    9.0504 H   0  0  0  0  0  0
   -0.1463   25.2794   10.8622 H   0  0  0  0  0  0
    0.7147   26.3207    9.7766 H   0  0  0  0  0  0
    0.8578   26.5149   12.5928 H   0  0  0  0  0  0
    1.2951   27.8581   11.5156 H   0  0  0  0  0  0
    4.0534   21.9766    3.1428 H   0  0  0  0  0  0
    5.0107   23.4548    2.9757 H   0  0  0  0  0  0
    3.2572   23.5486    3.2098 H   0  0  0  0  0  0
  1 18  1  0  0  0
  1 21  1  0  0  0
  1 24  1  0  0  0
  2  3  2  0  0  0
  2  7  1  0  0  0
  2 29  1  0  0  0
  3  4  1  0  0  0
  3 27  1  0  0  0
  4  5  2  0  0  0
  4 30  1  0  0  0
  5  6  1  0  0  0
  5 31  1  0  0  0
  6  8  1  0  0  0
  6  7  2  0  0  0
  7 32  1  0  0  0
  8  9  1  0  0  0
  8 33  1  0  0  0
  8 34  1  0  0  0
  9 10  2  0  0  0
  9 11  1  0  0  0
 11 12  1  0  0  0
 11 35  1  0  0  0
 12 14  2  0  0  0
 12 16  1  0  0  0
 13 14  1  0  0  0
 13 15  1  0  0  0
 13 36  1  0  0  0
 15 16  2  0  0  0
 15 20  1  0  0  0
 16 17  1  0  0  0
 17 18  2  0  0  0
 17 37  1  0  0  0
 18 19  1  0  0  0
 19 20  2  0  0  0
 19 38  1  0  0  0
 20 39  1  0  0  0
 21 22  1  0  0  0
 21 40  1  0  0  0
 21 41  1  0  0  0
 22 23  1  0  0  0
 22 42  1  0  0  0
 22 43  1  0  0  0
 23 24  1  0  0  0
 23 44  1  0  0  0
 23 45  1  0  0  0
 24 25  2  0  0  0
 24 26  2  0  0  0
 27 28  1  0  0  0
 28 46  1  0  0  0
 28 47  1  0  0  0
 28 48  1  0  0  0
M  END
> <s_m_entry_id>
32611

> <s_m_entry_name>
dock_pv.12

> <s_m_Source_Path>
/home/csk/Desktop/cluster/DUD-E-result/cdk2

> <s_m_Source_File>
dock_pv.maegz

> <i_m_Source_File_Index>
12

> <chembl_id>
CHEMBL415789

> <chembl_pref_name>
None

> <i_lp_mmshare_version>
53161

> <i_f3d_flags>
0

> <r_lp_tautomer_probability>
0.980392156862745

> <s_lp_Force_Field>
OPLS_2005

> <r_lp_Energy>
20.247288

> <b_lp_Chiralities_Consistent>
1

> <s_lp_Variant>
CHEMBL301_lig514-1

> <s_i_glide_gridfile>
glide-grid_1h00

> <i_i_glide_lignum>
712

> <i_i_glide_rotatable_bonds>
6

> <r_i_docking_score>
-8.99006949340964

> <r_i_glide_ligand_efficiency>
-0.321073910478916

> <r_i_glide_ligand_efficiency_sa>
-0.974969494634337

> <r_i_glide_ligand_efficiency_ln>
-2.07517199898905

> <r_i_glide_gscore>
-8.99006949340964

> <r_i_glide_lipo>
-3.00727445389328

> <r_i_glide_hbond>
-0.544374437868241

> <r_i_glide_metal>
0

> <r_i_glide_rewards>
-2.35803742935969

> <r_i_glide_evdw>
-44.1321029663086

> <r_i_glide_ecoul>
-8.18881320953369

> <r_i_glide_erotb>
0.398577539437547

> <r_i_glide_esite>
-0.0440335819804902

> <r_i_glide_emodel>
-75.331545645055

> <r_i_glide_energy>
-52.3209161758423

> <r_i_glide_einternal>
8.75808715820312

> <i_i_glide_confnum>
107

> <i_i_glide_posenum>
264

> <r_i_glide_eff_state_penalty>
0

> <s_user_duplicate_titles>
CHEMBL301_lig514,424735

> <s_m_subgroup_title>
dock_pv

> <s_m_subgroupid>
dock_pv

> <b_m_subgroup_collapsed>
1

$$$$
CHEMBL301_lig986
                    3D
 Schrodinger Suite 2021-1.
 54 58  0  0  1  0            999 V2000
    1.2874   29.8521    8.4476 C   0  0  0  0  0  0
    0.6281   31.0358    8.1753 C   0  0  0  0  0  0
    0.5285   29.0847    9.4120 C   0  0  0  0  0  0
    1.2582   31.7948    7.3129 N   0  0  0  0  0  0
   -0.6740   29.9332    9.6860 C   0  0  0  0  0  0
    2.4075   29.8588    7.6360 C   0  0  0  0  0  0
   -0.6039   31.1103    8.9315 C   0  0  0  0  0  0
    2.3095   31.0525    6.9763 N   0  0  0  0  0  0
   -1.8099   29.7067   10.4872 C   0  0  0  0  0  0
   -1.1900   28.1617   12.2864 C   0  0  0  0  0  0
   -2.0340   28.6242   11.3489 N   0  0  0  0  0  0
   -0.7413   25.1946   13.9239 C   0  0  0  0  0  0
   -1.0193   26.5122   13.9426 N   0  0  0  0  0  0
    3.4856   28.8799    7.3812 C   0  0  0  0  0  0
   -1.7105   27.0628   12.8703 N   0  0  0  0  0  0
    0.7926   27.9699    9.8569 O   0  0  0  0  0  0
    0.0389   24.5883   12.7698 C   0  0  0  0  0  0
   -0.1094   28.6854   12.5749 O   0  0  0  0  0  0
   -1.0089   24.5048   14.9095 O   0  0  0  0  0  0
    3.8898   28.6482    6.0655 C   0  0  0  0  0  0
    4.0628   28.1655    8.4278 C   0  0  0  0  0  0
    0.8482   25.3692   11.9282 C   0  0  0  0  0  0
    0.0169   23.1983   12.5821 C   0  0  0  0  0  0
   -1.6028   32.0749    8.9765 C   0  0  0  0  0  0
    1.5729   23.3988   10.7548 C   0  0  0  0  0  0
    5.4685   26.9930    6.8357 C   0  0  0  0  0  0
    0.7865   22.6055   11.5844 C   0  0  0  0  0  0
    1.5998   24.7797   10.9158 C   0  0  0  0  0  0
    5.0631   27.2394    8.1539 C   0  0  0  0  0  0
    4.8587   27.6912    5.7961 C   0  0  0  0  0  0
   -2.8619   30.6189   10.4190 C   0  0  0  0  0  0
    2.3257   22.8106    9.7764 O   0  0  0  0  0  0
    6.4569   26.0962    6.4818 O   0  0  0  0  0  0
   -2.7419   31.8165    9.7244 C   0  0  0  0  0  0
    7.1890   25.4318    7.5045 C   0  0  0  0  0  0
    3.0319   31.3838    6.3441 H   0  0  0  0  0  0
   -3.0055   28.4536   11.5512 H   0  0  0  0  0  0
   -1.0794   27.0547   14.7908 H   0  0  0  0  0  0
   -2.7064   27.0280   13.0402 H   0  0  0  0  0  0
    3.4443   29.1926    5.2488 H   0  0  0  0  0  0
    3.7457   28.3269    9.4485 H   0  0  0  0  0  0
    0.9411   26.4357   12.0641 H   0  0  0  0  0  0
   -0.5824   22.5642   13.2214 H   0  0  0  0  0  0
   -1.5196   32.9939    8.4141 H   0  0  0  0  0  0
    0.7709   21.5326   11.4531 H   0  0  0  0  0  0
    2.2195   25.4002   10.2833 H   0  0  0  0  0  0
    5.5119   26.7123    8.9759 H   0  0  0  0  0  0
    5.1712   27.5108    4.7784 H   0  0  0  0  0  0
   -3.7684   30.4434   10.9759 H   0  0  0  0  0  0
    2.4311   23.3813    9.0068 H   0  0  0  0  0  0
   -3.5396   32.5380    9.7788 H   0  0  0  0  0  0
    7.9459   24.7946    7.0474 H   0  0  0  0  0  0
    7.7041   26.1402    8.1557 H   0  0  0  0  0  0
    6.5407   24.7955    8.1087 H   0  0  0  0  0  0
  1  2  1  0  0  0
  1  3  1  0  0  0
  1  6  2  0  0  0
  2  4  2  0  0  0
  2  7  1  0  0  0
  3  5  1  0  0  0
  3 16  2  0  0  0
  4  8  1  0  0  0
  5  9  2  0  0  0
  5  7  1  0  0  0
  6  8  1  0  0  0
  6 14  1  0  0  0
  7 24  2  0  0  0
  8 36  1  0  0  0
  9 11  1  0  0  0
  9 31  1  0  0  0
 10 11  1  0  0  0
 10 15  1  0  0  0
 10 18  2  0  0  0
 11 37  1  0  0  0
 12 13  1  0  0  0
 12 17  1  0  0  0
 12 19  2  0  0  0
 13 15  1  0  0  0
 13 38  1  0  0  0
 14 20  1  0  0  0
 14 21  2  0  0  0
 15 39  1  0  0  0
 17 22  2  0  0  0
 17 23  1  0  0  0
 20 30  2  0  0  0
 20 40  1  0  0  0
 21 29  1  0  0  0
 21 41  1  0  0  0
 22 28  1  0  0  0
 22 42  1  0  0  0
 23 27  2  0  0  0
 23 43  1  0  0  0
 24 34  1  0  0  0
 24 44  1  0  0  0
 25 27  1  0  0  0
 25 32  1  0  0  0
 25 28  2  0  0  0
 26 29  2  0  0  0
 26 33  1  0  0  0
 26 30  1  0  0  0
 27 45  1  0  0  0
 28 46  1  0  0  0
 29 47  1  0  0  0
 30 48  1  0  0  0
 31 34  2  0  0  0
 31 49  1  0  0  0
 32 50  1  0  0  0
 33 35  1  0  0  0
 34 51  1  0  0  0
 35 52  1  0  0  0
 35 53  1  0  0  0
 35 54  1  0  0  0
M  END
> <s_m_entry_id>
32612

> <s_m_entry_name>
dock_pv.13

> <s_m_Source_Path>
/home/csk/Desktop/cluster/DUD-E-result/cdk2

> <s_m_Source_File>
dock_pv.maegz

> <i_m_Source_File_Index>
13

> <chembl_id>
CHEMBL362560

> <chembl_pref_name>
None

> <i_lp_mmshare_version>
53161

> <i_f3d_flags>
0

> <r_lp_tautomer_probability>
0.999999999997365

> <s_lp_Force_Field>
OPLS_2005

> <r_lp_Energy>
67.12643

> <b_lp_Chiralities_Consistent>
1

> <s_lp_Variant>
CHEMBL301_lig986-1

> <s_i_glide_gridfile>
glide-grid_1h00

> <i_i_glide_lignum>
1381

> <i_i_glide_rotatable_bonds>
9

> <r_i_docking_score>
-8.98701247715458

> <r_i_glide_ligand_efficiency>
-0.256771785061559

> <r_i_glide_ligand_efficiency_sa>
-0.839917534526453

> <r_i_glide_ligand_efficiency_ln>
-1.97284869473096

> <r_i_glide_gscore>
-8.98701247715458

> <r_i_glide_lipo>
-3.30326914513095

> <r_i_glide_hbond>
-0.452624007687478

> <r_i_glide_metal>
0

> <r_i_glide_rewards>
-1.88286575831798

> <r_i_glide_evdw>
-50.6045532226562

> <r_i_glide_ecoul>
-9.48468685150146

> <r_i_glide_erotb>
0.641536111949442

> <r_i_glide_esite>
-0.036858989109581

> <r_i_glide_emodel>
-79.7208031684639

> <r_i_glide_energy>
-60.0892400741577

> <r_i_glide_einternal>
21.0120449066162

> <i_i_glide_confnum>
50

> <i_i_glide_posenum>
26

> <r_i_glide_eff_state_penalty>
0

> <s_user_duplicate_titles>
CHEMBL301_lig986,310561

> <s_m_subgroup_title>
dock_pv

> <s_m_subgroupid>
dock_pv

> <b_m_subgroup_collapsed>
1

$$$$
CHEMBL301_lig520
                    3D
 Schrodinger Suite 2021-1.
 47 50  0  0  1  0            999 V2000
   -1.3809   27.9957   10.7756 N   0  0  0  0  0  0
    4.4563   26.2123    4.5779 C   0  0  0  0  0  0
    4.4561   24.9818    5.2373 C   0  0  0  0  0  0
    4.6289   24.9261    6.6216 C   0  0  0  0  0  0
    4.7871   26.1019    7.3506 C   0  0  0  0  0  0
    4.7702   27.3360    6.6938 C   0  0  0  0  0  0
    4.6063   27.3894    5.3065 C   0  0  0  0  0  0
    4.8532   28.6263    7.4978 C   0  0  0  0  0  0
    3.4778   29.0299    8.0429 C   0  0  0  0  0  0
    3.0475   28.4568    9.0396 O   0  0  0  0  0  0
    2.8522   30.0195    7.3760 N   0  0  0  0  0  0
    1.6524   30.6520    7.6779 C   0  0  0  0  0  0
    0.3351   32.3353    7.7787 N   0  0  0  0  0  0
    1.4481   31.8538    7.2024 N   0  0  0  0  0  0
   -0.2837   31.3932    8.5791 C   0  0  0  0  0  0
    0.5477   30.2442    8.5154 C   0  0  0  0  0  0
    0.1551   29.0987    9.2249 C   0  0  0  0  0  0
   -0.9912   29.1230   10.0228 C   0  0  0  0  0  0
   -1.7564   30.2897   10.0985 C   0  0  0  0  0  0
   -1.4422   31.4389    9.3650 C   0  0  0  0  0  0
   -1.2413   26.6653   10.1803 C   0  0  0  0  0  0
    0.1013   26.0314   10.6137 C   0  0  0  0  0  0
    0.7063   26.8696   11.7545 C   0  0  0  0  0  0
   -0.7608   27.8302   12.4244 S   0  0  0  0  0  0
   -0.3423   29.1224   12.9758 O   0  0  0  0  0  0
   -1.5440   26.8770   13.2190 O   0  0  0  0  0  0
    4.2608   23.6978    4.4515 C   0  0  0  0  0  0
    4.3257   26.2567    3.5057 H   0  0  0  0  0  0
    4.6232   23.9753    7.1340 H   0  0  0  0  0  0
    4.8950   26.0583    8.4261 H   0  0  0  0  0  0
    4.5868   28.3412    4.7951 H   0  0  0  0  0  0
    5.5401   28.5024    8.3359 H   0  0  0  0  0  0
    5.2598   29.4264    6.8792 H   0  0  0  0  0  0
    3.4109   30.4817    6.6652 H   0  0  0  0  0  0
    0.0351   33.2824    7.5849 H   0  0  0  0  0  0
    0.7406   28.2006    9.1651 H   0  0  0  0  0  0
   -2.6286   30.3048   10.7396 H   0  0  0  0  0  0
   -2.0568   32.3253    9.4305 H   0  0  0  0  0  0
   -2.1024   26.0148   10.3443 H   0  0  0  0  0  0
   -1.2154   26.7322    9.0909 H   0  0  0  0  0  0
   -0.0748   25.0036   10.9335 H   0  0  0  0  0  0
    0.7986   25.9573    9.7778 H   0  0  0  0  0  0
    1.1286   26.2514   12.5466 H   0  0  0  0  0  0
    1.4705   27.5734   11.4204 H   0  0  0  0  0  0
    4.9997   22.9550    4.7527 H   0  0  0  0  0  0
    3.2710   23.2810    4.6446 H   0  0  0  0  0  0
    4.3768   23.8532    3.3779 H   0  0  0  0  0  0
  1 18  1  0  0  0
  1 21  1  0  0  0
  1 24  1  0  0  0
  2  3  2  0  0  0
  2  7  1  0  0  0
  2 28  1  0  0  0
  3  4  1  0  0  0
  3 27  1  0  0  0
  4  5  2  0  0  0
  4 29  1  0  0  0
  5  6  1  0  0  0
  5 30  1  0  0  0
  6  8  1  0  0  0
  6  7  2  0  0  0
  7 31  1  0  0  0
  8  9  1  0  0  0
  8 32  1  0  0  0
  8 33  1  0  0  0
  9 10  2  0  0  0
  9 11  1  0  0  0
 11 12  1  0  0  0
 11 34  1  0  0  0
 12 14  2  0  0  0
 12 16  1  0  0  0
 13 15  1  0  0  0
 13 14  1  0  0  0
 13 35  1  0  0  0
 15 16  2  0  0  0
 15 20  1  0  0  0
 16 17  1  0  0  0
 17 18  2  0  0  0
 17 36  1  0  0  0
 18 19  1  0  0  0
 19 20  2  0  0  0
 19 37  1  0  0  0
 20 38  1  0  0  0
 21 22  1  0  0  0
 21 39  1  0  0  0
 21 40  1  0  0  0
 22 23  1  0  0  0
 22 41  1  0  0  0
 22 42  1  0  0  0
 23 24  1  0  0  0
 23 43  1  0  0  0
 23 44  1  0  0  0
 24 25  2  0  0  0
 24 26  2  0  0  0
 27 45  1  0  0  0
 27 46  1  0  0  0
 27 47  1  0  0  0
M  END
> <s_m_entry_id>
32613

> <s_m_entry_name>
dock_pv.14

> <s_m_Source_Path>
/home/csk/Desktop/cluster/DUD-E-result/cdk2

> <s_m_Source_File>
dock_pv.maegz

> <i_m_Source_File_Index>
14

> <chembl_id>
CHEMBL256558

> <chembl_pref_name>
None

> <i_lp_mmshare_version>
53161

> <i_f3d_flags>
0

> <r_lp_tautomer_probability>
0.980392156862745

> <s_lp_Force_Field>
OPLS_2005

> <r_lp_Energy>
20.538381

> <b_lp_Chiralities_Consistent>
1

> <s_lp_Variant>
CHEMBL301_lig520-1

> <s_i_glide_gridfile>
glide-grid_1h00

> <i_i_glide_lignum>
724

> <i_i_glide_rotatable_bonds>
5

> <r_i_docking_score>
-8.95355744505782

> <r_i_glide_ligand_efficiency>
-0.331613238705845

> <r_i_glide_ligand_efficiency_sa>
-0.994839715024592

> <r_i_glide_ligand_efficiency_ln>
-2.08424056227856

> <r_i_glide_gscore>
-8.95355744505782

> <r_i_glide_lipo>
-2.90398672502376

> <r_i_glide_hbond>
-0.408980767271432

> <r_i_glide_metal>
0

> <r_i_glide_rewards>
-2.77823396395535

> <r_i_glide_evdw>
-43.4178199768066

> <r_i_glide_ecoul>
-7.55846881866455

> <r_i_glide_erotb>
0.4604039301891

> <r_i_glide_esite>
-0.0180985973563596

> <r_i_glide_emodel>
-73.8244706799818

> <r_i_glide_energy>
-50.9762887954712

> <r_i_glide_einternal>
6.87994956970215

> <i_i_glide_confnum>
194

> <i_i_glide_posenum>
270

> <r_i_glide_eff_state_penalty>
0

> <s_user_duplicate_titles>
CHEMBL301_lig520,424718

> <s_m_subgroup_title>
dock_pv

> <s_m_subgroupid>
dock_pv

> <b_m_subgroup_collapsed>
1

$$$$
CHEMBL301_lig531
                    3D
 Schrodinger Suite 2021-1.
 46 49  0  0  1  0            999 V2000
   -1.0582   28.0246   11.0784 N   0  0  0  0  0  0
    4.4684   25.0450    5.7523 C   0  0  0  0  0  0
    4.3615   25.4093    4.4116 C   0  0  0  0  0  0
    4.4592   26.7447    4.0264 C   0  0  0  0  0  0
    4.6629   27.7263    4.9927 C   0  0  0  0  0  0
    4.7836   27.3679    6.3392 C   0  0  0  0  0  0
    4.6860   26.0247    6.7181 C   0  0  0  0  0  0
    4.9527   28.4477    7.4014 C   0  0  0  0  0  0
    3.6044   28.8492    8.0084 C   0  0  0  0  0  0
    3.2144   28.2604    9.0114 O   0  0  0  0  0  0
    2.9612   29.8521    7.3750 N   0  0  0  0  0  0
    1.7734   30.4948    7.6946 C   0  0  0  0  0  0
    0.4577   32.1803    7.7748 N   0  0  0  0  0  0
    1.5600   31.6850    7.1914 N   0  0  0  0  0  0
   -0.1627   31.2505    8.5767 C   0  0  0  0  0  0
    0.6981   30.1215    8.5807 C   0  0  0  0  0  0
    0.3519   29.0288    9.3885 C   0  0  0  0  0  0
   -0.7758   29.1016   10.2073 C   0  0  0  0  0  0
   -1.6048   30.2288   10.1723 C   0  0  0  0  0  0
   -1.3308   31.3190    9.3455 C   0  0  0  0  0  0
   -1.0750   26.6867   10.4298 C   0  0  0  0  0  0
   -1.7718   25.6295   11.2872 C   0  0  0  0  0  0
   -1.1560   25.6171   12.6757 C   0  0  0  0  0  0
   -1.3036   26.9959   13.3370 C   0  0  0  0  0  0
   -0.9714   28.2132   12.4390 C   0  0  0  0  0  0
   -0.7422   29.3063   12.9632 O   0  0  0  0  0  0
    4.3828   24.0076    6.0416 H   0  0  0  0  0  0
    4.1989   24.6512    3.6554 H   0  0  0  0  0  0
    4.3717   27.0119    2.9834 H   0  0  0  0  0  0
    4.7270   28.7645    4.6976 H   0  0  0  0  0  0
    4.7604   25.7485    7.7604 H   0  0  0  0  0  0
    5.6128   28.0909    8.1941 H   0  0  0  0  0  0
    5.4343   29.3269    6.9762 H   0  0  0  0  0  0
    3.4951   30.3121    6.6457 H   0  0  0  0  0  0
    0.1473   33.1209    7.5666 H   0  0  0  0  0  0
    0.9667   28.1457    9.4186 H   0  0  0  0  0  0
   -2.4706   30.2689   10.8213 H   0  0  0  0  0  0
   -1.9648   32.1936    9.3534 H   0  0  0  0  0  0
   -1.5418   26.7505    9.4462 H   0  0  0  0  0  0
   -0.0399   26.3867   10.2643 H   0  0  0  0  0  0
   -2.8374   25.8523   11.3417 H   0  0  0  0  0  0
   -1.6898   24.6509   10.8137 H   0  0  0  0  0  0
   -0.1001   25.3442   12.6160 H   0  0  0  0  0  0
   -1.6353   24.8555   13.2932 H   0  0  0  0  0  0
   -0.6857   27.0458   14.2330 H   0  0  0  0  0  0
   -2.3349   27.1433   13.6590 H   0  0  0  0  0  0
  1 18  1  0  0  0
  1 21  1  0  0  0
  1 25  1  0  0  0
  2  7  1  0  0  0
  2  3  2  0  0  0
  2 27  1  0  0  0
  3  4  1  0  0  0
  3 28  1  0  0  0
  4  5  2  0  0  0
  4 29  1  0  0  0
  5  6  1  0  0  0
  5 30  1  0  0  0
  6  8  1  0  0  0
  6  7  2  0  0  0
  7 31  1  0  0  0
  8  9  1  0  0  0
  8 32  1  0  0  0
  8 33  1  0  0  0
  9 10  2  0  0  0
  9 11  1  0  0  0
 11 12  1  0  0  0
 11 34  1  0  0  0
 12 14  2  0  0  0
 12 16  1  0  0  0
 13 15  1  0  0  0
 13 14  1  0  0  0
 13 35  1  0  0  0
 15 16  2  0  0  0
 15 20  1  0  0  0
 16 17  1  0  0  0
 17 18  2  0  0  0
 17 36  1  0  0  0
 18 19  1  0  0  0
 19 20  2  0  0  0
 19 37  1  0  0  0
 20 38  1  0  0  0
 21 22  1  0  0  0
 21 39  1  0  0  0
 21 40  1  0  0  0
 22 23  1  0  0  0
 22 41  1  0  0  0
 22 42  1  0  0  0
 23 24  1  0  0  0
 23 43  1  0  0  0
 23 44  1  0  0  0
 24 25  1  0  0  0
 24 45  1  0  0  0
 24 46  1  0  0  0
 25 26  2  0  0  0
M  END
> <s_m_entry_id>
32614

> <s_m_entry_name>
dock_pv.15

> <s_m_Source_Path>
/home/csk/Desktop/cluster/DUD-E-result/cdk2

> <s_m_Source_File>
dock_pv.maegz

> <i_m_Source_File_Index>
15

> <chembl_id>
CHEMBL414949

> <chembl_pref_name>
None

> <i_lp_mmshare_version>
53161

> <i_f3d_flags>
0

> <r_lp_tautomer_probability>
0.980392156862745

> <s_lp_Force_Field>
OPLS_2005

> <r_lp_Energy>
36.63262

> <b_lp_Chiralities_Consistent>
1

> <s_lp_Variant>
CHEMBL301_lig531-1

> <s_i_glide_gridfile>
glide-grid_1h00

> <i_i_glide_lignum>
746

> <i_i_glide_rotatable_bonds>
5

> <r_i_docking_score>
-8.92302747439133

> <r_i_glide_ligand_efficiency>
-0.343193364399666

> <r_i_glide_ligand_efficiency_sa>
-1.01670899163333

> <r_i_glide_ligand_efficiency_ln>
-2.09554372351957

> <r_i_glide_gscore>
-8.92302747439133

> <r_i_glide_lipo>
-2.99182624832421

> <r_i_glide_hbond>
-0.325055363868177

> <r_i_glide_metal>
0

> <r_i_glide_rewards>
-3.20110338295662

> <r_i_glide_evdw>
-44.20068359375

> <r_i_glide_ecoul>
-5.4821572303772

> <r_i_glide_erotb>
0.62731528500176

> <r_i_glide_esite>
0

> <r_i_glide_emodel>
-71.5765306337555

> <r_i_glide_energy>
-49.6828408241272

> <r_i_glide_einternal>
6.72685194015503

> <i_i_glide_confnum>
38

> <i_i_glide_posenum>
35

> <r_i_glide_eff_state_penalty>
0

> <s_user_duplicate_titles>
CHEMBL301_lig531

> <s_m_subgroup_title>
dock_pv

> <s_m_subgroupid>
dock_pv

> <b_m_subgroup_collapsed>
1

$$$$
CHEMBL301_lig524
                    3D
 Schrodinger Suite 2021-1.
 44 47  0  0  1  0            999 V2000
   -1.4033   28.0330   10.7730 N   0  0  0  0  0  0
    4.4591   26.0181    4.6991 C   0  0  0  0  0  0
    4.4562   24.8281    5.4248 C   0  0  0  0  0  0
    4.6106   24.8411    6.8099 C   0  0  0  0  0  0
    4.7643   26.0531    7.4769 C   0  0  0  0  0  0
    4.7587   27.2516    6.7565 C   0  0  0  0  0  0
    4.6062   27.2325    5.3662 C   0  0  0  0  0  0
    4.8424   28.5811    7.4954 C   0  0  0  0  0  0
    3.4682   29.0079    8.0320 C   0  0  0  0  0  0
    3.0237   28.4417    9.0267 O   0  0  0  0  0  0
    2.8569   30.0065    7.3638 N   0  0  0  0  0  0
    1.6581   30.6497    7.6620 C   0  0  0  0  0  0
    0.3642   32.3504    7.7762 N   0  0  0  0  0  0
    1.4669   31.8554    7.1902 N   0  0  0  0  0  0
   -0.2629   31.4143    8.5759 C   0  0  0  0  0  0
    0.5481   30.2513    8.4986 C   0  0  0  0  0  0
    0.1379   29.1068    9.2007 C   0  0  0  0  0  0
   -0.9974   29.1513   10.0153 C   0  0  0  0  0  0
   -1.7400   30.3315   10.1038 C   0  0  0  0  0  0
   -1.4141   31.4767    9.3704 C   0  0  0  0  0  0
   -1.2861   26.6967   10.1871 C   0  0  0  0  0  0
    0.0514   26.0506   10.6156 C   0  0  0  0  0  0
    0.6575   26.8749   11.7668 C   0  0  0  0  0  0
   -0.7915   27.8656   12.4251 S   0  0  0  0  0  0
   -0.3437   29.1490   12.9759 O   0  0  0  0  0  0
   -1.5927   26.9291   13.2222 O   0  0  0  0  0  0
    4.2403   23.3249    4.6049 Cl  0  0  0  0  0  0
    4.3383   25.9966    3.6248 H   0  0  0  0  0  0
    4.5967   23.9159    7.3663 H   0  0  0  0  0  0
    4.8618   26.0647    8.5542 H   0  0  0  0  0  0
    4.5934   28.1561    4.8058 H   0  0  0  0  0  0
    5.5299   28.4958    8.3377 H   0  0  0  0  0  0
    5.2585   29.3453    6.8388 H   0  0  0  0  0  0
    3.4234   30.4691    6.6595 H   0  0  0  0  0  0
    0.0703   33.3002    7.5848 H   0  0  0  0  0  0
    0.7040   28.1973    9.1203 H   0  0  0  0  0  0
   -2.6046   30.3603   10.7546 H   0  0  0  0  0  0
   -2.0121   32.3739    9.4441 H   0  0  0  0  0  0
   -2.1539   26.0589   10.3626 H   0  0  0  0  0  0
   -1.2671   26.7577    9.0972 H   0  0  0  0  0  0
   -0.1293   25.0199   10.9228 H   0  0  0  0  0  0
    0.7478   25.9842    9.7771 H   0  0  0  0  0  0
    1.0445   26.2510   12.5716 H   0  0  0  0  0  0
    1.4419   27.5618   11.4436 H   0  0  0  0  0  0
  1 18  1  0  0  0
  1 21  1  0  0  0
  1 24  1  0  0  0
  2  3  2  0  0  0
  2  7  1  0  0  0
  2 28  1  0  0  0
  3  4  1  0  0  0
  3 27  1  0  0  0
  4  5  2  0  0  0
  4 29  1  0  0  0
  5  6  1  0  0  0
  5 30  1  0  0  0
  6  8  1  0  0  0
  6  7  2  0  0  0
  7 31  1  0  0  0
  8  9  1  0  0  0
  8 32  1  0  0  0
  8 33  1  0  0  0
  9 10  2  0  0  0
  9 11  1  0  0  0
 11 12  1  0  0  0
 11 34  1  0  0  0
 12 14  2  0  0  0
 12 16  1  0  0  0
 13 15  1  0  0  0
 13 14  1  0  0  0
 13 35  1  0  0  0
 15 16  2  0  0  0
 15 20  1  0  0  0
 16 17  1  0  0  0
 17 18  2  0  0  0
 17 36  1  0  0  0
 18 19  1  0  0  0
 19 20  2  0  0  0
 19 37  1  0  0  0
 20 38  1  0  0  0
 21 22  1  0  0  0
 21 39  1  0  0  0
 21 40  1  0  0  0
 22 23  1  0  0  0
 22 41  1  0  0  0
 22 42  1  0  0  0
 23 24  1  0  0  0
 23 43  1  0  0  0
 23 44  1  0  0  0
 24 25  2  0  0  0
 24 26  2  0  0  0
M  END
> <s_m_entry_id>
32615

> <s_m_entry_name>
dock_pv.16

> <s_m_Source_Path>
/home/csk/Desktop/cluster/DUD-E-result/cdk2

> <s_m_Source_File>
dock_pv.maegz

> <i_m_Source_File_Index>
16

> <chembl_id>
CHEMBL402157

> <chembl_pref_name>
None

> <i_lp_mmshare_version>
53161

> <i_f3d_flags>
0

> <r_lp_tautomer_probability>
0.980392156862745

> <s_lp_Force_Field>
OPLS_2005

> <r_lp_Energy>
17.348006

> <b_lp_Chiralities_Consistent>
1

> <s_lp_Variant>
CHEMBL301_lig524-1

> <s_i_glide_gridfile>
glide-grid_1h00

> <i_i_glide_lignum>
732

> <i_i_glide_rotatable_bonds>
5

> <r_i_docking_score>
-8.91852518551418

> <r_i_glide_ligand_efficiency>
-0.330315747611636

> <r_i_glide_ligand_efficiency_sa>
-0.990947241746242

> <r_i_glide_ligand_efficiency_ln>
-2.07608562980873

> <r_i_glide_gscore>
-8.91852518551418

> <r_i_glide_lipo>
-2.87697877258039

> <r_i_glide_hbond>
-0.440009848684993

> <r_i_glide_metal>
0

> <r_i_glide_rewards>
-2.62816645487486

> <r_i_glide_evdw>
-43.9812049865723

> <r_i_glide_ecoul>
-7.23665380477905

> <r_i_glide_erotb>
0.335603497969907

> <r_i_glide_esite>
-0.0244152872983665

> <r_i_glide_emodel>
-73.4417293045932

> <r_i_glide_energy>
-51.2178587913513

> <r_i_glide_einternal>
9.14017772674561

> <i_i_glide_confnum>
37

> <i_i_glide_posenum>
301

> <r_i_glide_eff_state_penalty>
0

> <s_user_duplicate_titles>
CHEMBL301_lig524,424695

> <s_m_subgroup_title>
dock_pv

> <s_m_subgroupid>
dock_pv

> <b_m_subgroup_collapsed>
1

$$$$
CHEMBL301_lig1336
                    3D
 Schrodinger Suite 2021-1.
 54 56  0  0  1  0            999 V2000
    0.0557   24.2790   11.3581 C   0  0  0  0  0  0
   -0.9289   25.3007   10.7611 C   0  0  0  0  0  0
   -0.6997   26.7889   11.1503 C   0  0  2  0  0  0
    0.6064   27.2543   10.6776 N   0  0  0  0  0  0
    0.7863   28.3866    9.8810 C   0  0  0  0  0  0
    2.0075   28.4434    9.2970 N   0  0  0  0  0  0
    2.2484   29.4520    8.4167 C   0  0  0  0  0  0
    3.4929   29.5475    7.7760 N   0  0  0  0  0  0
    4.5877   28.6072    7.9980 C   0  0  0  0  0  0
    4.5005   27.4154    7.0558 C   0  0  0  0  0  0
    4.4681   27.6005    5.6661 C   0  0  0  0  0  0
    4.4519   26.4725    4.8412 C   0  0  0  0  0  0
    4.4397   25.2051    5.3234 N   0  0  0  0  0  0
    4.4589   25.0413    6.6716 C   0  0  0  0  0  0
    4.5005   26.1129    7.5666 C   0  0  0  0  0  0
    1.2614   30.4230    8.1752 C   0  0  0  0  0  0
    1.2579   31.5518    7.3972 N   0  0  0  0  0  0
    0.1704   32.1700    7.7763 C   0  0  0  0  0  0
   -0.6628   31.4428    8.6065 N   0  0  0  0  0  0
   -1.9738   31.8983    9.0975 C   0  0  0  0  0  0
   -1.8891   32.2881   10.5759 C   0  0  0  0  0  0
   -3.0728   30.8549    8.8403 C   0  0  0  0  0  0
    0.0567   30.2936    8.9088 C   0  0  0  0  0  0
   -0.2327   29.2839    9.7388 N   0  0  0  0  0  0
   -0.9447   27.1426   12.6496 C   0  0  1  0  0  0
   -2.3112   26.6917   13.1891 C   0  0  0  0  0  0
    0.0579   26.6160   13.5017 O   0  0  0  0  0  0
   -0.1449   23.2782   10.9765 H   0  0  0  0  0  0
    1.0872   24.5239   11.1067 H   0  0  0  0  0  0
   -0.0249   24.2295   12.4436 H   0  0  0  0  0  0
   -1.9449   25.0036   11.0197 H   0  0  0  0  0  0
   -0.8819   25.2208    9.6740 H   0  0  0  0  0  0
   -1.4738   27.3287   10.6018 H   0  0  0  0  0  0
    1.3829   26.6126   10.7188 H   0  0  0  0  0  0
    3.6663   30.3434    7.1724 H   0  0  0  0  0  0
    5.5329   29.1228    7.8216 H   0  0  0  0  0  0
    4.6076   28.2740    9.0369 H   0  0  0  0  0  0
    4.4869   28.5939    5.2387 H   0  0  0  0  0  0
    4.4389   26.5715    3.7649 H   0  0  0  0  0  0
    4.4392   24.0240    7.0348 H   0  0  0  0  0  0
    4.5222   25.9339    8.6309 H   0  0  0  0  0  0
   -0.1371   33.1443    7.4259 H   0  0  0  0  0  0
   -2.2349   32.7984    8.5401 H   0  0  0  0  0  0
   -2.8349   32.7036   10.9275 H   0  0  0  0  0  0
   -1.1189   33.0448   10.7337 H   0  0  0  0  0  0
   -1.6690   31.4188   11.1958 H   0  0  0  0  0  0
   -4.0401   31.2138    9.1891 H   0  0  0  0  0  0
   -3.1679   30.6520    7.7764 H   0  0  0  0  0  0
   -2.8766   29.9137    9.3555 H   0  0  0  0  0  0
   -0.8779   28.2266   12.7561 H   0  0  0  0  0  0
   -3.1270   27.0867   12.5819 H   0  0  0  0  0  0
   -2.4019   25.6062   13.2086 H   0  0  0  0  0  0
   -2.4618   27.0504   14.2074 H   0  0  0  0  0  0
    0.9121   26.9973   13.2508 H   0  0  0  0  0  0
  1  2  1  0  0  0
  1 28  1  0  0  0
  1 29  1  0  0  0
  1 30  1  0  0  0
  2  3  1  0  0  0
  2 31  1  0  0  0
  2 32  1  0  0  0
  3  4  1  0  0  0
  3 25  1  0  0  0
  3 33  1  0  0  0
  4  5  1  0  0  0
  4 34  1  0  0  0
  5  6  2  0  0  0
  5 24  1  0  0  0
  6  7  1  0  0  0
  7  8  1  0  0  0
  7 16  2  0  0  0
  8  9  1  0  0  0
  8 35  1  0  0  0
  9 10  1  0  0  0
  9 36  1  0  0  0
  9 37  1  0  0  0
 10 11  2  0  0  0
 10 15  1  0  0  0
 11 12  1  0  0  0
 11 38  1  0  0  0
 12 13  2  0  0  0
 12 39  1  0  0  0
 13 14  1  0  0  0
 14 15  2  0  0  0
 14 40  1  0  0  0
 15 41  1  0  0  0
 16 17  1  0  0  0
 16 23  1  0  0  0
 17 18  2  0  0  0
 18 19  1  0  0  0
 18 42  1  0  0  0
 19 20  1  0  0  0
 19 23  1  0  0  0
 20 21  1  0  0  0
 20 22  1  0  0  0
 20 43  1  0  0  0
 21 44  1  0  0  0
 21 45  1  0  0  0
 21 46  1  0  0  0
 22 47  1  0  0  0
 22 48  1  0  0  0
 22 49  1  0  0  0
 23 24  2  0  0  0
 25 26  1  0  0  0
 25 27  1  0  0  0
 25 50  1  0  0  0
 26 51  1  0  0  0
 26 52  1  0  0  0
 26 53  1  0  0  0
 27 54  1  0  0  0
M  END
> <s_m_entry_id>
32616

> <s_m_entry_name>
dock_pv.17

> <s_m_Source_Path>
/home/csk/Desktop/cluster/DUD-E-result/cdk2

> <s_m_Source_File>
dock_pv.maegz

> <i_m_Source_File_Index>
17

> <chembl_id>
CHEMBL3655770

> <chembl_pref_name>
None

> <i_lp_mmshare_version>
53161

> <i_f3d_flags>
0

> <r_lp_tautomer_probability>
1

> <s_lp_Force_Field>
OPLS_2005

> <r_lp_Energy>
13.374579

> <b_lp_Chiralities_Consistent>
1

> <s_lp_Variant>
CHEMBL301_lig1336-1

> <s_i_glide_gridfile>
glide-grid_1h00

> <i_i_glide_lignum>
1765

> <i_i_glide_rotatable_bonds>
9

> <r_i_docking_score>
-8.91286826006201

> <r_i_glide_ligand_efficiency>
-0.330106231854149

> <r_i_glide_ligand_efficiency_sa>
-0.990318694474469

> <r_i_glide_ligand_efficiency_ln>
-2.07476879082517

> <r_i_glide_gscore>
-8.91286826006201

> <r_i_glide_lipo>
-3.03386299415447

> <r_i_glide_hbond>
-0.608

> <r_i_glide_metal>
0

> <r_i_glide_rewards>
-3.12249095194949

> <r_i_glide_evdw>
-39.8907318115234

> <r_i_glide_ecoul>
-6.6765604019165

> <r_i_glide_erotb>
0.847506336905596

> <r_i_glide_esite>
0

> <r_i_glide_emodel>
-68.6552457107306

> <r_i_glide_energy>
-46.5672922134399

> <r_i_glide_einternal>
4.94806289672852

> <i_i_glide_confnum>
22

> <i_i_glide_posenum>
170

> <r_i_glide_eff_state_penalty>
0

> <s_user_duplicate_titles>
CHEMBL301_lig1336

> <s_m_subgroup_title>
dock_pv

> <s_m_subgroupid>
dock_pv

> <b_m_subgroup_collapsed>
1

$$$$
CHEMBL301_lig528
                    3D
 Schrodinger Suite 2021-1.
 44 47  0  0  1  0            999 V2000
   -1.4848   28.0655   10.8298 N   0  0  0  0  0  0
    4.7774   25.2673    5.6903 C   0  0  0  0  0  0
    4.5778   25.6863    4.3736 C   0  0  0  0  0  0
    4.4554   27.0443    4.0890 C   0  0  0  0  0  0
    4.5205   27.9830    5.1163 C   0  0  0  0  0  0
    4.7279   27.5710    6.4380 C   0  0  0  0  0  0
    4.8552   26.2071    6.7197 C   0  0  0  0  0  0
    4.7800   28.5988    7.5584 C   0  0  0  0  0  0
    3.3825   28.9966    8.0519 C   0  0  0  0  0  0
    2.9222   28.4184    9.0327 O   0  0  0  0  0  0
    2.7755   29.9964    7.3766 N   0  0  0  0  0  0
    1.5824   30.6466    7.6831 C   0  0  0  0  0  0
    0.2852   32.3464    7.7762 N   0  0  0  0  0  0
    1.3932   31.8517    7.2084 N   0  0  0  0  0  0
   -0.3423   31.4182    8.5871 C   0  0  0  0  0  0
    0.4702   30.2529    8.5241 C   0  0  0  0  0  0
    0.0547   29.1152    9.2398 C   0  0  0  0  0  0
   -1.0834   29.1691   10.0510 C   0  0  0  0  0  0
   -1.8252   30.3520   10.1247 C   0  0  0  0  0  0
   -1.4965   31.4879    9.3793 C   0  0  0  0  0  0
   -1.4058   26.7203   10.2592 C   0  0  0  0  0  0
   -0.0579   26.0653   10.6405 C   0  0  0  0  0  0
    0.5898   26.8814   11.7760 C   0  0  0  0  0  0
   -0.8226   27.9083   12.4614 S   0  0  0  0  0  0
   -0.3430   29.1944   12.9760 O   0  0  0  0  0  0
   -1.6123   26.9965   13.2975 O   0  0  0  0  0  0
    4.2422   27.4517    2.8173 F   0  0  0  0  0  0
    4.8714   24.2144    5.9128 H   0  0  0  0  0  0
    4.5160   24.9639    3.5715 H   0  0  0  0  0  0
    4.4166   29.0338    4.8860 H   0  0  0  0  0  0
    4.9993   25.8734    7.7365 H   0  0  0  0  0  0
    5.3488   28.2053    8.4021 H   0  0  0  0  0  0
    5.3202   29.4793    7.2193 H   0  0  0  0  0  0
    3.3455   30.4520    6.6728 H   0  0  0  0  0  0
    0.0011   33.2999    7.5829 H   0  0  0  0  0  0
    0.6209   28.2037    9.1818 H   0  0  0  0  0  0
   -2.6908   30.3913   10.7733 H   0  0  0  0  0  0
   -2.0952   32.3849    9.4449 H   0  0  0  0  0  0
   -2.2738   26.0931   10.4781 H   0  0  0  0  0  0
   -1.4304   26.7729    9.1696 H   0  0  0  0  0  0
   -0.2316   25.0326   10.9442 H   0  0  0  0  0  0
    0.6069   26.0024    9.7770 H   0  0  0  0  0  0
    0.9798   26.2525   12.5748 H   0  0  0  0  0  0
    1.3819   27.5470   11.4351 H   0  0  0  0  0  0
  1 18  1  0  0  0
  1 21  1  0  0  0
  1 24  1  0  0  0
  2  3  2  0  0  0
  2  7  1  0  0  0
  2 28  1  0  0  0
  3  4  1  0  0  0
  3 29  1  0  0  0
  4  5  2  0  0  0
  4 27  1  0  0  0
  5  6  1  0  0  0
  5 30  1  0  0  0
  6  8  1  0  0  0
  6  7  2  0  0  0
  7 31  1  0  0  0
  8  9  1  0  0  0
  8 32  1  0  0  0
  8 33  1  0  0  0
  9 10  2  0  0  0
  9 11  1  0  0  0
 11 12  1  0  0  0
 11 34  1  0  0  0
 12 14  2  0  0  0
 12 16  1  0  0  0
 13 15  1  0  0  0
 13 14  1  0  0  0
 13 35  1  0  0  0
 15 16  2  0  0  0
 15 20  1  0  0  0
 16 17  1  0  0  0
 17 18  2  0  0  0
 17 36  1  0  0  0
 18 19  1  0  0  0
 19 20  2  0  0  0
 19 37  1  0  0  0
 20 38  1  0  0  0
 21 22  1  0  0  0
 21 39  1  0  0  0
 21 40  1  0  0  0
 22 23  1  0  0  0
 22 41  1  0  0  0
 22 42  1  0  0  0
 23 24  1  0  0  0
 23 43  1  0  0  0
 23 44  1  0  0  0
 24 25  2  0  0  0
 24 26  2  0  0  0
M  END
> <s_m_entry_id>
32617

> <s_m_entry_name>
dock_pv.18

> <s_m_Source_Path>
/home/csk/Desktop/cluster/DUD-E-result/cdk2

> <s_m_Source_File>
dock_pv.maegz

> <i_m_Source_File_Index>
18

> <chembl_id>
CHEMBL255262

> <chembl_pref_name>
None

> <i_lp_mmshare_version>
53161

> <i_f3d_flags>
0

> <r_lp_tautomer_probability>
0.980392156862745

> <s_lp_Force_Field>
OPLS_2005

> <r_lp_Energy>
16.740429

> <b_lp_Chiralities_Consistent>
1

> <s_lp_Variant>
CHEMBL301_lig528-1

> <s_i_glide_gridfile>
glide-grid_1h00

> <i_i_glide_lignum>
740

> <i_i_glide_rotatable_bonds>
5

> <r_i_docking_score>
-8.89031420298559

> <r_i_glide_ligand_efficiency>
-0.329270896406874

> <r_i_glide_ligand_efficiency_sa>
-0.987812688135398

> <r_i_glide_ligand_efficiency_ln>
-2.06951857817047

> <r_i_glide_gscore>
-8.89031420298559

> <r_i_glide_lipo>
-2.88715015561511

> <r_i_glide_hbond>
-0.390627907299232

> <r_i_glide_metal>
0

> <r_i_glide_rewards>
-2.71911422206779

> <r_i_glide_evdw>
-43.8102951049805

> <r_i_glide_ecoul>
-7.59163665771484

> <r_i_glide_erotb>
0.516579429713671

> <r_i_glide_esite>
-0.0807410938108747

> <r_i_glide_emodel>
-72.4819018444534

> <r_i_glide_energy>
-51.4019317626953

> <r_i_glide_einternal>
9.79188442230225

> <i_i_glide_confnum>
39

> <i_i_glide_posenum>
301

> <r_i_glide_eff_state_penalty>
0

> <s_user_duplicate_titles>
CHEMBL301_lig528,CHEMBL301_lig528,424688

> <s_m_subgroup_title>
dock_pv

> <s_m_subgroupid>
dock_pv

> <b_m_subgroup_collapsed>
1

$$$$
CHEMBL301_lig1373
                    3D
 Schrodinger Suite 2021-1.
 63 65  0  0  1  0            999 V2000
    2.8582   24.8367    9.7864 C   0  0  0  0  0  0
    2.4930   26.0477   10.6661 C   0  0  0  0  0  0
    0.9534   26.2606   10.7247 C   0  0  2  0  0  0
    0.4422   27.6387   10.7113 N   0  0  0  0  0  0
    0.7180   28.6335    9.7767 C   0  0  0  0  0  0
    1.9091   28.6519    9.1303 N   0  0  0  0  0  0
    2.1795   29.6947    8.3081 C   0  0  0  0  0  0
    3.4630   29.8485    7.7760 N   0  0  0  0  0  0
    4.5457   28.8863    7.9726 C   0  0  0  0  0  0
    4.5992   27.8693    6.8404 C   0  0  0  0  0  0
    4.8571   26.5214    7.1119 C   0  0  0  0  0  0
    4.8903   25.6004    6.0610 C   0  0  0  0  0  0
    4.6845   26.0638    4.7585 C   0  0  0  0  0  0
    4.4582   27.3706    4.4684 N   0  0  0  0  0  0
    4.4220   28.2485    5.5019 C   0  0  0  0  0  0
    1.2102   30.6861    8.0987 C   0  0  0  0  0  0
    1.2252   31.8544    7.3761 N   0  0  0  0  0  0
    0.1324   32.4629    7.7760 C   0  0  0  0  0  0
   -0.7054   31.7052    8.5762 N   0  0  0  0  0  0
   -2.0230   32.1185    9.0875 C   0  0  0  0  0  0
   -1.9408   32.4366   10.5762 C   0  0  0  0  0  0
   -3.1023   31.0519    8.8202 C   0  0  0  0  0  0
    0.0116   30.5510    8.8384 C   0  0  0  0  0  0
   -0.2758   29.5478    9.6709 N   0  0  0  0  0  0
    0.3348   25.4470   11.9151 C   0  0  1  0  0  0
    0.4580   26.2401   13.0889 O   0  0  0  0  0  0
   -1.1111   24.8085   11.7562 C   0  0  0  0  0  0
   -2.0628   25.2241   12.9224 C   0  0  0  0  0  0
   -0.9655   23.2669   11.8222 C   0  0  0  0  0  0
   -1.7792   25.1886   10.4012 C   0  0  0  0  0  0
    3.9318   24.6520    9.7761 H   0  0  0  0  0  0
    2.3693   23.9258   10.1334 H   0  0  0  0  0  0
    2.5537   25.0061    8.7514 H   0  0  0  0  0  0
    3.0504   26.9067   10.3067 H   0  0  0  0  0  0
    2.8898   25.8970   11.6710 H   0  0  0  0  0  0
    0.6057   25.8474    9.7789 H   0  0  0  0  0  0
   -0.4492   27.7602   11.1676 H   0  0  0  0  0  0
    3.6555   30.6519    7.1880 H   0  0  0  0  0  0
    5.4848   29.4384    7.9831 H   0  0  0  0  0  0
    4.4547   28.3850    8.9379 H   0  0  0  0  0  0
    5.0164   26.1868    8.1267 H   0  0  0  0  0  0
    5.0708   24.5528    6.2521 H   0  0  0  0  0  0
    4.7043   25.3816    3.9199 H   0  0  0  0  0  0
    4.2481   29.2811    5.2385 H   0  0  0  0  0  0
   -0.1801   33.4476    7.4563 H   0  0  0  0  0  0
   -2.3024   33.0382    8.5757 H   0  0  0  0  0  0
   -2.8726   32.8761   10.9356 H   0  0  0  0  0  0
   -1.7747   31.5205   11.1489 H   0  0  0  0  0  0
   -1.1382   33.1465   10.7867 H   0  0  0  0  0  0
   -4.0826   31.3931    9.1518 H   0  0  0  0  0  0
   -3.1831   30.8146    7.7647 H   0  0  0  0  0  0
   -2.8970   30.1207    9.3511 H   0  0  0  0  0  0
    1.0264   24.6275   12.1171 H   0  0  0  0  0  0
    1.3091   26.7099   13.0567 H   0  0  0  0  0  0
   -2.9878   24.6537   12.9760 H   0  0  0  0  0  0
   -2.3325   26.2799   12.8625 H   0  0  0  0  0  0
   -1.5943   25.0663   13.8956 H   0  0  0  0  0  0
   -0.3574   22.8824   11.0024 H   0  0  0  0  0  0
   -0.4903   22.9547   12.7542 H   0  0  0  0  0  0
   -1.9242   22.7586   11.7910 H   0  0  0  0  0  0
   -1.1842   24.8824    9.5443 H   0  0  0  0  0  0
   -2.7405   24.7162   10.2284 H   0  0  0  0  0  0
   -1.9413   26.2625   10.3230 H   0  0  0  0  0  0
  1  2  1  0  0  0
  1 31  1  0  0  0
  1 32  1  0  0  0
  1 33  1  0  0  0
  2  3  1  0  0  0
  2 34  1  0  0  0
  2 35  1  0  0  0
  3  4  1  0  0  0
  3 25  1  0  0  0
  3 36  1  0  0  0
  4  5  1  0  0  0
  4 37  1  0  0  0
  5  6  2  0  0  0
  5 24  1  0  0  0
  6  7  1  0  0  0
  7  8  1  0  0  0
  7 16  2  0  0  0
  8  9  1  0  0  0
  8 38  1  0  0  0
  9 10  1  0  0  0
  9 39  1  0  0  0
  9 40  1  0  0  0
 10 11  2  0  0  0
 10 15  1  0  0  0
 11 12  1  0  0  0
 11 41  1  0  0  0
 12 13  2  0  0  0
 12 42  1  0  0  0
 13 14  1  0  0  0
 13 43  1  0  0  0
 14 15  2  0  0  0
 15 44  1  0  0  0
 16 17  1  0  0  0
 16 23  1  0  0  0
 17 18  2  0  0  0
 18 19  1  0  0  0
 18 45  1  0  0  0
 19 20  1  0  0  0
 19 23  1  0  0  0
 20 21  1  0  0  0
 20 22  1  0  0  0
 20 46  1  0  0  0
 21 47  1  0  0  0
 21 48  1  0  0  0
 21 49  1  0  0  0
 22 50  1  0  0  0
 22 51  1  0  0  0
 22 52  1  0  0  0
 23 24  2  0  0  0
 25 26  1  0  0  0
 25 27  1  0  0  0
 25 53  1  0  0  0
 26 54  1  0  0  0
 27 28  1  0  0  0
 27 29  1  0  0  0
 27 30  1  0  0  0
 28 55  1  0  0  0
 28 56  1  0  0  0
 28 57  1  0  0  0
 29 58  1  0  0  0
 29 59  1  0  0  0
 29 60  1  0  0  0
 30 61  1  0  0  0
 30 62  1  0  0  0
 30 63  1  0  0  0
M  END
> <s_m_entry_id>
32618

> <s_m_entry_name>
dock_pv.19

> <s_m_Source_Path>
/home/csk/Desktop/cluster/DUD-E-result/cdk2

> <s_m_Source_File>
dock_pv.maegz

> <i_m_Source_File_Index>
19

> <chembl_id>
CHEMBL1922211

> <chembl_pref_name>
None

> <i_lp_mmshare_version>
53161

> <i_f3d_flags>
0

> <r_lp_tautomer_probability>
1

> <s_lp_Force_Field>
OPLS_2005

> <r_lp_Energy>
28.556488

> <b_lp_Chiralities_Consistent>
1

> <s_lp_Variant>
CHEMBL301_lig1373-2

> <s_i_glide_gridfile>
glide-grid_1h00

> <i_i_glide_lignum>
1838

> <i_i_glide_rotatable_bonds>
10

> <r_i_docking_score>
-8.88406609615167

> <r_i_glide_ligand_efficiency>
-0.296135536538389

> <r_i_glide_ligand_efficiency_sa>
-0.920161964256951

> <r_i_glide_ligand_efficiency_ln>
-2.01855661669882

> <r_i_glide_gscore>
-8.88406609615167

> <r_i_glide_lipo>
-2.96480652099988

> <r_i_glide_hbond>
-0.608

> <r_i_glide_metal>
0

> <r_i_glide_rewards>
-2.78470980285816

> <r_i_glide_evdw>
-38.4156799316406

> <r_i_glide_ecoul>
-8.69352054595947

> <r_i_glide_erotb>
0.698262306182332

> <r_i_glide_esite>
0

> <r_i_glide_emodel>
-63.8471478899414

> <r_i_glide_energy>
-47.1092004776001

> <r_i_glide_einternal>
11.6056728363037

> <i_i_glide_confnum>
10

> <i_i_glide_posenum>
354

> <r_i_glide_eff_state_penalty>
0

> <s_user_duplicate_titles>
CHEMBL301_lig1373

> <s_m_subgroup_title>
dock_pv

> <s_m_subgroupid>
dock_pv

> <b_m_subgroup_collapsed>
1

$$$$
CHEMBL301_lig1105
                    3D
 Schrodinger Suite 2021-1.
 57 61  0  0  1  0            999 V2000
    1.2591   31.5004    7.3954 N   0  0  0  0  0  0
    1.7562   30.2790    7.7273 C   0  0  0  0  0  0
    1.2704   29.4520    8.6791 N   0  0  0  0  0  0
    0.1539   29.7862    9.3763 C   0  0  0  0  0  0
    2.8580   29.8520    6.9835 N   0  0  0  0  0  0
    3.6572   28.6982    7.0118 C   0  0  0  0  0  0
    3.9085   27.9557    8.1695 C   0  0  0  0  0  0
    4.6824   26.7987    8.0922 C   0  0  0  0  0  0
    5.2354   26.3925    6.8786 C   0  0  0  0  0  0
    5.0044   27.1349    5.7211 C   0  0  0  0  0  0
    4.2238   28.2969    5.8024 C   0  0  0  0  0  0
    0.2143   31.8533    8.1550 C   0  0  0  0  0  0
   -0.4206   31.0538    9.1427 C   0  0  0  0  0  0
   -1.4653   31.7355    9.7158 N   0  0  0  0  0  0
   -1.4397   32.9094    9.1404 C   0  0  0  0  0  0
   -0.4518   33.0518    8.1892 N   0  0  0  0  0  0
   -0.3374   28.7580   10.3584 C   0  0  0  0  0  0
    5.6254   26.7064    4.5368 N   0  0  0  0  0  0
    0.4688   27.6657   10.7298 C   0  0  0  0  0  0
    0.0242   26.6614   11.6048 C   0  0  0  0  0  0
   -1.2672   26.7706   12.1393 C   0  0  0  0  0  0
   -2.0832   27.8417   11.7847 C   0  0  0  0  0  0
   -1.6232   28.8219   10.9115 C   0  0  0  0  0  0
   -1.7645   25.8110   13.0223 N   0  0  0  0  0  0
    0.7916   25.5604   11.9591 O   0  0  0  0  0  0
    2.0819   25.3914   11.3772 C   0  0  0  0  0  0
    5.2675   26.9854    3.2631 C   0  0  0  0  0  0
    4.1643   27.4519    2.9614 O   0  0  0  0  0  0
    6.2304   26.7423    2.3371 N   0  0  0  0  0  0
    7.5804   26.2123    2.6087 C   0  0  0  0  0  0
    8.3504   26.5583    1.3340 C   0  0  0  0  0  0
    7.2881   26.5323    0.2506 C   0  0  0  0  0  0
    6.0654   27.1393    0.9333 C   0  0  0  0  0  0
    3.2938   30.5967    6.4475 H   0  0  0  0  0  0
    3.5060   28.2575    9.1238 H   0  0  0  0  0  0
    4.8546   26.2074    8.9727 H   0  0  0  0  0  0
    5.8385   25.4968    6.8456 H   0  0  0  0  0  0
    4.0576   28.9057    4.9263 H   0  0  0  0  0  0
   -2.0940   33.7362    9.3759 H   0  0  0  0  0  0
   -0.2738   33.9019    7.6622 H   0  0  0  0  0  0
    6.4890   26.2015    4.6636 H   0  0  0  0  0  0
    1.4635   27.5949   10.3164 H   0  0  0  0  0  0
   -3.0864   27.9251   12.1791 H   0  0  0  0  0  0
   -2.3062   29.6166   10.6615 H   0  0  0  0  0  0
   -2.7165   25.8833   13.3489 H   0  0  0  0  0  0
   -1.1888   25.0065   13.2224 H   0  0  0  0  0  0
    2.5348   24.4817   11.7681 H   0  0  0  0  0  0
    2.0181   25.2888   10.2927 H   0  0  0  0  0  0
    2.7520   26.2177   11.6152 H   0  0  0  0  0  0
    7.5396   25.1274    2.7177 H   0  0  0  0  0  0
    8.0631   26.6951    3.4621 H   0  0  0  0  0  0
    9.1827   25.8783    1.1485 H   0  0  0  0  0  0
    8.7749   27.5613    1.4161 H   0  0  0  0  0  0
    7.5767   27.0653   -0.6561 H   0  0  0  0  0  0
    7.0724   25.5009   -0.0380 H   0  0  0  0  0  0
    6.0947   28.2267    0.8630 H   0  0  0  0  0  0
    5.1396   26.7529    0.5021 H   0  0  0  0  0  0
  1  2  2  0  0  0
  1 12  1  0  0  0
  2  5  1  0  0  0
  2  3  1  0  0  0
  3  4  2  0  0  0
  4 17  1  0  0  0
  4 13  1  0  0  0
  5  6  1  0  0  0
  5 34  1  0  0  0
  6 11  1  0  0  0
  6  7  2  0  0  0
  7  8  1  0  0  0
  7 35  1  0  0  0
  8  9  2  0  0  0
  8 36  1  0  0  0
  9 10  1  0  0  0
  9 37  1  0  0  0
 10 18  1  0  0  0
 10 11  2  0  0  0
 11 38  1  0  0  0
 12 16  1  0  0  0
 12 13  2  0  0  0
 13 14  1  0  0  0
 14 15  2  0  0  0
 15 16  1  0  0  0
 15 39  1  0  0  0
 16 40  1  0  0  0
 17 19  2  0  0  0
 17 23  1  0  0  0
 18 27  1  0  0  0
 18 41  1  0  0  0
 19 20  1  0  0  0
 19 42  1  0  0  0
 20 21  2  0  0  0
 20 25  1  0  0  0
 21 22  1  0  0  0
 21 24  1  0  0  0
 22 23  2  0  0  0
 22 43  1  0  0  0
 23 44  1  0  0  0
 24 45  1  0  0  0
 24 46  1  0  0  0
 25 26  1  0  0  0
 26 47  1  0  0  0
 26 48  1  0  0  0
 26 49  1  0  0  0
 27 28  2  0  0  0
 27 29  1  0  0  0
 29 30  1  0  0  0
 29 33  1  0  0  0
 30 31  1  0  0  0
 30 50  1  0  0  0
 30 51  1  0  0  0
 31 32  1  0  0  0
 31 52  1  0  0  0
 31 53  1  0  0  0
 32 33  1  0  0  0
 32 54  1  0  0  0
 32 55  1  0  0  0
 33 56  1  0  0  0
 33 57  1  0  0  0
M  END
> <s_m_entry_id>
32619

> <s_m_entry_name>
dock_pv.20

> <s_m_Source_Path>
/home/csk/Desktop/cluster/DUD-E-result/cdk2

> <s_m_Source_File>
dock_pv.maegz

> <i_m_Source_File_Index>
20

> <chembl_id>
CHEMBL2023200

> <chembl_pref_name>
None

> <i_lp_mmshare_version>
53161

> <i_f3d_flags>
0

> <r_lp_tautomer_probability>
1

> <s_lp_Force_Field>
OPLS_2005

> <r_lp_Energy>
61.663717

> <b_lp_Chiralities_Consistent>
1

> <s_lp_Variant>
CHEMBL301_lig1105-1

> <s_i_glide_gridfile>
glide-grid_1h00

> <i_i_glide_lignum>
1512

> <i_i_glide_rotatable_bonds>
7

> <r_i_docking_score>
-8.86900968099803

> <r_i_glide_ligand_efficiency>
-0.268757869121152

> <r_i_glide_ligand_efficiency_sa>
-0.8620500906579

> <r_i_glide_ligand_efficiency_ln>
-1.97242183177949

> <r_i_glide_gscore>
-8.86900968099803

> <r_i_glide_lipo>
-2.06403432190399

> <r_i_glide_hbond>
-0.607349963633672

> <r_i_glide_metal>
0

> <r_i_glide_rewards>
-3.14219083297518

> <r_i_glide_evdw>
-44.9245300292969

> <r_i_glide_ecoul>
-9.13070106506348

> <r_i_glide_erotb>
0.607389248544189

> <r_i_glide_esite>
-0.0469921498050143

> <r_i_glide_emodel>
-80.0425542537132

> <r_i_glide_energy>
-54.0552310943604

> <r_i_glide_einternal>
4.60663223266602

> <i_i_glide_confnum>
63

> <i_i_glide_posenum>
124

> <r_i_glide_eff_state_penalty>
0

> <s_user_duplicate_titles>
CHEMBL301_lig1105

> <s_m_subgroup_title>
dock_pv

> <s_m_subgroupid>
dock_pv

> <b_m_subgroup_collapsed>
1

$$$$
CHEMBL301_lig325
                    3D
 Schrodinger Suite 2021-1.
 44 46  0  0  1  0            999 V2000
   -1.9534   30.3753   10.5310 C   0  0  0  0  0  0
   -2.4601   31.6235   10.1764 C   0  0  0  0  0  0
   -1.7823   32.4097    9.2565 C   0  0  0  0  0  0
   -0.7704   29.8554    9.9612 C   0  0  0  0  0  0
   -0.1212   30.6521    8.9847 C   0  0  0  0  0  0
   -0.6266   31.9073    8.6755 C   0  0  0  0  0  0
    0.1982   32.5316    7.7760 N   0  0  0  0  0  0
    1.1999   31.7432    7.3762 C   0  0  0  0  0  0
    1.0850   30.5090    8.1391 C   0  0  0  0  0  0
    2.0577   32.0667    6.5752 O   0  0  0  0  0  0
    1.9974   29.5177    7.9947 C   0  0  0  0  0  0
    3.0599   29.4520    7.1187 N   0  0  0  0  0  0
    4.0414   28.4630    7.0394 C   0  0  0  0  0  0
    4.6148   27.9293    8.1921 C   0  0  0  0  0  0
    5.6405   27.0012    8.0792 C   0  0  0  0  0  0
    6.0568   26.5725    6.8193 C   0  0  0  0  0  0
    5.4344   27.0518    5.6663 C   0  0  0  0  0  0
    4.4507   28.0298    5.7784 C   0  0  0  0  0  0
    7.4546   25.4737    6.7029 S   0  0  0  0  0  0
    8.2374   25.8517    5.1945 N   0  0  0  0  0  0
    8.3788   25.8511    7.7750 O   0  0  0  0  0  0
    6.9245   24.1113    6.6015 O   0  0  0  0  0  0
   -0.2833   28.5538   10.5309 C   0  0  0  0  0  0
    0.9031   28.2366   10.5968 O   0  0  0  0  0  0
   -1.2975   27.7257   10.9081 O   0  0  0  0  0  0
   -1.0490   26.4673   11.5283 C   0  0  0  0  0  0
   -0.7429   26.6357   13.0253 C   0  0  0  0  0  0
   -2.4945   29.8355   11.2975 H   0  0  0  0  0  0
   -3.3604   31.9934   10.6495 H   0  0  0  0  0  0
   -2.1522   33.3947    9.0128 H   0  0  0  0  0  0
    0.0825   33.4817    7.4449 H   0  0  0  0  0  0
    1.9318   28.6157    8.5759 H   0  0  0  0  0  0
    3.1254   30.1586    6.3933 H   0  0  0  0  0  0
    4.3050   28.2630    9.1726 H   0  0  0  0  0  0
    6.1232   26.6340    8.9740 H   0  0  0  0  0  0
    5.7612   26.7277    4.6900 H   0  0  0  0  0  0
    4.0045   28.4388    4.8859 H   0  0  0  0  0  0
    8.8410   26.6759    5.2692 H   0  0  0  0  0  0
    8.7385   25.0563    4.7928 H   0  0  0  0  0  0
   -1.9427   25.8547   11.4094 H   0  0  0  0  0  0
   -0.2397   25.9366   11.0211 H   0  0  0  0  0  0
   -0.6085   25.6664   13.5050 H   0  0  0  0  0  0
    0.1686   27.2138   13.1826 H   0  0  0  0  0  0
   -1.5570   27.1507   13.5338 H   0  0  0  0  0  0
  1  2  2  0  0  0
  1  4  1  0  0  0
  1 28  1  0  0  0
  2  3  1  0  0  0
  2 29  1  0  0  0
  3  6  2  0  0  0
  3 30  1  0  0  0
  4  5  2  0  0  0
  4 23  1  0  0  0
  5  9  1  0  0  0
  5  6  1  0  0  0
  6  7  1  0  0  0
  7  8  1  0  0  0
  7 31  1  0  0  0
  8  9  1  0  0  0
  8 10  2  0  0  0
  9 11  2  0  0  0
 11 12  1  0  0  0
 11 32  1  0  0  0
 12 13  1  0  0  0
 12 33  1  0  0  0
 13 14  2  0  0  0
 13 18  1  0  0  0
 14 15  1  0  0  0
 14 34  1  0  0  0
 15 16  2  0  0  0
 15 35  1  0  0  0
 16 17  1  0  0  0
 16 19  1  0  0  0
 17 18  2  0  0  0
 17 36  1  0  0  0
 18 37  1  0  0  0
 19 20  1  0  0  0
 19 21  2  0  0  0
 19 22  2  0  0  0
 20 38  1  0  0  0
 20 39  1  0  0  0
 23 24  2  0  0  0
 23 25  1  0  0  0
 25 26  1  0  0  0
 26 27  1  0  0  0
 26 40  1  0  0  0
 26 41  1  0  0  0
 27 42  1  0  0  0
 27 43  1  0  0  0
 27 44  1  0  0  0
M  END
> <s_m_entry_id>
32620

> <s_m_entry_name>
dock_pv.21

> <s_m_Source_Path>
/home/csk/Desktop/cluster/DUD-E-result/cdk2

> <s_m_Source_File>
dock_pv.maegz

> <i_m_Source_File_Index>
21

> <chembl_id>
CHEMBL408210

> <chembl_pref_name>
None

> <i_lp_mmshare_version>
53161

> <i_f3d_flags>
0

> <r_lp_tautomer_probability>
0.499999999999422

> <s_lp_Force_Field>
OPLS_2005

> <r_lp_Energy>
47.227866

> <b_lp_Chiralities_Consistent>
1

> <s_lp_Variant>
CHEMBL301_lig325-1

> <s_i_glide_gridfile>
glide-grid_1h00

> <i_i_glide_lignum>
502

> <i_i_glide_rotatable_bonds>
6

> <r_i_docking_score>
-8.86804838554778

> <r_i_glide_ligand_efficiency>
-0.32844623650177

> <r_i_glide_ligand_efficiency_sa>
-0.985338708422804

> <r_i_glide_ligand_efficiency_ln>
-2.06433546295164

> <r_i_glide_gscore>
-8.86804838554778

> <r_i_glide_lipo>
-2.94830185163592

> <r_i_glide_hbond>
-0.674867629886604

> <r_i_glide_metal>
0

> <r_i_glide_rewards>
-2.04472205725966

> <r_i_glide_evdw>
-39.5903587341309

> <r_i_glide_ecoul>
-10.3235168457031

> <r_i_glide_erotb>
0.36329338121863

> <r_i_glide_esite>
-0.0354047644222199

> <r_i_glide_emodel>
-70.0331936171702

> <r_i_glide_energy>
-49.913875579834

> <r_i_glide_einternal>
8.42329406738281

> <i_i_glide_confnum>
22

> <i_i_glide_posenum>
225

> <r_i_glide_eff_state_penalty>
0

> <s_user_duplicate_titles>
CHEMBL301_lig325,440598,226479

> <s_m_subgroup_title>
dock_pv

> <s_m_subgroupid>
dock_pv

> <b_m_subgroup_collapsed>
1

$$$$
CHEMBL301_lig530
                    3D
 Schrodinger Suite 2021-1.
 41 44  0  0  1  0            999 V2000
   -1.0453   28.1284   11.1685 N   0  0  0  0  0  0
    4.4580   26.9179    3.8806 C   0  0  0  0  0  0
    4.3868   25.5629    4.1916 C   0  0  0  0  0  0
    4.4706   25.1323    5.5147 C   0  0  0  0  0  0
    4.6374   26.0659    6.5362 C   0  0  0  0  0  0
    4.7111   27.4285    6.2309 C   0  0  0  0  0  0
    4.6102   27.8520    4.9022 C   0  0  0  0  0  0
    4.8644   28.4589    7.3459 C   0  0  0  0  0  0
    3.5153   28.8662    7.9478 C   0  0  0  0  0  0
    3.1478   28.3149    8.9781 O   0  0  0  0  0  0
    2.8581   29.8513    7.3003 N   0  0  0  0  0  0
    1.6947   30.5132    7.6591 C   0  0  0  0  0  0
    0.4126   32.2204    7.7760 N   0  0  0  0  0  0
    1.4972   31.7116    7.1700 N   0  0  0  0  0  0
   -0.2077   31.2949    8.5864 C   0  0  0  0  0  0
    0.6352   30.1498    8.5703 C   0  0  0  0  0  0
    0.2890   29.0533    9.3760 C   0  0  0  0  0  0
   -0.8240   29.1437   10.2136 C   0  0  0  0  0  0
   -1.6481   30.2757   10.1818 C   0  0  0  0  0  0
   -1.3719   31.3672    9.3575 C   0  0  0  0  0  0
   -0.9807   28.3750   12.4963 C   0  0  0  0  0  0
   -1.2502   27.0666   13.1844 C   0  0  0  0  0  0
   -1.3618   26.1912   12.0592 N   0  0  0  0  0  0
   -1.2155   26.8059   10.8820 C   0  0  0  0  0  0
   -1.1413   26.2482    9.7861 O   0  0  0  0  0  0
   -0.7422   29.4456   13.0566 O   0  0  0  0  0  0
    4.3893   27.2342    2.8521 H   0  0  0  0  0  0
    4.2593   24.8433    3.3949 H   0  0  0  0  0  0
    4.4044   24.0806    5.7495 H   0  0  0  0  0  0
    4.7004   25.7332    7.5644 H   0  0  0  0  0  0
    4.6620   28.9043    4.6624 H   0  0  0  0  0  0
    5.4995   28.0549    8.1379 H   0  0  0  0  0  0
    5.3701   29.3498    6.9729 H   0  0  0  0  0  0
    3.3877   30.3029    6.5629 H   0  0  0  0  0  0
    0.1073   33.1616    7.5690 H   0  0  0  0  0  0
    0.8894   28.1587    9.3977 H   0  0  0  0  0  0
   -2.5029   30.3317   10.8444 H   0  0  0  0  0  0
   -1.9981   32.2468    9.3705 H   0  0  0  0  0  0
   -0.4273   26.7637   13.8333 H   0  0  0  0  0  0
   -2.1800   27.0897   13.7537 H   0  0  0  0  0  0
   -1.7958   25.2839   12.1452 H   0  0  0  0  0  0
  1 18  1  0  0  0
  1 21  1  0  0  0
  1 24  1  0  0  0
  2  7  1  0  0  0
  2  3  2  0  0  0
  2 27  1  0  0  0
  3  4  1  0  0  0
  3 28  1  0  0  0
  4  5  2  0  0  0
  4 29  1  0  0  0
  5  6  1  0  0  0
  5 30  1  0  0  0
  6  8  1  0  0  0
  6  7  2  0  0  0
  7 31  1  0  0  0
  8  9  1  0  0  0
  8 32  1  0  0  0
  8 33  1  0  0  0
  9 10  2  0  0  0
  9 11  1  0  0  0
 11 12  1  0  0  0
 11 34  1  0  0  0
 12 14  2  0  0  0
 12 16  1  0  0  0
 13 15  1  0  0  0
 13 14  1  0  0  0
 13 35  1  0  0  0
 15 16  2  0  0  0
 15 20  1  0  0  0
 16 17  1  0  0  0
 17 18  2  0  0  0
 17 36  1  0  0  0
 18 19  1  0  0  0
 19 20  2  0  0  0
 19 37  1  0  0  0
 20 38  1  0  0  0
 21 22  1  0  0  0
 21 26  2  0  0  0
 22 23  1  0  0  0
 22 39  1  0  0  0
 22 40  1  0  0  0
 23 24  1  0  0  0
 23 41  1  0  0  0
 24 25  2  0  0  0
M  END
> <s_m_entry_id>
32621

> <s_m_entry_name>
dock_pv.22

> <s_m_Source_Path>
/home/csk/Desktop/cluster/DUD-E-result/cdk2

> <s_m_Source_File>
dock_pv.maegz

> <i_m_Source_File_Index>
22

> <chembl_id>
CHEMBL258404

> <chembl_pref_name>
None

> <i_lp_mmshare_version>
53161

> <i_f3d_flags>
0

> <r_lp_tautomer_probability>
0.980392156862548

> <s_lp_Force_Field>
OPLS_2005

> <r_lp_Energy>
37.067921

> <b_lp_Chiralities_Consistent>
1

> <s_lp_Variant>
CHEMBL301_lig530-1

> <s_i_glide_gridfile>
glide-grid_1h00

> <i_i_glide_lignum>
744

> <i_i_glide_rotatable_bonds>
5

> <r_i_docking_score>
-8.85753864778629

> <r_i_glide_ligand_efficiency>
-0.340674563376396

> <r_i_glide_ligand_efficiency_sa>
-1.0092470535129

> <r_i_glide_ligand_efficiency_ln>
-2.08016388747774

> <r_i_glide_gscore>
-8.85753864778629

> <r_i_glide_lipo>
-2.50452818407119

> <r_i_glide_hbond>
-0.315344312359326

> <r_i_glide_metal>
0

> <r_i_glide_rewards>
-3.4356278695511

> <r_i_glide_evdw>
-46.0948753356934

> <r_i_glide_ecoul>
-6.14398097991943

> <r_i_glide_erotb>
0.624302631967916

> <r_i_glide_esite>
0

> <r_i_glide_emodel>
-73.8344742903478

> <r_i_glide_energy>
-52.2388563156128

> <r_i_glide_einternal>
7.6421480178833

> <i_i_glide_confnum>
2

> <i_i_glide_posenum>
208

> <r_i_glide_eff_state_penalty>
0

> <s_user_duplicate_titles>
CHEMBL301_lig530,CHEMBL301_lig530

> <s_m_subgroup_title>
dock_pv

> <s_m_subgroupid>
dock_pv

> <b_m_subgroup_collapsed>
1

$$$$
CHEMBL301_lig319
                    3D
 Schrodinger Suite 2021-1.
 49 52  0  0  1  0            999 V2000
   -2.3849   29.8535   10.3503 C   0  0  0  0  0  0
   -2.9755   31.1068   10.1759 C   0  0  0  0  0  0
   -2.3050   32.1067    9.4819 C   0  0  0  0  0  0
   -1.1311   29.5612    9.7897 C   0  0  0  0  0  0
   -0.4875   30.5683    9.0372 C   0  0  0  0  0  0
   -1.0724   31.8167    8.9190 C   0  0  0  0  0  0
   -0.2683   32.6406    8.1761 N   0  0  0  0  0  0
    0.8089   31.9964    7.7230 C   0  0  0  0  0  0
    0.7681   30.6492    8.2943 C   0  0  0  0  0  0
    1.6583   32.4655    6.9760 O   0  0  0  0  0  0
    1.6612   29.7414    8.1932 N   0  0  0  0  0  0
    2.7804   29.8560    7.3578 N   0  0  0  0  0  0
    3.7069   28.8293    7.1853 C   0  0  0  0  0  0
    4.2975   28.2319    8.2968 C   0  0  0  0  0  0
    5.2581   27.2456    8.1216 C   0  0  0  0  0  0
    5.6035   26.8265    6.8413 C   0  0  0  0  0  0
    4.9895   27.3939    5.7231 C   0  0  0  0  0  0
    4.0581   28.4153    5.8983 C   0  0  0  0  0  0
    6.8695   25.5803    6.6750 S   0  0  0  0  0  0
    7.6113   25.8519    5.1233 N   0  0  0  0  0  0
    7.8840   25.8518    7.6984 O   0  0  0  0  0  0
    6.1821   24.2877    6.6155 O   0  0  0  0  0  0
   -0.4866   28.2413   10.0012 C   0  0  0  0  0  0
   -0.8358   27.2706   10.8713 C   0  0  0  0  0  0
   -0.0917   26.0065   11.0661 C   0  0  0  0  0  0
   -0.7626   24.8877   11.5701 C   0  0  0  0  0  0
   -0.0789   23.6896   11.7754 C   0  0  0  0  0  0
    1.2804   23.6077   11.4745 C   0  0  0  0  0  0
    1.9561   24.7131   10.9661 C   0  0  0  0  0  0
    1.2735   25.9072   10.7617 C   0  0  0  0  0  0
    1.9620   22.4370   11.6803 O   0  0  0  0  0  0
   -2.9217   29.1184   10.9316 H   0  0  0  0  0  0
   -3.9430   31.3148   10.6080 H   0  0  0  0  0  0
   -2.7420   33.0862    9.3797 H   0  0  0  0  0  0
   -0.4632   33.6049    7.9438 H   0  0  0  0  0  0
    2.7568   30.6419    6.7170 H   0  0  0  0  0  0
    4.0344   28.5503    9.2947 H   0  0  0  0  0  0
    5.7455   26.8082    8.9759 H   0  0  0  0  0  0
    5.2605   27.0779    4.7253 H   0  0  0  0  0  0
    3.6103   28.8829    5.0354 H   0  0  0  0  0  0
    8.3860   26.5187    5.1616 H   0  0  0  0  0  0
    7.8542   24.9928    4.6247 H   0  0  0  0  0  0
    0.3643   28.0322    9.3776 H   0  0  0  0  0  0
   -1.6930   27.4113   11.5124 H   0  0  0  0  0  0
   -1.8163   24.9439   11.8060 H   0  0  0  0  0  0
   -0.6069   22.8345   12.1703 H   0  0  0  0  0  0
    3.0094   24.6592   10.7328 H   0  0  0  0  0  0
    1.8276   26.7557   10.3864 H   0  0  0  0  0  0
    1.3835   21.7254   11.9661 H   0  0  0  0  0  0
  1  4  1  0  0  0
  1  2  2  0  0  0
  1 32  1  0  0  0
  2  3  1  0  0  0
  2 33  1  0  0  0
  3  6  2  0  0  0
  3 34  1  0  0  0
  4  5  2  0  0  0
  4 23  1  0  0  0
  5  9  1  0  0  0
  5  6  1  0  0  0
  6  7  1  0  0  0
  7  8  1  0  0  0
  7 35  1  0  0  0
  8  9  1  0  0  0
  8 10  2  0  0  0
  9 11  2  0  0  0
 11 12  1  0  0  0
 12 13  1  0  0  0
 12 36  1  0  0  0
 13 18  1  0  0  0
 13 14  2  0  0  0
 14 15  1  0  0  0
 14 37  1  0  0  0
 15 16  2  0  0  0
 15 38  1  0  0  0
 16 17  1  0  0  0
 16 19  1  0  0  0
 17 18  2  0  0  0
 17 39  1  0  0  0
 18 40  1  0  0  0
 19 20  1  0  0  0
 19 21  2  0  0  0
 19 22  2  0  0  0
 20 41  1  0  0  0
 20 42  1  0  0  0
 23 24  2  0  0  0
 23 43  1  0  0  0
 24 25  1  0  0  0
 24 44  1  0  0  0
 25 26  2  0  0  0
 25 30  1  0  0  0
 26 27  1  0  0  0
 26 45  1  0  0  0
 27 28  2  0  0  0
 27 46  1  0  0  0
 28 29  1  0  0  0
 28 31  1  0  0  0
 29 30  2  0  0  0
 29 47  1  0  0  0
 30 48  1  0  0  0
 31 49  1  0  0  0
M  END
> <s_m_entry_id>
32622

> <s_m_entry_name>
dock_pv.23

> <s_m_Source_Path>
/home/csk/Desktop/cluster/DUD-E-result/cdk2

> <s_m_Source_File>
dock_pv.maegz

> <i_m_Source_File_Index>
23

> <chembl_id>
CHEMBL272380

> <chembl_pref_name>
None

> <i_lp_mmshare_version>
53161

> <i_f3d_flags>
0

> <r_lp_tautomer_probability>
1

> <s_lp_Force_Field>
OPLS_2005

> <r_lp_Energy>
54.054145

> <b_lp_Chiralities_Consistent>
1

> <s_lp_Variant>
CHEMBL301_lig319-1

> <s_i_glide_gridfile>
glide-grid_1h00

> <i_i_glide_lignum>
495

> <i_i_glide_rotatable_bonds>
6

> <r_i_docking_score>
-8.84731814351551

> <r_i_glide_ligand_efficiency>
-0.285397359468242

> <r_i_glide_ligand_efficiency_sa>
-0.89654174225089

> <r_i_glide_ligand_efficiency_ln>
-1.99534137910144

> <r_i_glide_gscore>
-8.84731814351551

> <r_i_glide_lipo>
-3.11043282761219

> <r_i_glide_hbond>
-0.460166055461609

> <r_i_glide_metal>
0

> <r_i_glide_rewards>
-1.73778131634836

> <r_i_glide_evdw>
-46.1188087463379

> <r_i_glide_ecoul>
-9.99836921691895

> <r_i_glide_erotb>
0.295422322599466

> <r_i_glide_esite>
-0.0286644468380816

> <r_i_glide_emodel>
-80.1115392142679

> <r_i_glide_energy>
-56.1171779632568

> <r_i_glide_einternal>
7.61485862731934

> <i_i_glide_confnum>
14

> <i_i_glide_posenum>
209

> <r_i_glide_eff_state_penalty>
0

> <s_user_duplicate_titles>
CHEMBL301_lig319,440682,226641

> <s_m_subgroup_title>
dock_pv

> <s_m_subgroupid>
dock_pv

> <b_m_subgroup_collapsed>
1

$$$$
CHEMBL301_lig1365
                    3D
 Schrodinger Suite 2021-1.
 63 65  0  0  1  0            999 V2000
   -1.0703   29.7717   12.8705 C   0  0  0  0  0  0
   -0.8034   28.2874   13.1058 C   0  0  0  0  0  0
   -0.6284   27.4519   11.8172 C   0  0  1  0  0  0
    0.6253   27.7772   11.1283 N   0  0  0  0  0  0
    0.7245   28.6522   10.0405 C   0  0  0  0  0  0
    1.9069   28.5886    9.3760 N   0  0  0  0  0  0
    2.1639   29.5317    8.4300 C   0  0  0  0  0  0
    3.4053   29.5741    7.7778 N   0  0  0  0  0  0
    4.4524   28.5672    7.9406 C   0  0  0  0  0  0
    4.5575   27.6661    6.7147 C   0  0  0  0  0  0
    4.8578   26.3076    6.8655 C   0  0  0  0  0  0
    4.9368   25.4871    5.7372 C   0  0  0  0  0  0
    4.7268   26.0569    4.4794 C   0  0  0  0  0  0
    4.4581   27.3754    4.3045 N   0  0  0  0  0  0
    4.3840   28.1568    5.4115 C   0  0  0  0  0  0
    1.2208   30.5414    8.1760 C   0  0  0  0  0  0
    1.2580   31.6594    7.3816 N   0  0  0  0  0  0
    0.2060   32.3317    7.7760 C   0  0  0  0  0  0
   -0.6705   31.6291    8.5795 N   0  0  0  0  0  0
   -1.9853   32.1148    9.0208 C   0  0  0  0  0  0
   -1.9424   32.6302   10.4628 C   0  0  0  0  0  0
   -3.0811   31.0518    8.8155 C   0  0  0  0  0  0
    0.0161   30.4744    8.9173 C   0  0  0  0  0  0
   -0.2935   29.5254    9.8039 N   0  0  0  0  0  0
   -0.7678   25.9280   12.1419 C   0  0  2  0  0  0
    0.0580   25.5626   13.2348 O   0  0  0  0  0  0
   -0.5795   24.9101   10.9611 C   0  0  0  0  0  0
   -1.5533   25.3184    9.8264 C   0  0  0  0  0  0
   -0.9122   23.4840   11.4759 C   0  0  0  0  0  0
    0.8710   24.8464   10.4042 C   0  0  0  0  0  0
   -1.2716   30.2878   13.8060 H   0  0  0  0  0  0
   -0.2156   30.2519   12.3971 H   0  0  0  0  0  0
   -1.9419   29.8957   12.2299 H   0  0  0  0  0  0
   -1.6330   27.8881   13.6909 H   0  0  0  0  0  0
    0.0821   28.1655   13.7290 H   0  0  0  0  0  0
   -1.4526   27.7110   11.1514 H   0  0  0  0  0  0
    1.4272   27.1953   11.3217 H   0  0  0  0  0  0
    3.5800   30.3335    7.1298 H   0  0  0  0  0  0
    5.4021   29.0884    8.0638 H   0  0  0  0  0  0
    4.2970   27.9696    8.8409 H   0  0  0  0  0  0
    5.0103   25.8868    7.8498 H   0  0  0  0  0  0
    5.1525   24.4336    5.8350 H   0  0  0  0  0  0
    4.7759   25.4543    3.5821 H   0  0  0  0  0  0
    4.1778   29.2020    5.2338 H   0  0  0  0  0  0
   -0.0712   33.3120    7.4124 H   0  0  0  0  0  0
   -2.2268   32.9674    8.3923 H   0  0  0  0  0  0
   -2.8262   33.2288   10.6868 H   0  0  0  0  0  0
   -1.9420   31.8039   11.1668 H   0  0  0  0  0  0
   -1.0673   33.2541   10.6435 H   0  0  0  0  0  0
   -4.0583   31.4447    9.0946 H   0  0  0  0  0  0
   -3.1420   30.7338    7.7761 H   0  0  0  0  0  0
   -2.9099   30.1650    9.4268 H   0  0  0  0  0  0
   -1.7867   25.7978   12.5137 H   0  0  0  0  0  0
   -0.0395   24.6194   13.3767 H   0  0  0  0  0  0
   -1.5250   24.6520    8.9757 H   0  0  0  0  0  0
   -1.3168   26.3033    9.4233 H   0  0  0  0  0  0
   -2.5859   25.3498   10.1756 H   0  0  0  0  0  0
   -0.2794   23.1927   12.3142 H   0  0  0  0  0  0
   -1.9420   23.4111   11.8197 H   0  0  0  0  0  0
   -0.7420   22.7193   10.7222 H   0  0  0  0  0  0
    1.6121   24.8013   11.2031 H   0  0  0  0  0  0
    1.0303   23.9704    9.7761 H   0  0  0  0  0  0
    1.1217   25.6982    9.7761 H   0  0  0  0  0  0
  1  2  1  0  0  0
  1 31  1  0  0  0
  1 32  1  0  0  0
  1 33  1  0  0  0
  2  3  1  0  0  0
  2 34  1  0  0  0
  2 35  1  0  0  0
  3  4  1  0  0  0
  3 25  1  0  0  0
  3 36  1  0  0  0
  4  5  1  0  0  0
  4 37  1  0  0  0
  5  6  2  0  0  0
  5 24  1  0  0  0
  6  7  1  0  0  0
  7  8  1  0  0  0
  7 16  2  0  0  0
  8  9  1  0  0  0
  8 38  1  0  0  0
  9 10  1  0  0  0
  9 39  1  0  0  0
  9 40  1  0  0  0
 10 11  2  0  0  0
 10 15  1  0  0  0
 11 12  1  0  0  0
 11 41  1  0  0  0
 12 13  2  0  0  0
 12 42  1  0  0  0
 13 14  1  0  0  0
 13 43  1  0  0  0
 14 15  2  0  0  0
 15 44  1  0  0  0
 16 17  1  0  0  0
 16 23  1  0  0  0
 17 18  2  0  0  0
 18 19  1  0  0  0
 18 45  1  0  0  0
 19 20  1  0  0  0
 19 23  1  0  0  0
 20 21  1  0  0  0
 20 22  1  0  0  0
 20 46  1  0  0  0
 21 47  1  0  0  0
 21 48  1  0  0  0
 21 49  1  0  0  0
 22 50  1  0  0  0
 22 51  1  0  0  0
 22 52  1  0  0  0
 23 24  2  0  0  0
 25 26  1  0  0  0
 25 27  1  0  0  0
 25 53  1  0  0  0
 26 54  1  0  0  0
 27 28  1  0  0  0
 27 29  1  0  0  0
 27 30  1  0  0  0
 28 55  1  0  0  0
 28 56  1  0  0  0
 28 57  1  0  0  0
 29 58  1  0  0  0
 29 59  1  0  0  0
 29 60  1  0  0  0
 30 61  1  0  0  0
 30 62  1  0  0  0
 30 63  1  0  0  0
M  END
> <s_m_entry_id>
32623

> <s_m_entry_name>
dock_pv.24

> <s_m_Source_Path>
/home/csk/Desktop/cluster/DUD-E-result/cdk2

> <s_m_Source_File>
dock_pv.maegz

> <i_m_Source_File_Index>
24

> <chembl_id>
CHEMBL1922122

> <chembl_pref_name>
None

> <i_lp_mmshare_version>
53161

> <i_f3d_flags>
0

> <r_lp_tautomer_probability>
1

> <s_lp_Force_Field>
OPLS_2005

> <r_lp_Energy>
35.312314

> <b_lp_Chiralities_Consistent>
1

> <s_lp_Variant>
CHEMBL301_lig1365-1

> <s_i_glide_gridfile>
glide-grid_1h00

> <i_i_glide_lignum>
1824

> <i_i_glide_rotatable_bonds>
10

> <r_i_docking_score>
-8.79719207729606

> <r_i_glide_ligand_efficiency>
-0.293239735909869

> <r_i_glide_ligand_efficiency_sa>
-0.911164038423453

> <r_i_glide_ligand_efficiency_ln>
-1.99881789304658

> <r_i_glide_gscore>
-8.79719207729606

> <r_i_glide_lipo>
-3.62493063085304

> <r_i_glide_hbond>
-0.32

> <r_i_glide_metal>
0

> <r_i_glide_rewards>
-2.86396759217537

> <r_i_glide_evdw>
-43.9815444946289

> <r_i_glide_ecoul>
-3.24985957145691

> <r_i_glide_erotb>
0.698262306182332

> <r_i_glide_esite>
0

> <r_i_glide_emodel>
-59.0039146753596

> <r_i_glide_energy>
-47.2314040660858

> <r_i_glide_einternal>
7.02627420425415

> <i_i_glide_confnum>
52

> <i_i_glide_posenum>
371

> <r_i_glide_eff_state_penalty>
0

> <s_user_duplicate_titles>
CHEMBL301_lig1365

> <s_m_subgroup_title>
dock_pv

> <s_m_subgroupid>
dock_pv

> <b_m_subgroup_collapsed>
1

$$$$
CHEMBL301_lig1402
                    3D
 Schrodinger Suite 2021-1.
 46 47  0  0  1  0            999 V2000
    1.0876   26.0790   10.2864 C   0  0  0  0  0  0
   -0.0943   27.0141    9.9700 C   0  0  0  0  0  0
   -0.3141   28.1873   10.9505 C   0  0  1  0  0  0
   -1.4159   29.4195   10.1760 S   0  0  0  0  0  0
   -0.4575   30.4530    9.1084 C   0  0  0  0  0  0
    0.6023   29.9035    8.4567 N   0  0  0  0  0  0
    1.3314   30.7212    7.6486 C   0  0  0  0  0  0
    2.4579   30.2268    6.9755 N   0  0  0  0  0  0
    3.2325   29.0656    7.1257 C   0  0  0  0  0  0
    3.2777   28.3517    8.3220 C   0  0  0  0  0  0
    4.0793   27.2219    8.4157 C   0  0  0  0  0  0
    4.8905   26.8419    7.3420 C   0  0  0  0  0  0
    4.8513   27.5568    6.1490 C   0  0  0  0  0  0
    4.0106   28.6520    6.0417 C   0  0  0  0  0  0
    5.9626   25.4229    7.4920 S   0  0  1  0  0  0
    6.9467   25.8528    8.5760 N   0  0  0  0  0  0
    5.1332   24.2177    7.5525 O   0  0  0  0  0  0
    7.0822   25.3647    5.9801 C   0  0  0  0  0  0
    1.0777   32.0413    7.4484 N   0  0  0  0  0  0
    0.0577   32.5736    8.1760 C   0  0  0  0  0  0
   -0.7627   31.8132    9.0024 C   0  0  0  0  0  0
   -2.1799   32.6518    9.9675 Br  0  0  0  0  0  0
   -0.8523   27.7509   12.3392 C   0  0  2  0  0  0
   -1.1457   28.9374   13.2667 C   0  0  0  0  0  0
    0.0578   26.9125   13.0279 O   0  0  0  0  0  0
    1.3287   25.4445    9.4320 H   0  0  0  0  0  0
    1.9855   26.6426   10.5423 H   0  0  0  0  0  0
    0.8638   25.4117   11.1177 H   0  0  0  0  0  0
   -1.0082   26.4259    9.8786 H   0  0  0  0  0  0
    0.0668   27.4520    8.9883 H   0  0  0  0  0  0
    0.6421   28.6939   11.0977 H   0  0  0  0  0  0
    2.9488   30.9289    6.4342 H   0  0  0  0  0  0
    2.6969   28.6559    9.1781 H   0  0  0  0  0  0
    4.0580   26.6585    9.3311 H   0  0  0  0  0  0
    5.4583   27.2827    5.3003 H   0  0  0  0  0  0
    4.0000   29.1995    5.1139 H   0  0  0  0  0  0
    6.4906   25.8884    9.4931 H   0  0  0  0  0  0
    7.5995   26.3193    5.8822 H   0  0  0  0  0  0
    7.8073   24.5652    6.1236 H   0  0  0  0  0  0
    6.4788   25.1609    5.0972 H   0  0  0  0  0  0
   -0.1095   33.6340    8.1231 H   0  0  0  0  0  0
   -1.7768   27.1867   12.2026 H   0  0  0  0  0  0
   -1.9202   29.5819   12.8542 H   0  0  0  0  0  0
   -0.2644   29.5582   13.4185 H   0  0  0  0  0  0
   -1.5420   28.5935   14.2197 H   0  0  0  0  0  0
    0.9296   27.3349   13.0607 H   0  0  0  0  0  0
  1  2  1  0  0  0
  1 26  1  0  0  0
  1 27  1  0  0  0
  1 28  1  0  0  0
  2  3  1  0  0  0
  2 29  1  0  0  0
  2 30  1  0  0  0
  3  4  1  0  0  0
  3 23  1  0  0  0
  3 31  1  0  0  0
  4  5  1  0  0  0
  5  6  2  0  0  0
  5 21  1  0  0  0
  6  7  1  0  0  0
  7  8  1  0  0  0
  7 19  2  0  0  0
  8  9  1  0  0  0
  8 32  1  0  0  0
  9 10  2  0  0  0
  9 14  1  0  0  0
 10 11  1  0  0  0
 10 33  1  0  0  0
 11 12  2  0  0  0
 11 34  1  0  0  0
 12 13  1  0  0  0
 12 15  1  0  0  0
 13 14  2  0  0  0
 13 35  1  0  0  0
 14 36  1  0  0  0
 15 16  2  0  0  0
 15 17  2  0  0  0
 15 18  1  0  0  0
 16 37  1  0  0  0
 18 38  1  0  0  0
 18 39  1  0  0  0
 18 40  1  0  0  0
 19 20  1  0  0  0
 20 21  2  0  0  0
 20 41  1  0  0  0
 21 22  1  0  0  0
 23 24  1  0  0  0
 23 25  1  0  0  0
 23 42  1  0  0  0
 24 43  1  0  0  0
 24 44  1  0  0  0
 24 45  1  0  0  0
 25 46  1  0  0  0
M  END
> <s_m_entry_id>
32624

> <s_m_entry_name>
dock_pv.25

> <s_m_Source_Path>
/home/csk/Desktop/cluster/DUD-E-result/cdk2

> <s_m_Source_File>
dock_pv.maegz

> <i_m_Source_File_Index>
25

> <chembl_id>
CHEMBL3648103

> <chembl_pref_name>
None

> <i_lp_mmshare_version>
53161

> <i_f3d_flags>
0

> <r_lp_tautomer_probability>
0.999999987636

> <s_lp_Force_Field>
OPLS_2005

> <r_lp_Energy>
5.194105

> <b_lp_Chiralities_Consistent>
1

> <s_lp_Variant>
CHEMBL301_lig1402-4

> <s_i_glide_gridfile>
glide-grid_1h00

> <i_i_glide_lignum>
1907

> <i_i_glide_rotatable_bonds>
8

> <r_i_docking_score>
-8.78571758157816

> <r_i_glide_ligand_efficiency>
-0.351428703263126

> <r_i_glide_ligand_efficiency_sa>
-1.02758376095597

> <r_i_glide_ligand_efficiency_ln>
-2.08247835354401

> <r_i_glide_gscore>
-8.78571758157816

> <r_i_glide_lipo>
-2.83273833663796

> <r_i_glide_hbond>
-0.677788334507444

> <r_i_glide_metal>
0

> <r_i_glide_rewards>
-1.87928477455715

> <r_i_glide_evdw>
-35.012336730957

> <r_i_glide_ecoul>
-14.3304605484009

> <r_i_glide_erotb>
0.504279782932378

> <r_i_glide_esite>
0

> <r_i_glide_emodel>
-73.2744227963361

> <r_i_glide_energy>
-49.3427972793579

> <r_i_glide_einternal>
3.70082068443298

> <i_i_glide_confnum>
17

> <i_i_glide_posenum>
349

> <r_i_glide_eff_state_penalty>
0

> <s_user_duplicate_titles>
CHEMBL301_lig1402

> <s_m_subgroup_title>
dock_pv

> <s_m_subgroupid>
dock_pv

> <b_m_subgroup_collapsed>
1

$$$$
CHEMBL301_lig532
                    3D
 Schrodinger Suite 2021-1.
 43 46  0  0  1  0            999 V2000
    4.4563   25.4098    5.1202 C   0  0  0  0  0  0
    4.4604   24.5526    6.2185 C   0  0  0  0  0  0
    4.4834   25.0594    7.5160 C   0  0  0  0  0  0
    4.4992   26.4360    7.7206 C   0  0  0  0  0  0
    4.4667   27.3053    6.6221 C   0  0  0  0  0  0
    4.4586   26.7870    5.3229 C   0  0  0  0  0  0
    4.4501   28.8176    6.8236 C   0  0  0  0  0  0
    3.1983   29.3389    7.5527 C   0  0  0  0  0  0
    2.9749   28.9562    8.6984 O   0  0  0  0  0  0
    2.4580   30.2517    6.8852 N   0  0  0  0  0  0
    1.3990   30.9816    7.3865 C   0  0  0  0  0  0
    0.2502   32.7386    7.7760 N   0  0  0  0  0  0
    1.2580   32.2339    7.0437 N   0  0  0  0  0  0
   -0.3421   31.7834    8.5761 C   0  0  0  0  0  0
    0.4106   30.6007    8.3618 C   0  0  0  0  0  0
    0.0852   29.4521    9.0975 C   0  0  0  0  0  0
   -0.9080   29.5203   10.0732 C   0  0  0  0  0  0
   -1.6579   30.6946   10.2345 C   0  0  0  0  0  0
   -1.4069   31.8447    9.4815 C   0  0  0  0  0  0
   -1.1085   28.3936   10.8949 N   0  0  0  0  0  0
   -1.0066   27.0074   10.4204 C   0  0  0  0  0  0
   -1.5353   26.1677   11.5603 C   0  0  0  0  0  0
   -1.2422   27.0218   12.7717 C   0  0  0  0  0  0
   -1.1569   28.4562   12.2544 C   0  0  0  0  0  0
   -1.1288   29.4515   12.9763 O   0  0  0  0  0  0
    4.4423   25.0103    4.1159 H   0  0  0  0  0  0
    4.4440   23.4838    6.0624 H   0  0  0  0  0  0
    4.4814   24.3891    8.3627 H   0  0  0  0  0  0
    4.5172   26.8240    8.7292 H   0  0  0  0  0  0
    4.4462   27.4457    4.4668 H   0  0  0  0  0  0
    5.3267   29.1055    7.4047 H   0  0  0  0  0  0
    4.5611   29.3118    5.8577 H   0  0  0  0  0  0
    2.9029   30.6315    6.0601 H   0  0  0  0  0  0
    0.0007   33.7158    7.6745 H   0  0  0  0  0  0
    0.6524   28.5452    8.9760 H   0  0  0  0  0  0
   -2.4396   30.7265   10.9826 H   0  0  0  0  0  0
   -1.9763   32.7496    9.6394 H   0  0  0  0  0  0
   -1.5421   26.8603    9.4838 H   0  0  0  0  0  0
    0.0415   26.7828   10.2149 H   0  0  0  0  0  0
   -1.0856   25.1752   11.6000 H   0  0  0  0  0  0
   -2.6136   26.0327   11.4511 H   0  0  0  0  0  0
   -0.2731   26.7712   13.2040 H   0  0  0  0  0  0
   -1.9988   26.9234   13.5511 H   0  0  0  0  0  0
  1  6  1  0  0  0
  1  2  2  0  0  0
  1 26  1  0  0  0
  2  3  1  0  0  0
  2 27  1  0  0  0
  3  4  2  0  0  0
  3 28  1  0  0  0
  4  5  1  0  0  0
  4 29  1  0  0  0
  5  7  1  0  0  0
  5  6  2  0  0  0
  6 30  1  0  0  0
  7  8  1  0  0  0
  7 31  1  0  0  0
  7 32  1  0  0  0
  8  9  2  0  0  0
  8 10  1  0  0  0
 10 11  1  0  0  0
 10 33  1  0  0  0
 11 13  2  0  0  0
 11 15  1  0  0  0
 12 14  1  0  0  0
 12 13  1  0  0  0
 12 34  1  0  0  0
 14 15  2  0  0  0
 14 19  1  0  0  0
 15 16  1  0  0  0
 16 17  2  0  0  0
 16 35  1  0  0  0
 17 18  1  0  0  0
 17 20  1  0  0  0
 18 19  2  0  0  0
 18 36  1  0  0  0
 19 37  1  0  0  0
 20 21  1  0  0  0
 20 24  1  0  0  0
 21 22  1  0  0  0
 21 38  1  0  0  0
 21 39  1  0  0  0
 22 23  1  0  0  0
 22 40  1  0  0  0
 22 41  1  0  0  0
 23 24  1  0  0  0
 23 42  1  0  0  0
 23 43  1  0  0  0
 24 25  2  0  0  0
M  END
> <s_m_entry_id>
32625

> <s_m_entry_name>
dock_pv.26

> <s_m_Source_Path>
/home/csk/Desktop/cluster/DUD-E-result/cdk2

> <s_m_Source_File>
dock_pv.maegz

> <i_m_Source_File_Index>
26

> <chembl_id>
CHEMBL404747

> <chembl_pref_name>
None

> <i_lp_mmshare_version>
53161

> <i_f3d_flags>
0

> <r_lp_tautomer_probability>
0.980392156862745

> <s_lp_Force_Field>
OPLS_2005

> <r_lp_Energy>
34.126988

> <b_lp_Chiralities_Consistent>
1

> <s_lp_Variant>
CHEMBL301_lig532-1

> <s_i_glide_gridfile>
glide-grid_1h00

> <i_i_glide_lignum>
748

> <i_i_glide_rotatable_bonds>
5

> <r_i_docking_score>
-8.74503257117006

> <r_i_glide_ligand_efficiency>
-0.349801302846802

> <r_i_glide_ligand_efficiency_sa>
-1.02282521327657

> <r_i_glide_ligand_efficiency_ln>
-2.07283478684592

> <r_i_glide_gscore>
-8.74503257117006

> <r_i_glide_lipo>
-3.14023063679598

> <r_i_glide_hbond>
-0.577784159115654

> <r_i_glide_metal>
0

> <r_i_glide_rewards>
-2.50739686922933

> <r_i_glide_evdw>
-40.0857582092285

> <r_i_glide_ecoul>
-6.58432769775391

> <r_i_glide_erotb>
0.472316159095414

> <r_i_glide_esite>
0

> <r_i_glide_emodel>
-67.8360728752414

> <r_i_glide_energy>
-46.6700859069824

> <r_i_glide_einternal>
6.25233125686646

> <i_i_glide_confnum>
2

> <i_i_glide_posenum>
6

> <r_i_glide_eff_state_penalty>
0

> <s_user_duplicate_titles>
CHEMBL301_lig532,CHEMBL301_lig532,424680

> <s_m_subgroup_title>
dock_pv

> <s_m_subgroupid>
dock_pv

> <b_m_subgroup_collapsed>
1

$$$$
CHEMBL301_lig311
                    3D
 Schrodinger Suite 2021-1.
 42 45  0  0  1  0            999 V2000
    0.1731   32.1555    7.7760 N   0  0  0  0  0  0
    1.2580   31.4805    7.3760 C   0  0  0  0  0  0
    1.3014   30.2520    8.1796 C   0  0  0  0  0  0
   -0.5072   29.3909    9.8932 C   0  0  0  0  0  0
   -1.7540   29.7146   10.5000 C   0  0  0  0  0  0
   -2.4059   30.9173   10.1760 C   0  0  0  0  0  0
   -1.8007   31.7847    9.2633 C   0  0  0  0  0  0
   -0.5832   31.4416    8.6773 C   0  0  0  0  0  0
    0.0770   30.2617    8.9578 C   0  0  0  0  0  0
    2.0580   31.8520    6.5246 O   0  0  0  0  0  0
    2.2270   29.3742    8.2125 N   0  0  0  0  0  0
    0.0501   27.8414   10.5265 S   0  0  0  0  0  0
   -1.4029   27.7846   11.4898 C   0  0  0  0  0  0
   -2.2242   28.7875   11.3760 N   0  0  0  0  0  0
    3.3531   29.4520    7.3815 N   0  0  0  0  0  0
    4.1326   28.3372    7.0825 C   0  0  0  0  0  0
    4.5196   27.4485    8.0869 C   0  0  0  0  0  0
    5.2788   26.3294    7.7688 C   0  0  0  0  0  0
    5.6514   26.0942    6.4444 C   0  0  0  0  0  0
    5.2580   26.9776    5.4369 C   0  0  0  0  0  0
    4.5058   28.1045    5.7592 C   0  0  0  0  0  0
    6.4930   24.8729    6.1145 C   0  0  0  0  0  0
    8.3234   25.1387    6.4984 S   0  0  0  0  0  0
    9.0230   23.8653    6.3010 O   0  0  0  0  0  0
    8.4159   25.8520    7.7754 O   0  0  0  0  0  0
    8.8580   26.2520    5.2540 N   0  0  1  0  0  0
    8.9981   25.7785    3.8643 C   0  0  0  0  0  0
   -0.0579   33.0735    7.4207 H   0  0  0  0  0  0
   -3.3452   31.1741   10.6452 H   0  0  0  0  0  0
   -2.2861   32.7197    9.0213 H   0  0  0  0  0  0
   -1.5957   26.9498   12.1480 H   0  0  0  0  0  0
    3.3430   30.2395    6.7365 H   0  0  0  0  0  0
    4.2383   27.6240    9.1156 H   0  0  0  0  0  0
    5.5855   25.6578    8.5584 H   0  0  0  0  0  0
    5.5481   26.8043    4.4108 H   0  0  0  0  0  0
    4.2123   28.7930    4.9800 H   0  0  0  0  0  0
    6.4127   24.5881    5.0659 H   0  0  0  0  0  0
    6.1678   24.0210    6.7105 H   0  0  0  0  0  0
    8.4934   27.2093    5.3566 H   0  0  0  0  0  0
    9.5517   26.5189    3.2853 H   0  0  0  0  0  0
    8.0135   25.6680    3.4092 H   0  0  0  0  0  0
    9.5339   24.8288    3.8365 H   0  0  0  0  0  0
  1  2  1  0  0  0
  1  8  1  0  0  0
  1 28  1  0  0  0
  2  3  1  0  0  0
  2 10  2  0  0  0
  3  9  1  0  0  0
  3 11  2  0  0  0
  4  5  2  0  0  0
  4  9  1  0  0  0
  4 12  1  0  0  0
  5  6  1  0  0  0
  5 14  1  0  0  0
  6  7  2  0  0  0
  6 29  1  0  0  0
  7  8  1  0  0  0
  7 30  1  0  0  0
  8  9  2  0  0  0
 11 15  1  0  0  0
 12 13  1  0  0  0
 13 14  2  0  0  0
 13 31  1  0  0  0
 15 16  1  0  0  0
 15 32  1  0  0  0
 16 17  2  0  0  0
 16 21  1  0  0  0
 17 18  1  0  0  0
 17 33  1  0  0  0
 18 19  2  0  0  0
 18 34  1  0  0  0
 19 20  1  0  0  0
 19 22  1  0  0  0
 20 21  2  0  0  0
 20 35  1  0  0  0
 21 36  1  0  0  0
 22 23  1  0  0  0
 22 37  1  0  0  0
 22 38  1  0  0  0
 23 24  2  0  0  0
 23 25  2  0  0  0
 23 26  1  0  0  0
 26 27  1  0  0  0
 26 39  1  0  0  0
 27 40  1  0  0  0
 27 41  1  0  0  0
 27 42  1  0  0  0
M  END
> <s_m_entry_id>
32626

> <s_m_entry_name>
dock_pv.27

> <s_m_Source_Path>
/home/csk/Desktop/cluster/DUD-E-result/cdk2

> <s_m_Source_File>
dock_pv.maegz

> <i_m_Source_File_Index>
27

> <chembl_id>
CHEMBL1234086

> <chembl_pref_name>
None

> <i_lp_mmshare_version>
53161

> <i_f3d_flags>
0

> <r_lp_tautomer_probability>
1

> <s_lp_Force_Field>
OPLS_2005

> <r_lp_Energy>
41.436713

> <b_lp_Chiralities_Consistent>
1

> <s_lp_Variant>
CHEMBL301_lig311-1

> <s_i_glide_gridfile>
glide-grid_1h00

> <i_i_glide_lignum>
487

> <i_i_glide_rotatable_bonds>
5

> <r_i_docking_score>
-8.74486287603224

> <r_i_glide_ligand_efficiency>
-0.323883810223416

> <r_i_glide_ligand_efficiency_sa>
-0.971651429602781

> <r_i_glide_ligand_efficiency_ln>
-2.03565990720827

> <r_i_glide_gscore>
-8.74486287603224

> <r_i_glide_lipo>
-2.269257619968

> <r_i_glide_hbond>
-0.79129027314536

> <r_i_glide_metal>
0

> <r_i_glide_rewards>
-2.53460905785445

> <r_i_glide_evdw>
-41.3709373474121

> <r_i_glide_ecoul>
-10.2280464172363

> <r_i_glide_erotb>
0.486786296873966

> <r_i_glide_esite>
-0.0337383919823442

> <r_i_glide_emodel>
-75.7635909657924

> <r_i_glide_energy>
-51.5989837646484

> <r_i_glide_einternal>
4.64889049530029

> <i_i_glide_confnum>
16

> <i_i_glide_posenum>
258

> <r_i_glide_eff_state_penalty>
0

> <s_user_duplicate_titles>
CHEMBL301_lig311,226567

> <s_m_subgroup_title>
dock_pv

> <s_m_subgroupid>
dock_pv

> <b_m_subgroup_collapsed>
1

$$$$
CHEMBL301_lig539
                    3D
 Schrodinger Suite 2021-1.
 50 52  0  0  1  0            999 V2000
    0.2380   30.2010    8.9129 C   0  0  0  0  0  0
   -0.4257   31.3698    8.5753 N   0  0  0  0  0  0
    1.4600   30.2521    8.1936 C   0  0  0  0  0  0
   -0.1096   29.2419    9.7753 N   0  0  0  0  0  0
    1.5089   31.3531    7.3764 N   0  0  0  0  0  0
    2.0822   28.2664    9.3759 N   0  0  0  0  0  0
    2.3989   29.2473    8.4847 C   0  0  0  0  0  0
    0.4580   32.0399    7.7516 C   0  0  0  0  0  0
    0.8558   28.3094    9.9719 C   0  0  0  0  0  0
    3.6700   29.2964    7.8904 N   0  0  0  0  0  0
    4.5828   27.2783    6.7979 C   0  0  0  0  0  0
    4.6561   28.2216    8.0012 C   0  0  0  0  0  0
   -1.7236   31.8984    9.0292 C   0  0  0  0  0  0
    4.5707   25.8791    6.9478 C   0  0  0  0  0  0
    0.5023   27.3312   10.9084 N   0  0  0  0  0  0
    4.6481   25.2696    8.1739 O   0  0  0  0  0  0
    1.2013   24.9798   10.4211 C   0  0  0  0  0  0
    2.1652   22.8449    9.7760 O   0  0  0  0  0  0
    4.5392   27.8200    5.5029 C   0  0  0  0  0  0
    1.3903   26.2369   11.2825 C   0  0  0  0  0  0
    2.3406   23.9746   10.6035 C   0  0  0  0  0  0
    4.4783   25.0559    5.8242 C   0  0  0  0  0  0
   -1.6326   32.3307   10.4908 C   0  0  0  0  0  0
   -2.8728   30.8950    8.8247 C   0  0  0  0  0  0
    4.4589   26.9908    4.3858 C   0  0  0  0  0  0
    4.4224   25.6078    4.5456 C   0  0  0  0  0  0
    0.1918   33.0192    7.3758 H   0  0  0  0  0  0
    3.8670   30.0569    7.2496 H   0  0  0  0  0  0
    5.6525   28.6649    8.0319 H   0  0  0  0  0  0
    4.5340   27.6859    8.9429 H   0  0  0  0  0  0
   -1.9418   32.7849    8.4313 H   0  0  0  0  0  0
   -0.4532   27.3281   11.2308 H   0  0  0  0  0  0
    4.8570   25.8520    8.9127 H   0  0  0  0  0  0
    0.2366   24.5211   10.6425 H   0  0  0  0  0  0
    1.1685   25.2748    9.3760 H   0  0  0  0  0  0
    2.0726   23.1410    8.8582 H   0  0  0  0  0  0
    4.5714   28.8914    5.3569 H   0  0  0  0  0  0
    2.4272   26.5735   11.2201 H   0  0  0  0  0  0
    1.2579   25.9986   12.3386 H   0  0  0  0  0  0
    3.2874   24.4594   10.3713 H   0  0  0  0  0  0
    2.4194   23.6710   11.6485 H   0  0  0  0  0  0
    4.4548   23.9829    5.9437 H   0  0  0  0  0  0
   -2.5314   32.8664   10.8003 H   0  0  0  0  0  0
   -0.7803   32.9942   10.6430 H   0  0  0  0  0  0
   -1.5391   31.4521   11.1294 H   0  0  0  0  0  0
   -3.8169   31.3122    9.1766 H   0  0  0  0  0  0
   -3.0102   30.6524    7.7762 H   0  0  0  0  0  0
   -2.7140   29.9664    9.3731 H   0  0  0  0  0  0
    4.4233   27.4175    3.3937 H   0  0  0  0  0  0
    4.3551   24.9666    3.6765 H   0  0  0  0  0  0
  1  2  1  0  0  0
  1  3  2  0  0  0
  1  4  1  0  0  0
  2  8  1  0  0  0
  2 13  1  0  0  0
  3  5  1  0  0  0
  3  7  1  0  0  0
  4  9  2  0  0  0
  5  8  2  0  0  0
  6  9  1  0  0  0
  6  7  2  0  0  0
  7 10  1  0  0  0
  8 27  1  0  0  0
  9 15  1  0  0  0
 10 12  1  0  0  0
 10 28  1  0  0  0
 11 12  1  0  0  0
 11 14  2  0  0  0
 11 19  1  0  0  0
 12 29  1  0  0  0
 12 30  1  0  0  0
 13 23  1  0  0  0
 13 24  1  0  0  0
 13 31  1  0  0  0
 14 16  1  0  0  0
 14 22  1  0  0  0
 15 20  1  0  0  0
 15 32  1  0  0  0
 16 33  1  0  0  0
 17 20  1  0  0  0
 17 21  1  0  0  0
 17 34  1  0  0  0
 17 35  1  0  0  0
 18 21  1  0  0  0
 18 36  1  0  0  0
 19 25  2  0  0  0
 19 37  1  0  0  0
 20 38  1  0  0  0
 20 39  1  0  0  0
 21 40  1  0  0  0
 21 41  1  0  0  0
 22 26  2  0  0  0
 22 42  1  0  0  0
 23 43  1  0  0  0
 23 44  1  0  0  0
 23 45  1  0  0  0
 24 46  1  0  0  0
 24 47  1  0  0  0
 24 48  1  0  0  0
 25 26  1  0  0  0
 25 49  1  0  0  0
 26 50  1  0  0  0
M  END
> <s_m_entry_id>
32627

> <s_m_entry_name>
dock_pv.28

> <s_m_Source_Path>
/home/csk/Desktop/cluster/DUD-E-result/cdk2

> <s_m_Source_File>
dock_pv.maegz

> <i_m_Source_File_Index>
28

> <chembl_id>
CHEMBL419931

> <chembl_pref_name>
None

> <i_lp_mmshare_version>
53161

> <i_f3d_flags>
0

> <r_lp_tautomer_probability>
0.999999999997365

> <s_lp_Force_Field>
OPLS_2005

> <r_lp_Energy>
17.021617

> <b_lp_Chiralities_Consistent>
1

> <s_lp_Variant>
CHEMBL301_lig539-1

> <s_i_glide_gridfile>
glide-grid_1h00

> <i_i_glide_lignum>
759

> <i_i_glide_rotatable_bonds>
10

> <r_i_docking_score>
-8.73519389407675

> <r_i_glide_ligand_efficiency>
-0.335968995926029

> <r_i_glide_ligand_efficiency_sa>
-0.995306828456697

> <r_i_glide_ligand_efficiency_ln>
-2.05143162351494

> <r_i_glide_gscore>
-8.73519389407675

> <r_i_glide_lipo>
-2.53831449537912

> <r_i_glide_hbond>
-0.660659341871336

> <r_i_glide_metal>
0

> <r_i_glide_rewards>
-3.2224724986939

> <r_i_glide_evdw>
-40.0482711791992

> <r_i_glide_ecoul>
-9.10371685028076

> <r_i_glide_erotb>
1.05422352836969

> <r_i_glide_esite>
0

> <r_i_glide_emodel>
-74.7965514318231

> <r_i_glide_energy>
-49.15198802948

> <r_i_glide_einternal>
5.08033657073975

> <i_i_glide_confnum>
81

> <i_i_glide_posenum>
144

> <r_i_glide_eff_state_penalty>
0

> <s_user_duplicate_titles>
CHEMBL301_lig539,183860

> <s_m_subgroup_title>
dock_pv

> <s_m_subgroupid>
dock_pv

> <b_m_subgroup_collapsed>
1

$$$$
CHEMBL301_lig331
                    3D
 Schrodinger Suite 2021-1.
 43 46  0  0  1  0            999 V2000
    1.2544   30.3234    8.1984 C   0  0  0  0  0  0
    0.0258   30.3729    8.9760 C   0  0  0  0  0  0
    1.2580   31.5189    7.3760 C   0  0  0  0  0  0
    8.3275   25.1302    6.5004 S   0  0  0  0  0  0
    0.2001   32.2412    7.7760 N   0  0  0  0  0  0
   -0.5899   31.5706    8.6861 C   0  0  0  0  0  0
    2.2404   29.4067    8.1759 C   0  0  0  0  0  0
   -0.5864   29.5185    9.9055 C   0  0  0  0  0  0
   -2.3302   28.9724   11.3760 N   0  0  0  0  0  0
   -0.0865   27.9498   10.5366 S   0  0  0  0  0  0
   -1.5426   27.9438   11.4957 C   0  0  0  0  0  0
   -1.8255   29.8840   10.5034 C   0  0  0  0  0  0
    9.0579   23.8719    6.3181 O   0  0  0  0  0  0
    8.3837   25.8509    7.7758 O   0  0  0  0  0  0
    3.3808   29.3945    7.4075 N   0  0  0  0  0  0
    2.0579   31.8520    6.5098 O   0  0  0  0  0  0
   -1.7969   31.9564    9.2658 C   0  0  0  0  0  0
    6.5090   24.8238    6.0881 C   0  0  0  0  0  0
    8.8578   26.2520    5.2615 N   0  0  1  0  0  0
   -2.4350   31.1093   10.1760 C   0  0  0  0  0  0
    4.1367   28.2614    7.1025 C   0  0  0  0  0  0
    5.6420   26.0230    6.4298 C   0  0  0  0  0  0
    4.4581   27.3188    8.0824 C   0  0  0  0  0  0
    4.5645   28.0834    5.7876 C   0  0  0  0  0  0
    5.3026   26.9539    5.4462 C   0  0  0  0  0  0
    5.2118   26.2016    7.7454 C   0  0  0  0  0  0
    9.0295   25.7802    3.8747 C   0  0  0  0  0  0
    0.0043   33.1607    7.4052 H   0  0  0  0  0  0
    2.1771   28.5459    8.8251 H   0  0  0  0  0  0
   -1.7663   27.1180   12.1554 H   0  0  0  0  0  0
    3.4347   30.1125    6.6904 H   0  0  0  0  0  0
   -2.2501   32.9060    9.0185 H   0  0  0  0  0  0
    6.4470   24.5563    5.0336 H   0  0  0  0  0  0
    6.1972   23.9543    6.6655 H   0  0  0  0  0  0
    8.4827   27.2057    5.3601 H   0  0  0  0  0  0
   -3.3683   31.3971   10.6391 H   0  0  0  0  0  0
    4.1527   27.4522    9.1104 H   0  0  0  0  0  0
    4.3255   28.8141    5.0278 H   0  0  0  0  0  0
    5.6394   26.8240    4.4279 H   0  0  0  0  0  0
    5.4810   25.4938    8.5169 H   0  0  0  0  0  0
    9.5683   26.5354    3.3012 H   0  0  0  0  0  0
    8.0550   25.6394    3.4070 H   0  0  0  0  0  0
    9.5944   24.8477    3.8560 H   0  0  0  0  0  0
  1  2  1  0  0  0
  1  3  1  0  0  0
  1  7  2  0  0  0
  2  6  2  0  0  0
  2  8  1  0  0  0
  3  5  1  0  0  0
  3 16  2  0  0  0
  4 18  1  0  0  0
  4 13  2  0  0  0
  4 14  2  0  0  0
  4 19  1  0  0  0
  5  6  1  0  0  0
  5 28  1  0  0  0
  6 17  1  0  0  0
  7 15  1  0  0  0
  7 29  1  0  0  0
  8 10  1  0  0  0
  8 12  2  0  0  0
  9 12  1  0  0  0
  9 11  2  0  0  0
 10 11  1  0  0  0
 11 30  1  0  0  0
 12 20  1  0  0  0
 15 21  1  0  0  0
 15 31  1  0  0  0
 17 20  2  0  0  0
 17 32  1  0  0  0
 18 22  1  0  0  0
 18 33  1  0  0  0
 18 34  1  0  0  0
 19 27  1  0  0  0
 19 35  1  0  0  0
 20 36  1  0  0  0
 21 23  2  0  0  0
 21 24  1  0  0  0
 22 25  1  0  0  0
 22 26  2  0  0  0
 23 26  1  0  0  0
 23 37  1  0  0  0
 24 25  2  0  0  0
 24 38  1  0  0  0
 25 39  1  0  0  0
 26 40  1  0  0  0
 27 41  1  0  0  0
 27 42  1  0  0  0
 27 43  1  0  0  0
M  END
> <s_m_entry_id>
32628

> <s_m_entry_name>
dock_pv.29

> <s_m_Source_Path>
/home/csk/Desktop/cluster/DUD-E-result/cdk2

> <s_m_Source_File>
dock_pv.maegz

> <i_m_Source_File_Index>
29

> <chembl_id>
CHEMBL1964256

> <chembl_pref_name>
None

> <i_lp_mmshare_version>
53161

> <i_f3d_flags>
0

> <r_lp_tautomer_probability>
0.499999999999422

> <s_lp_Force_Field>
OPLS_2005

> <r_lp_Energy>
38.915904

> <b_lp_Chiralities_Consistent>
1

> <s_lp_Variant>
CHEMBL301_lig331-1

> <s_i_glide_gridfile>
glide-grid_1h00

> <i_i_glide_lignum>
508

> <i_i_glide_rotatable_bonds>
5

> <r_i_docking_score>
-8.72801146982329

> <r_i_glide_ligand_efficiency>
-0.323259684067529

> <r_i_glide_ligand_efficiency_sa>
-0.969779051137177

> <r_i_glide_ligand_efficiency_ln>
-2.03173717765997

> <r_i_glide_gscore>
-8.72801146982329

> <r_i_glide_lipo>
-2.65042101753623

> <r_i_glide_hbond>
-0.820551170893264

> <r_i_glide_metal>
0

> <r_i_glide_rewards>
-2.0386534504345

> <r_i_glide_evdw>
-41.0132637023926

> <r_i_glide_ecoul>
-10.8196897506714

> <r_i_glide_erotb>
0.488950704000988

> <r_i_glide_esite>
-0.0337198872399431

> <r_i_glide_emodel>
-73.7026894986274

> <r_i_glide_energy>
-51.832953453064

> <r_i_glide_einternal>
7.97205352783203

> <i_i_glide_confnum>
15

> <i_i_glide_posenum>
64

> <r_i_glide_eff_state_penalty>
0

> <s_user_duplicate_titles>
CHEMBL301_lig331,226600

> <s_m_subgroup_title>
dock_pv

> <s_m_subgroupid>
dock_pv

> <b_m_subgroup_collapsed>
1

$$$$
CHEMBL301_lig1355
                    3D
 Schrodinger Suite 2021-1.
 49 50  0  0  1  0            999 V2000
    1.5855   26.0643   10.7489 C   0  0  0  0  0  0
    0.4762   26.9638   10.1755 C   0  0  0  0  0  0
   -0.0860   28.0838   11.0918 C   0  0  1  0  0  0
   -1.1868   29.2216   10.1609 S   0  0  0  0  0  0
   -0.2672   30.2947    9.0964 C   0  0  0  0  0  0
    0.9069   29.8340    8.6005 N   0  0  0  0  0  0
    1.6017   30.6523    7.7761 C   0  0  0  0  0  0
    2.8577   30.2520    7.3268 N   0  0  0  0  0  0
    3.4590   28.9998    7.2249 C   0  0  0  0  0  0
    3.6582   28.1740    8.3300 C   0  0  0  0  0  0
    4.2401   26.9220    8.1463 C   0  0  0  0  0  0
    4.6130   26.4999    6.8686 C   0  0  0  0  0  0
    4.4609   27.3516    5.7749 C   0  0  0  0  0  0
    3.8949   28.6068    5.9599 C   0  0  0  0  0  0
    5.2871   24.8607    6.6256 S   0  0  1  0  0  0
    4.4579   23.9690    7.5579 N   0  0  0  0  0  0
    5.4668   24.6055    5.1942 O   0  0  0  0  0  0
    6.9538   24.9076    7.4780 C   0  0  0  0  0  0
    1.2173   31.9024    7.4036 N   0  0  0  0  0  0
    0.0693   32.3688    7.9717 C   0  0  0  0  0  0
   -0.7274   31.5897    8.8150 C   0  0  0  0  0  0
   -2.3417   32.3056    9.5355 Br  0  0  0  0  0  0
   -0.7932   27.6033   12.4047 C   0  0  0  0  0  0
   -1.1536   28.8103   13.2885 C   0  0  0  0  0  0
   -2.0442   26.7336   12.1478 C   0  0  0  0  0  0
    0.0580   26.8079   13.2060 O   0  0  0  0  0  0
    2.0439   25.4731    9.9553 H   0  0  0  0  0  0
    2.3779   26.6510   11.2162 H   0  0  0  0  0  0
    1.2018   25.3558   11.4820 H   0  0  0  0  0  0
   -0.3361   26.3486    9.7865 H   0  0  0  0  0  0
    0.9154   27.4507    9.3125 H   0  0  0  0  0  0
    0.7693   28.6947   11.3868 H   0  0  0  0  0  0
    3.3736   30.9589    6.8066 H   0  0  0  0  0  0
    3.3472   28.4892    9.3154 H   0  0  0  0  0  0
    4.3758   26.2528    8.9762 H   0  0  0  0  0  0
    4.7705   27.0437    4.7860 H   0  0  0  0  0  0
    3.7763   29.2653    5.1127 H   0  0  0  0  0  0
    3.4956   23.8743    7.2532 H   0  0  0  0  0  0
    6.8090   25.1631    8.5274 H   0  0  0  0  0  0
    7.4094   23.9250    7.3759 H   0  0  0  0  0  0
    7.5715   25.6590    6.9874 H   0  0  0  0  0  0
   -0.2169   33.3815    7.7228 H   0  0  0  0  0  0
   -1.9410   29.4148   12.8383 H   0  0  0  0  0  0
   -0.3023   29.4697   13.4451 H   0  0  0  0  0  0
   -1.5420   28.4916   14.2524 H   0  0  0  0  0  0
   -2.8083   27.2794   11.5946 H   0  0  0  0  0  0
   -1.8045   25.8343   11.5805 H   0  0  0  0  0  0
   -2.5032   26.4097   13.0830 H   0  0  0  0  0  0
    0.9364   27.2129   13.2476 H   0  0  0  0  0  0
  1  2  1  0  0  0
  1 27  1  0  0  0
  1 28  1  0  0  0
  1 29  1  0  0  0
  2  3  1  0  0  0
  2 30  1  0  0  0
  2 31  1  0  0  0
  3  4  1  0  0  0
  3 23  1  0  0  0
  3 32  1  0  0  0
  4  5  1  0  0  0
  5  6  2  0  0  0
  5 21  1  0  0  0
  6  7  1  0  0  0
  7  8  1  0  0  0
  7 19  2  0  0  0
  8  9  1  0  0  0
  8 33  1  0  0  0
  9 10  2  0  0  0
  9 14  1  0  0  0
 10 11  1  0  0  0
 10 34  1  0  0  0
 11 12  2  0  0  0
 11 35  1  0  0  0
 12 13  1  0  0  0
 12 15  1  0  0  0
 13 14  2  0  0  0
 13 36  1  0  0  0
 14 37  1  0  0  0
 15 16  2  0  0  0
 15 17  2  0  0  0
 15 18  1  0  0  0
 16 38  1  0  0  0
 18 39  1  0  0  0
 18 40  1  0  0  0
 18 41  1  0  0  0
 19 20  1  0  0  0
 20 21  2  0  0  0
 20 42  1  0  0  0
 21 22  1  0  0  0
 23 24  1  0  0  0
 23 25  1  0  0  0
 23 26  1  0  0  0
 24 43  1  0  0  0
 24 44  1  0  0  0
 24 45  1  0  0  0
 25 46  1  0  0  0
 25 47  1  0  0  0
 25 48  1  0  0  0
 26 49  1  0  0  0
M  END
> <s_m_entry_id>
32629

> <s_m_entry_name>
dock_pv.30

> <s_m_Source_Path>
/home/csk/Desktop/cluster/DUD-E-result/cdk2

> <s_m_Source_File>
dock_pv.maegz

> <i_m_Source_File_Index>
30

> <chembl_id>
CHEMBL3648105

> <chembl_pref_name>
None

> <i_lp_mmshare_version>
53161

> <i_f3d_flags>
0

> <r_lp_tautomer_probability>
0.999999987636

> <s_lp_Force_Field>
OPLS_2005

> <r_lp_Energy>
1.867994

> <b_lp_Chiralities_Consistent>
1

> <s_lp_Variant>
CHEMBL301_lig1355-4

> <s_i_glide_gridfile>
glide-grid_1h00

> <i_i_glide_lignum>
1809

> <i_i_glide_rotatable_bonds>
8

> <r_i_docking_score>
-8.72577642335373

> <r_i_glide_ligand_efficiency>
-0.335606785513605

> <r_i_glide_ligand_efficiency_sa>
-0.994233781535121

> <r_i_glide_ligand_efficiency_ln>
-2.04921996141688

> <r_i_glide_gscore>
-8.72577642335373

> <r_i_glide_lipo>
-3.01868414991805

> <r_i_glide_hbond>
-0.804332473780924

> <r_i_glide_metal>
0

> <r_i_glide_rewards>
-1.79891979327153

> <r_i_glide_evdw>
-35.9968643188477

> <r_i_glide_ecoul>
-11.8708181381226

> <r_i_glide_erotb>
0.476625930277535

> <r_i_glide_esite>
0

> <r_i_glide_emodel>
-71.3417556788995

> <r_i_glide_energy>
-47.8676824569702

> <r_i_glide_einternal>
3.77785849571228

> <i_i_glide_confnum>
6

> <i_i_glide_posenum>
27

> <r_i_glide_eff_state_penalty>
0

> <s_user_duplicate_titles>
CHEMBL301_lig1355

> <s_m_subgroup_title>
dock_pv

> <s_m_subgroupid>
dock_pv

> <b_m_subgroup_collapsed>
1

$$$$
CHEMBL301_lig1402
                    3D
 Schrodinger Suite 2021-1.
 46 47  0  0  1  0            999 V2000
   -1.1255   29.4449   13.0882 C   0  0  0  0  0  0
    0.1435   29.1162   12.2816 C   0  0  0  0  0  0
   -0.0815   28.3262   10.9730 C   0  0  2  0  0  0
   -1.3011   29.1820    9.9258 S   0  0  0  0  0  0
   -0.4045   30.3679    8.9857 C   0  0  0  0  0  0
    0.6522   29.8817    8.2991 N   0  0  0  0  0  0
    1.3555   30.7463    7.5358 C   0  0  0  0  0  0
    2.4579   30.2564    6.8313 N   0  0  0  0  0  0
    3.2623   29.1239    7.0205 C   0  0  0  0  0  0
    3.9705   28.6512    5.9178 C   0  0  0  0  0  0
    4.8343   27.5692    6.0419 C   0  0  0  0  0  0
    5.0077   26.9605    7.2851 C   0  0  0  0  0  0
    4.3223   27.4534    8.4006 C   0  0  0  0  0  0
    3.4550   28.5347    8.2710 C   0  0  0  0  0  0
    6.0702   25.5174    7.4273 S   0  0  1  0  0  0
    7.0145   25.8599    8.5759 N   0  0  0  0  0  0
    5.2450   24.3075    7.3754 O   0  0  0  0  0  0
    7.2603   25.5483    5.9713 C   0  0  0  0  0  0
    1.0828   32.0721    7.4073 N   0  0  0  0  0  0
    0.0569   32.5514    8.1725 C   0  0  0  0  0  0
   -0.7425   31.7269    8.9706 C   0  0  0  0  0  0
   -2.1842   32.4603    9.9815 Br  0  0  0  0  0  0
   -0.3287   26.7988   11.1210 C   0  0  2  0  0  0
   -1.5717   26.3795   11.9233 C   0  0  0  0  0  0
    0.8080   26.1579   11.6733 O   0  0  0  0  0  0
   -0.9226   30.2518   13.7761 H   0  0  0  0  0  0
   -1.9420   29.8044   12.4669 H   0  0  0  0  0  0
   -1.4946   28.6024   13.6688 H   0  0  0  0  0  0
    0.8563   28.5992   12.9183 H   0  0  0  0  0  0
    0.6269   30.0605   12.0252 H   0  0  0  0  0  0
    0.8589   28.3990   10.4263 H   0  0  0  0  0  0
    2.9554   30.9648    6.3038 H   0  0  0  0  0  0
    3.8613   29.1310    4.9602 H   0  0  0  0  0  0
    5.3591   27.2179    5.1672 H   0  0  0  0  0  0
    4.4548   27.0137    9.3755 H   0  0  0  0  0  0
    2.9504   28.9148    9.1455 H   0  0  0  0  0  0
    6.5278   25.8579    9.4756 H   0  0  0  0  0  0
    7.7297   26.5305    5.9183 H   0  0  0  0  0  0
    8.0184   24.7835    6.1307 H   0  0  0  0  0  0
    6.7116   25.3368    5.0550 H   0  0  0  0  0  0
   -0.1375   33.6126    8.1108 H   0  0  0  0  0  0
   -0.4420   26.3935   10.1138 H   0  0  0  0  0  0
   -2.4514   26.9499   11.6245 H   0  0  0  0  0  0
   -1.4306   26.5123   12.9946 H   0  0  0  0  0  0
   -1.8004   25.3259   11.7597 H   0  0  0  0  0  0
    1.1569   26.6917   12.3953 H   0  0  0  0  0  0
  1  2  1  0  0  0
  1 26  1  0  0  0
  1 27  1  0  0  0
  1 28  1  0  0  0
  2  3  1  0  0  0
  2 29  1  0  0  0
  2 30  1  0  0  0
  3  4  1  0  0  0
  3 23  1  0  0  0
  3 31  1  0  0  0
  4  5  1  0  0  0
  5  6  2  0  0  0
  5 21  1  0  0  0
  6  7  1  0  0  0
  7  8  1  0  0  0
  7 19  2  0  0  0
  8  9  1  0  0  0
  8 32  1  0  0  0
  9 10  2  0  0  0
  9 14  1  0  0  0
 10 11  1  0  0  0
 10 33  1  0  0  0
 11 12  2  0  0  0
 11 34  1  0  0  0
 12 13  1  0  0  0
 12 15  1  0  0  0
 13 14  2  0  0  0
 13 35  1  0  0  0
 14 36  1  0  0  0
 15 16  2  0  0  0
 15 17  2  0  0  0
 15 18  1  0  0  0
 16 37  1  0  0  0
 18 38  1  0  0  0
 18 39  1  0  0  0
 18 40  1  0  0  0
 19 20  1  0  0  0
 20 21  2  0  0  0
 20 41  1  0  0  0
 21 22  1  0  0  0
 23 24  1  0  0  0
 23 25  1  0  0  0
 23 42  1  0  0  0
 24 43  1  0  0  0
 24 44  1  0  0  0
 24 45  1  0  0  0
 25 46  1  0  0  0
M  END
> <s_m_entry_id>
32630

> <s_m_entry_name>
dock_pv.31

> <s_m_Source_Path>
/home/csk/Desktop/cluster/DUD-E-result/cdk2

> <s_m_Source_File>
dock_pv.maegz

> <i_m_Source_File_Index>
31

> <chembl_id>
CHEMBL3648103

> <chembl_pref_name>
None

> <i_lp_mmshare_version>
53161

> <i_f3d_flags>
0

> <r_lp_tautomer_probability>
0.999999987636

> <s_lp_Force_Field>
OPLS_2005

> <r_lp_Energy>
3.519601

> <b_lp_Chiralities_Consistent>
1

> <s_lp_Variant>
CHEMBL301_lig1402-3

> <s_i_glide_gridfile>
glide-grid_1h00

> <i_i_glide_lignum>
1906

> <i_i_glide_rotatable_bonds>
8

> <r_i_docking_score>
-8.72145574707499

> <r_i_glide_ligand_efficiency>
-0.348858229883

> <r_i_glide_ligand_efficiency_sa>
-1.02006765120494

> <r_i_glide_ligand_efficiency_ln>
-2.06724637299498

> <r_i_glide_gscore>
-8.72145574707499

> <r_i_glide_lipo>
-3.0337388357647

> <r_i_glide_hbond>
-0.656961828494627

> <r_i_glide_metal>
0

> <r_i_glide_rewards>
-1.77100250185644

> <r_i_glide_evdw>
-38.5420455932617

> <r_i_glide_ecoul>
-12.2462005615234

> <r_i_glide_erotb>
0.504279782932378

> <r_i_glide_esite>
0

> <r_i_glide_emodel>
-73.127171501302

> <r_i_glide_energy>
-50.7882461547852

> <r_i_glide_einternal>
6.6432147026062

> <i_i_glide_confnum>
46

> <i_i_glide_posenum>
32

> <r_i_glide_eff_state_penalty>
0

> <s_user_duplicate_titles>
CHEMBL301_lig1402

> <s_m_subgroup_title>
dock_pv

> <s_m_subgroupid>
dock_pv

> <b_m_subgroup_collapsed>
1

$$$$
CHEMBL301_lig913
                    3D
 Schrodinger Suite 2021-1.
 30 34  0  0  1  0            999 V2000
    2.5205   26.8357   10.0853 C   0  0  0  0  0  0
    0.3356   27.7733   10.6472 C   0  0  0  0  0  0
    1.3034   26.7986   10.7741 C   0  0  0  0  0  0
    0.8580   25.8404   11.6306 O   0  0  0  0  0  0
   -0.2847   26.3828   12.2328 C   0  0  0  0  0  0
   -0.7307   27.4314   11.4198 O   0  0  0  0  0  0
    2.7329   27.9213    9.2257 C   0  0  0  0  0  0
    2.1297   29.8047    8.1535 C   0  0  0  0  0  0
    3.4079   29.4520    7.7212 N   0  0  0  0  0  0
    3.8605   28.3249    8.3231 C   0  0  0  0  0  0
    1.7458   28.8802    9.0883 C   0  0  0  0  0  0
    0.5160   28.8854    9.7760 C   0  0  0  0  0  0
    1.2616   30.8432    7.8307 C   0  0  0  0  0  0
    0.0521   30.9868    8.5760 C   0  0  0  0  0  0
   -0.3510   29.9814    9.5275 C   0  0  0  0  0  0
   -1.5911   30.1351   10.2101 C   0  0  0  0  0  0
   -2.3809   31.2539    9.9726 C   0  0  0  0  0  0
   -1.9490   32.2520    9.1155 C   0  0  0  0  0  0
   -0.7420   32.1443    8.4406 C   0  0  0  0  0  0
    4.9482   27.7837    8.1443 O   0  0  0  0  0  0
   -3.5975   31.3990   10.5760 O   0  0  0  0  0  0
    3.2580   26.0575   10.2076 H   0  0  0  0  0  0
   -0.0215   26.7760   13.2174 H   0  0  0  0  0  0
   -1.0617   25.6273   12.3525 H   0  0  0  0  0  0
    3.9578   29.9838    7.0569 H   0  0  0  0  0  0
    1.5401   31.6000    7.1122 H   0  0  0  0  0  0
   -1.9335   29.3915   10.9113 H   0  0  0  0  0  0
   -2.5670   33.1220    8.9760 H   0  0  0  0  0  0
   -0.4236   32.9355    7.7760 H   0  0  0  0  0  0
   -3.6692   31.0520   11.4920 H   0  0  0  0  0  0
  1  7  1  0  0  0
  1  3  2  0  0  0
  1 22  1  0  0  0
  2  3  1  0  0  0
  2  6  1  0  0  0
  2 12  2  0  0  0
  3  4  1  0  0  0
  4  5  1  0  0  0
  5  6  1  0  0  0
  5 23  1  0  0  0
  5 24  1  0  0  0
  7 10  1  0  0  0
  7 11  2  0  0  0
  8  9  1  0  0  0
  8 13  2  0  0  0
  8 11  1  0  0  0
  9 10  1  0  0  0
  9 25  1  0  0  0
 10 20  2  0  0  0
 11 12  1  0  0  0
 12 15  1  0  0  0
 13 14  1  0  0  0
 13 26  1  0  0  0
 14 15  2  0  0  0
 14 19  1  0  0  0
 15 16  1  0  0  0
 16 17  2  0  0  0
 16 27  1  0  0  0
 17 18  1  0  0  0
 17 21  1  0  0  0
 18 19  2  0  0  0
 18 28  1  0  0  0
 19 29  1  0  0  0
 21 30  1  0  0  0
M  END
> <s_m_entry_id>
32631

> <s_m_entry_name>
dock_pv.32

> <s_m_Source_Path>
/home/csk/Desktop/cluster/DUD-E-result/cdk2

> <s_m_Source_File>
dock_pv.maegz

> <i_m_Source_File_Index>
32

> <chembl_id>
CHEMBL607579

> <chembl_pref_name>
None

> <i_lp_mmshare_version>
53161

> <i_f3d_flags>
0

> <r_lp_tautomer_probability>
1

> <s_lp_Force_Field>
OPLS_2005

> <r_lp_Energy>
64.784696

> <b_lp_Chiralities_Consistent>
1

> <s_lp_Variant>
CHEMBL301_lig913-1

> <s_i_glide_gridfile>
glide-grid_1h00

> <i_i_glide_lignum>
1287

> <i_i_glide_rotatable_bonds>
1

> <r_i_docking_score>
-8.70652780132382

> <r_i_glide_ligand_efficiency>
-0.414596561967801

> <r_i_glide_ligand_efficiency_sa>
-1.14384047709664

> <r_i_glide_ligand_efficiency_ln>
-2.15267140568134

> <r_i_glide_gscore>
-8.70652780132382

> <r_i_glide_lipo>
-2.5562448708593

> <r_i_glide_hbond>
-0.456

> <r_i_glide_metal>
0

> <r_i_glide_rewards>
-3.02034737405277

> <r_i_glide_evdw>
-28.5022296905518

> <r_i_glide_ecoul>
-8.32549381256104

> <r_i_glide_erotb>
0

> <r_i_glide_esite>
0

> <r_i_glide_emodel>
-56.0588165943737

> <r_i_glide_energy>
-36.8277235031128

> <r_i_glide_einternal>
1.97017645835876

> <i_i_glide_confnum>
1

> <i_i_glide_posenum>
10

> <r_i_glide_eff_state_penalty>
0

> <s_user_duplicate_titles>
CHEMBL301_lig913

> <s_m_subgroup_title>
dock_pv

> <s_m_subgroupid>
dock_pv

> <b_m_subgroup_collapsed>
1

$$$$
CHEMBL301_lig521
                    3D
 Schrodinger Suite 2021-1.
 47 50  0  0  1  0            999 V2000
   -1.5116   28.1107   10.8362 N   0  0  0  0  0  0
    4.5407   25.0048    6.4748 C   0  0  0  0  0  0
    4.5214   25.1659    5.0885 C   0  0  0  0  0  0
    4.6027   26.4441    4.5296 C   0  0  0  0  0  0
    4.6988   27.5590    5.3638 C   0  0  0  0  0  0
    4.7243   27.4024    6.7529 C   0  0  0  0  0  0
    4.6457   26.1198    7.3072 C   0  0  0  0  0  0
    4.7764   28.6282    7.6501 C   0  0  0  0  0  0
    3.3746   29.0391    8.1122 C   0  0  0  0  0  0
    2.9101   28.4981    9.1125 O   0  0  0  0  0  0
    2.7638   29.9955    7.3825 N   0  0  0  0  0  0
    1.5723   30.6520    7.6745 C   0  0  0  0  0  0
    0.2989   32.3678    7.7761 N   0  0  0  0  0  0
    1.3981   31.8581    7.1996 N   0  0  0  0  0  0
   -0.3405   31.4444    8.5823 C   0  0  0  0  0  0
    0.4573   30.2702    8.5164 C   0  0  0  0  0  0
    0.0336   29.1385    9.2340 C   0  0  0  0  0  0
   -1.1006   29.2076   10.0496 C   0  0  0  0  0  0
   -1.8320   30.3958   10.1197 C   0  0  0  0  0  0
   -1.4927   31.5284    9.3732 C   0  0  0  0  0  0
   -1.4503   26.7632   10.2690 C   0  0  0  0  0  0
   -0.1126   26.0910   10.6515 C   0  0  0  0  0  0
    0.5529   26.9055   11.7764 C   0  0  0  0  0  0
   -0.8430   27.9501   12.4659 S   0  0  0  0  0  0
   -0.3422   29.2299   12.9757 O   0  0  0  0  0  0
   -1.6376   27.0481   13.3077 O   0  0  0  0  0  0
    4.6178   26.6152    3.0241 C   0  0  0  0  0  0
    4.4691   24.0164    6.9038 H   0  0  0  0  0  0
    4.4444   24.2991    4.4473 H   0  0  0  0  0  0
    4.7585   28.5490    4.9336 H   0  0  0  0  0  0
    4.6485   25.9917    8.3818 H   0  0  0  0  0  0
    5.3914   28.4218    8.5276 H   0  0  0  0  0  0
    5.2565   29.4520    7.1220 H   0  0  0  0  0  0
    3.3346   30.4295    6.6659 H   0  0  0  0  0  0
    0.0231   33.3225    7.5816 H   0  0  0  0  0  0
    0.5919   28.2224    9.1775 H   0  0  0  0  0  0
   -2.6954   30.4429   10.7716 H   0  0  0  0  0  0
   -2.0815   32.4322    9.4369 H   0  0  0  0  0  0
   -2.3257   26.1508   10.4932 H   0  0  0  0  0  0
   -1.4734   26.8095    9.1785 H   0  0  0  0  0  0
   -0.3071   25.0665   10.9702 H   0  0  0  0  0  0
    0.5509   26.0035    9.7887 H   0  0  0  0  0  0
    0.9360   26.2717   12.5749 H   0  0  0  0  0  0
    1.3540   27.5622   11.4317 H   0  0  0  0  0  0
    5.0370   27.5753    2.7275 H   0  0  0  0  0  0
    5.2516   25.8496    2.5760 H   0  0  0  0  0  0
    3.6148   26.5102    2.6103 H   0  0  0  0  0  0
  1 18  1  0  0  0
  1 21  1  0  0  0
  1 24  1  0  0  0
  2  3  2  0  0  0
  2  7  1  0  0  0
  2 28  1  0  0  0
  3  4  1  0  0  0
  3 29  1  0  0  0
  4  5  2  0  0  0
  4 27  1  0  0  0
  5  6  1  0  0  0
  5 30  1  0  0  0
  6  8  1  0  0  0
  6  7  2  0  0  0
  7 31  1  0  0  0
  8  9  1  0  0  0
  8 32  1  0  0  0
  8 33  1  0  0  0
  9 10  2  0  0  0
  9 11  1  0  0  0
 11 12  1  0  0  0
 11 34  1  0  0  0
 12 14  2  0  0  0
 12 16  1  0  0  0
 13 15  1  0  0  0
 13 14  1  0  0  0
 13 35  1  0  0  0
 15 16  2  0  0  0
 15 20  1  0  0  0
 16 17  1  0  0  0
 17 18  2  0  0  0
 17 36  1  0  0  0
 18 19  1  0  0  0
 19 20  2  0  0  0
 19 37  1  0  0  0
 20 38  1  0  0  0
 21 22  1  0  0  0
 21 39  1  0  0  0
 21 40  1  0  0  0
 22 23  1  0  0  0
 22 41  1  0  0  0
 22 42  1  0  0  0
 23 24  1  0  0  0
 23 43  1  0  0  0
 23 44  1  0  0  0
 24 25  2  0  0  0
 24 26  2  0  0  0
 27 45  1  0  0  0
 27 46  1  0  0  0
 27 47  1  0  0  0
M  END
> <s_m_entry_id>
32632

> <s_m_entry_name>
dock_pv.33

> <s_m_Source_Path>
/home/csk/Desktop/cluster/DUD-E-result/cdk2

> <s_m_Source_File>
dock_pv.maegz

> <i_m_Source_File_Index>
33

> <chembl_id>
CHEMBL403605

> <chembl_pref_name>
None

> <i_lp_mmshare_version>
53161

> <i_f3d_flags>
0

> <r_lp_tautomer_probability>
0.980392156862745

> <s_lp_Force_Field>
OPLS_2005

> <r_lp_Energy>
20.353879

> <b_lp_Chiralities_Consistent>
1

> <s_lp_Variant>
CHEMBL301_lig521-1

> <s_i_glide_gridfile>
glide-grid_1h00

> <i_i_glide_lignum>
726

> <i_i_glide_rotatable_bonds>
5

> <r_i_docking_score>
-8.70063634091793

> <r_i_glide_ligand_efficiency>
-0.322245790404368

> <r_i_glide_ligand_efficiency_sa>
-0.966737370151034

> <r_i_glide_ligand_efficiency_ln>
-2.02536469896507

> <r_i_glide_gscore>
-8.70063634091793

> <r_i_glide_lipo>
-2.92047254261776

> <r_i_glide_hbond>
-0.414436141928561

> <r_i_glide_metal>
0

> <r_i_glide_rewards>
-2.72294517941471

> <r_i_glide_evdw>
-44.2969970703125

> <r_i_glide_ecoul>
-7.00140333175659

> <r_i_glide_erotb>
0.657719900270143

> <r_i_glide_esite>
-0.0354420239479273

> <r_i_glide_emodel>
-71.8890887640108

> <r_i_glide_energy>
-51.2984004020691

> <r_i_glide_einternal>
9.42060947418213

> <i_i_glide_confnum>
116

> <i_i_glide_posenum>
392

> <r_i_glide_eff_state_penalty>
0

> <s_user_duplicate_titles>
CHEMBL301_lig521,424705

> <s_m_subgroup_title>
dock_pv

> <s_m_subgroupid>
dock_pv

> <b_m_subgroup_collapsed>
1

$$$$
CHEMBL301_lig529
                    3D
 Schrodinger Suite 2021-1.
 44 47  0  0  1  0            999 V2000
   -1.5125   27.9560   10.8806 N   0  0  0  0  0  0
    4.4816   25.1670    5.8747 C   0  0  0  0  0  0
    4.4346   25.5106    4.5248 C   0  0  0  0  0  0
    4.4580   26.8451    4.1299 C   0  0  0  0  0  0
    4.5180   27.8481    5.0931 C   0  0  0  0  0  0
    4.5776   27.5111    6.4486 C   0  0  0  0  0  0
    4.5576   26.1689    6.8392 C   0  0  0  0  0  0
    4.6527   28.6110    7.4987 C   0  0  0  0  0  0
    3.2720   29.0177    8.0371 C   0  0  0  0  0  0
    2.8572   28.4503    9.0441 O   0  0  0  0  0  0
    2.6305   30.0091    7.3800 N   0  0  0  0  0  0
    1.4495   30.6525    7.7474 C   0  0  0  0  0  0
    0.1545   32.3506    7.9600 N   0  0  0  0  0  0
    1.2581   31.8859    7.3511 N   0  0  0  0  0  0
   -0.4519   31.3813    8.7307 C   0  0  0  0  0  0
    0.3576   30.2229    8.5912 C   0  0  0  0  0  0
   -0.0366   29.0531    9.2615 C   0  0  0  0  0  0
   -1.1504   29.0759   10.1060 C   0  0  0  0  0  0
   -1.8993   30.2465   10.2414 C   0  0  0  0  0  0
   -1.5907   31.4135    9.5395 C   0  0  0  0  0  0
   -1.4070   26.6165   10.3035 C   0  0  0  0  0  0
   -0.0358   25.9998   10.6595 C   0  0  0  0  0  0
    0.6200   26.8428   11.7698 C   0  0  0  0  0  0
   -0.8026   27.8272   12.4914 S   0  0  0  0  0  0
   -0.3421   29.1319   12.9760 O   0  0  0  0  0  0
   -1.5446   26.9024   13.3565 O   0  0  0  0  0  0
    4.4578   24.1294    6.1711 H   0  0  0  0  0  0
    4.3768   24.7360    3.7720 H   0  0  0  0  0  0
    4.4215   27.0965    3.0804 H   0  0  0  0  0  0
    4.5357   28.8851    4.7884 H   0  0  0  0  0  0
    4.5936   25.9054    7.8872 H   0  0  0  0  0  0
    5.2673   28.2736    8.3355 H   0  0  0  0  0  0
    5.1709   29.4694    7.0797 H   0  0  0  0  0  0
    3.1592   30.4641    6.6457 H   0  0  0  0  0  0
   -0.1409   33.3064    7.8118 H   0  0  0  0  0  0
    0.5365   28.1506    9.1544 H   0  0  0  0  0  0
   -2.7447   30.2553   10.9169 H   0  0  0  0  0  0
   -2.1908   32.3055    9.6572 H   0  0  0  0  0  0
   -2.2568   25.9687   10.5289 H   0  0  0  0  0  0
   -1.4477   26.6699    9.2148 H   0  0  0  0  0  0
   -0.1793   24.9673   10.9828 H   0  0  0  0  0  0
    0.6116   25.9393    9.7814 H   0  0  0  0  0  0
    1.0581   26.2380   12.5606 H   0  0  0  0  0  0
    1.3774   27.5361   11.4017 H   0  0  0  0  0  0
  1 18  1  0  0  0
  1 21  1  0  0  0
  1 24  1  0  0  0
  2  7  1  0  0  0
  2  3  2  0  0  0
  2 27  1  0  0  0
  3  4  1  0  0  0
  3 28  1  0  0  0
  4  5  2  0  0  0
  4 29  1  0  0  0
  5  6  1  0  0  0
  5 30  1  0  0  0
  6  8  1  0  0  0
  6  7  2  0  0  0
  7 31  1  0  0  0
  8  9  1  0  0  0
  8 32  1  0  0  0
  8 33  1  0  0  0
  9 10  2  0  0  0
  9 11  1  0  0  0
 11 12  1  0  0  0
 11 34  1  0  0  0
 12 14  2  0  0  0
 12 16  1  0  0  0
 13 15  1  0  0  0
 13 14  1  0  0  0
 13 35  1  0  0  0
 15 16  2  0  0  0
 15 20  1  0  0  0
 16 17  1  0  0  0
 17 18  2  0  0  0
 17 36  1  0  0  0
 18 19  1  0  0  0
 19 20  2  0  0  0
 19 37  1  0  0  0
 20 38  1  0  0  0
 21 22  1  0  0  0
 21 39  1  0  0  0
 21 40  1  0  0  0
 22 23  1  0  0  0
 22 41  1  0  0  0
 22 42  1  0  0  0
 23 24  1  0  0  0
 23 43  1  0  0  0
 23 44  1  0  0  0
 24 25  2  0  0  0
 24 26  2  0  0  0
M  END
> <s_m_entry_id>
32633

> <s_m_entry_name>
dock_pv.34

> <s_m_Source_Path>
/home/csk/Desktop/cluster/DUD-E-result/cdk2

> <s_m_Source_File>
dock_pv.maegz

> <i_m_Source_File_Index>
34

> <chembl_id>
CHEMBL255255

> <chembl_pref_name>
None

> <i_lp_mmshare_version>
53161

> <i_f3d_flags>
0

> <r_lp_tautomer_probability>
0.980392156862745

> <s_lp_Force_Field>
OPLS_2005

> <r_lp_Energy>
17.385787

> <b_lp_Chiralities_Consistent>
1

> <s_lp_Variant>
CHEMBL301_lig529-1

> <s_i_glide_gridfile>
glide-grid_1h00

> <i_i_glide_lignum>
742

> <i_i_glide_rotatable_bonds>
5

> <r_i_docking_score>
-8.68745466210375

> <r_i_glide_ligand_efficiency>
-0.334132871619375

> <r_i_glide_ligand_efficiency_sa>
-0.989867317423035

> <r_i_glide_ligand_efficiency_ln>
-2.04022022153128

> <r_i_glide_gscore>
-8.68745466210375

> <r_i_glide_lipo>
-2.92682099192621

> <r_i_glide_hbond>
-0.32

> <r_i_glide_metal>
0

> <r_i_glide_rewards>
-2.8461672092487

> <r_i_glide_evdw>
-43.3514175415039

> <r_i_glide_ecoul>
-6.44647312164307

> <r_i_glide_erotb>
0.562383029898451

> <r_i_glide_esite>
-0.0223076455056335

> <r_i_glide_emodel>
-70.14877513357

> <r_i_glide_energy>
-49.797890663147

> <r_i_glide_einternal>
9.21182823181152

> <i_i_glide_confnum>
62

> <i_i_glide_posenum>
359

> <r_i_glide_eff_state_penalty>
0

> <s_user_duplicate_titles>
CHEMBL301_lig529,424686

> <s_m_subgroup_title>
dock_pv

> <s_m_subgroupid>
dock_pv

> <b_m_subgroup_collapsed>
1

$$$$
CHEMBL301_lig312
                    3D
 Schrodinger Suite 2021-1.
 71 74  0  0  1  0            999 V2000
    1.1946   30.3970    8.1398 C   0  0  0  0  0  0
    6.6210   24.7547    5.8224 S   0  0  0  0  0  0
   -0.0173   30.4550    8.9380 C   0  0  0  0  0  0
    1.2273   31.6306    7.3764 C   0  0  0  0  0  0
    0.1699   32.3506    7.7816 N   0  0  0  0  0  0
   -0.6218   31.6666    8.6802 C   0  0  0  0  0  0
    2.1523   29.4520    8.0532 C   0  0  0  0  0  0
   -0.6237   29.5904    9.8581 C   0  0  0  0  0  0
   -2.3420   29.0406   11.3502 N   0  0  0  0  0  0
    5.3939   23.4770    5.6927 N   0  0  1  0  0  0
    5.6755   26.2058    6.2613 C   0  0  0  0  0  0
   -0.1281   28.0054   10.4511 S   0  0  0  0  0  0
   -1.5654   28.0018   11.4359 C   0  0  0  0  0  0
   -1.8488   29.9589   10.4800 C   0  0  0  0  0  0
    7.2080   24.9758    4.4962 O   0  0  0  0  0  0
    7.4714   24.4419    6.9759 O   0  0  0  0  0  0
    3.2586   29.4518    7.2404 N   0  0  0  0  0  0
    2.0570   31.9997    6.5632 O   0  0  0  0  0  0
   -1.8192   32.0525    9.2775 C   0  0  0  0  0  0
   -2.4553   31.1917   10.1766 C   0  0  0  0  0  0
    5.2552   27.0903    5.2683 C   0  0  0  0  0  0
    5.3226   26.4134    7.5976 C   0  0  0  0  0  0
    4.0795   28.3658    6.9428 C   0  0  0  0  0  0
    4.6346   23.1970    6.9353 C   0  0  0  0  0  0
    4.5106   27.4867    7.9371 C   0  0  0  0  0  0
    4.4614   28.1803    5.6152 C   0  0  0  0  0  0
    3.6573   21.6575    8.4101 O   0  0  0  0  0  0
   -1.0129   24.9083   14.6065 O   0  0  0  0  0  0
    0.0490   23.1790   12.5355 O   0  0  0  0  0  0
    2.8580   21.3438   11.0477 O   0  0  0  0  0  0
    4.6262   23.3882    4.4281 C   0  0  0  0  0  0
    4.3540   21.7138    7.1755 C   0  0  0  0  0  0
   -1.7449   24.5193   13.4438 C   0  0  0  0  0  0
    0.9768   22.8638   11.5053 C   0  0  0  0  0  0
    2.3785   20.4588   10.0346 C   0  0  0  0  0  0
   -0.8536   24.2296   12.2182 C   0  0  0  0  0  0
    3.4071   20.3500    8.9022 C   0  0  0  0  0  0
    1.8821   21.7266   12.0138 C   0  0  0  0  0  0
   -0.4266   26.2026   14.5526 C   0  0  0  0  0  0
   -0.0013   33.2892    7.4497 H   0  0  0  0  0  0
    2.0896   28.5603    8.6602 H   0  0  0  0  0  0
   -1.7933   27.1713   12.0845 H   0  0  0  0  0  0
    3.3484   30.2164    6.5774 H   0  0  0  0  0  0
   -2.2649   33.0120    9.0552 H   0  0  0  0  0  0
   -3.3802   31.4769   10.6573 H   0  0  0  0  0  0
    5.5357   26.9347    4.2358 H   0  0  0  0  0  0
    5.6586   25.7410    8.3748 H   0  0  0  0  0  0
    5.2335   23.5374    7.7760 H   0  0  0  0  0  0
    3.7226   23.7976    6.9426 H   0  0  0  0  0  0
    4.2363   27.6341    8.9723 H   0  0  0  0  0  0
    4.1360   28.8695    4.8486 H   0  0  0  0  0  0
    4.1461   22.4133    4.3357 H   0  0  0  0  0  0
    3.8735   24.1780    4.3893 H   0  0  0  0  0  0
    5.2956   23.5212    3.5765 H   0  0  0  0  0  0
    3.7512   21.2866    6.3726 H   0  0  0  0  0  0
    5.2896   21.1532    7.2259 H   0  0  0  0  0  0
   -2.5075   25.2618   13.2058 H   0  0  0  0  0  0
   -2.2894   23.6091   13.6989 H   0  0  0  0  0  0
    1.5871   23.7383   11.2734 H   0  0  0  0  0  0
    0.4581   22.5753   10.5873 H   0  0  0  0  0  0
    1.4361   20.8110    9.6117 H   0  0  0  0  0  0
    2.1879   19.4743   10.4671 H   0  0  0  0  0  0
   -0.3041   25.1254   11.9260 H   0  0  0  0  0  0
   -1.4789   23.9453   11.3689 H   0  0  0  0  0  0
    3.0080   19.7088    8.1155 H   0  0  0  0  0  0
    4.3355   19.9025    9.2618 H   0  0  0  0  0  0
    1.2952   20.8680   12.3490 H   0  0  0  0  0  0
    2.4196   22.0802   12.8946 H   0  0  0  0  0  0
    0.0583   26.4140   15.5046 H   0  0  0  0  0  0
    0.3336   26.2774   13.7749 H   0  0  0  0  0  0
   -1.1791   26.9754   14.3890 H   0  0  0  0  0  0
  1  3  1  0  0  0
  1  4  1  0  0  0
  1  7  2  0  0  0
  2 11  1  0  0  0
  2 10  1  0  0  0
  2 15  2  0  0  0
  2 16  2  0  0  0
  3  6  2  0  0  0
  3  8  1  0  0  0
  4  5  1  0  0  0
  4 18  2  0  0  0
  5  6  1  0  0  0
  5 40  1  0  0  0
  6 19  1  0  0  0
  7 17  1  0  0  0
  7 41  1  0  0  0
  8 12  1  0  0  0
  8 14  2  0  0  0
  9 14  1  0  0  0
  9 13  2  0  0  0
 10 24  1  0  0  0
 10 31  1  0  0  0
 11 21  2  0  0  0
 11 22  1  0  0  0
 12 13  1  0  0  0
 13 42  1  0  0  0
 14 20  1  0  0  0
 17 23  1  0  0  0
 17 43  1  0  0  0
 19 20  2  0  0  0
 19 44  1  0  0  0
 20 45  1  0  0  0
 21 26  1  0  0  0
 21 46  1  0  0  0
 22 25  2  0  0  0
 22 47  1  0  0  0
 23 25  1  0  0  0
 23 26  2  0  0  0
 24 32  1  0  0  0
 24 48  1  0  0  0
 24 49  1  0  0  0
 25 50  1  0  0  0
 26 51  1  0  0  0
 27 32  1  0  0  0
 27 37  1  0  0  0
 28 33  1  0  0  0
 28 39  1  0  0  0
 29 34  1  0  0  0
 29 36  1  0  0  0
 30 35  1  0  0  0
 30 38  1  0  0  0
 31 52  1  0  0  0
 31 53  1  0  0  0
 31 54  1  0  0  0
 32 55  1  0  0  0
 32 56  1  0  0  0
 33 36  1  0  0  0
 33 57  1  0  0  0
 33 58  1  0  0  0
 34 38  1  0  0  0
 34 59  1  0  0  0
 34 60  1  0  0  0
 35 37  1  0  0  0
 35 61  1  0  0  0
 35 62  1  0  0  0
 36 63  1  0  0  0
 36 64  1  0  0  0
 37 65  1  0  0  0
 37 66  1  0  0  0
 38 67  1  0  0  0
 38 68  1  0  0  0
 39 69  1  0  0  0
 39 70  1  0  0  0
 39 71  1  0  0  0
M  END
> <s_m_entry_id>
32634

> <s_m_entry_name>
dock_pv.35

> <s_m_Source_Path>
/home/csk/Desktop/cluster/DUD-E-result/cdk2

> <s_m_Source_File>
dock_pv.maegz

> <i_m_Source_File_Index>
35

> <chembl_id>
CHEMBL1964249

> <chembl_pref_name>
None

> <i_lp_mmshare_version>
53161

> <i_f3d_flags>
0

> <r_lp_tautomer_probability>
0.499999999999422

> <s_lp_Force_Field>
OPLS_2005

> <r_lp_Energy>
29.882341

> <b_lp_Chiralities_Consistent>
1

> <s_lp_Variant>
CHEMBL301_lig312-1

> <s_i_glide_gridfile>
glide-grid_1h00

> <i_i_glide_lignum>
488

> <i_i_glide_rotatable_bonds>
16

> <r_i_docking_score>
-8.68696261515903

> <r_i_glide_ligand_efficiency>
-0.222742631157924

> <r_i_glide_ligand_efficiency_sa>
-0.75536735870739

> <r_i_glide_ligand_efficiency_ln>
-1.86273137878824

> <r_i_glide_gscore>
-8.68696261515903

> <r_i_glide_lipo>
-2.98102435052461

> <r_i_glide_hbond>
-0.776882211330097

> <r_i_glide_metal>
0

> <r_i_glide_rewards>
-1.24729660973066

> <r_i_glide_evdw>
-49.8392562866211

> <r_i_glide_ecoul>
-11.8403100967407

> <r_i_glide_erotb>
0.59181145888652

> <r_i_glide_esite>
-0.00556157361802817

> <r_i_glide_emodel>
-85.3120577347525

> <r_i_glide_energy>
-61.6795663833618

> <r_i_glide_einternal>
17.0986366271973

> <i_i_glide_confnum>
63

> <i_i_glide_posenum>
305

> <r_i_glide_eff_state_penalty>
0

> <s_user_duplicate_titles>
CHEMBL301_lig312

> <s_m_subgroup_title>
dock_pv

> <s_m_subgroupid>
dock_pv

> <b_m_subgroup_collapsed>
1

$$$$
CHEMBL301_lig26
                    3D
 Schrodinger Suite 2021-1.
 71 76  0  0  1  0            999 V2000
    4.8580   24.4794    6.9084 N   0  0  0  0  0  0
    5.0174   25.6737    7.5323 C   0  0  0  0  0  0
    4.8771   26.9021    6.8836 C   0  0  0  0  0  0
    4.5568   26.8899    5.5214 C   0  0  0  0  0  0
    4.3828   25.6711    4.8653 C   0  0  0  0  0  0
    4.5520   24.4765    5.5808 C   0  0  0  0  0  0
    5.1139   28.2031    7.6398 C   0  0  0  0  0  0
    4.0716   29.1901    7.3760 N   0  0  0  0  0  0
    2.8561   29.2219    8.0686 C   0  0  0  0  0  0
    2.5873   28.2613    8.9922 N   0  0  0  0  0  0
    1.4054   28.3184    9.6487 C   0  0  0  0  0  0
    0.4252   29.2466    9.4734 N   0  0  0  0  0  0
    1.9342   31.3570    7.0150 N   0  0  0  0  0  0
    1.9237   30.2512    7.8276 C   0  0  0  0  0  0
    0.7303   30.1962    8.5861 C   0  0  0  0  0  0
    0.0293   31.3413    8.2507 N   0  0  0  0  0  0
    0.8580   32.0127    7.3760 C   0  0  0  0  0  0
   -1.2461   31.8522    8.7785 C   0  0  0  0  0  0
   -2.4190   30.8519    8.7762 C   0  0  0  0  0  0
   -3.3147   31.2080    9.9730 C   0  0  0  0  0  0
   -2.6176   32.3734   10.6823 C   0  0  0  0  0  0
   -1.1554   32.2623   10.2474 C   0  0  0  0  0  0
    1.2229   27.2907   10.5769 N   0  0  0  0  0  0
   -0.0300   27.0625   11.2942 C   0  0  2  0  0  0
   -0.2457   28.1722   12.3515 C   0  0  0  0  0  0
   -1.4663   27.8849   13.2356 C   0  0  0  0  0  0
   -1.3827   26.5067   13.9226 C   0  0  2  0  0  0
   -1.1483   25.3914   12.8806 C   0  0  0  0  0  0
    0.0729   25.6815   11.9819 C   0  0  0  0  0  0
   -2.5281   26.2509   14.7728 N   0  0  0  0  0  0
    4.3792   23.1352    4.9426 C   0  0  0  0  0  0
    3.6585   22.1310    5.6070 C   0  0  0  0  0  0
    3.4263   20.8909    5.0135 C   0  0  0  0  0  0
    3.9153   20.6305    3.7363 C   0  0  0  0  0  0
    4.6470   21.6060    3.0638 C   0  0  0  0  0  0
    4.8934   22.8413    3.6647 C   0  0  0  0  0  0
    5.6580   23.7459    2.9757 O   0  0  0  0  0  0
    5.2732   25.6306    8.5779 H   0  0  0  0  0  0
    4.4454   27.8157    4.9754 H   0  0  0  0  0  0
    4.1245   25.6568    3.8163 H   0  0  0  0  0  0
    5.2040   28.0195    8.7128 H   0  0  0  0  0  0
    6.0580   28.6278    7.3065 H   0  0  0  0  0  0
    4.3006   29.9977    6.8017 H   0  0  0  0  0  0
    0.5546   32.9780    6.9920 H   0  0  0  0  0  0
   -1.5150   32.7276    8.1821 H   0  0  0  0  0  0
   -2.9770   30.8446    7.8395 H   0  0  0  0  0  0
   -2.0509   29.8512    8.9759 H   0  0  0  0  0  0
   -4.3317   31.4544    9.6676 H   0  0  0  0  0  0
   -3.3921   30.3526   10.6466 H   0  0  0  0  0  0
   -3.0341   33.3241   10.3480 H   0  0  0  0  0  0
   -2.7420   32.3352   11.7649 H   0  0  0  0  0  0
   -0.6789   31.4692   10.8287 H   0  0  0  0  0  0
   -0.5964   33.1800   10.4102 H   0  0  0  0  0  0
    1.9417   26.5844   10.6107 H   0  0  0  0  0  0
   -0.8452   27.0394   10.5679 H   0  0  0  0  0  0
    0.6386   28.2736   12.9759 H   0  0  0  0  0  0
   -0.3905   29.1443   11.8823 H   0  0  0  0  0  0
   -2.3611   27.9408   12.6130 H   0  0  0  0  0  0
   -1.5420   28.6781   13.9799 H   0  0  0  0  0  0
   -0.4965   26.5347   14.5592 H   0  0  0  0  0  0
   -2.0295   25.2946   12.2440 H   0  0  0  0  0  0
   -1.0158   24.4314   13.3814 H   0  0  0  0  0  0
    0.1580   24.8971   11.2280 H   0  0  0  0  0  0
    0.9846   25.6266   12.5795 H   0  0  0  0  0  0
   -2.8360   27.1515   15.1261 H   0  0  0  0  0  0
   -3.2856   25.9534   14.1752 H   0  0  0  0  0  0
    3.2581   22.3215    6.5923 H   0  0  0  0  0  0
    2.8652   20.1381    5.5461 H   0  0  0  0  0  0
    3.7394   19.6731    3.2696 H   0  0  0  0  0  0
    5.0366   21.3978    2.0780 H   0  0  0  0  0  0
    5.3391   23.8593    2.0670 H   0  0  0  0  0  0
  1  2  2  0  0  0
  1  6  1  0  0  0
  2  3  1  0  0  0
  2 38  1  0  0  0
  3  4  2  0  0  0
  3  7  1  0  0  0
  4  5  1  0  0  0
  4 39  1  0  0  0
  5  6  2  0  0  0
  5 40  1  0  0  0
  6 31  1  0  0  0
  7  8  1  0  0  0
  7 41  1  0  0  0
  7 42  1  0  0  0
  8  9  1  0  0  0
  8 43  1  0  0  0
  9 10  1  0  0  0
  9 14  2  0  0  0
 10 11  2  0  0  0
 11 12  1  0  0  0
 11 23  1  0  0  0
 12 15  2  0  0  0
 13 14  1  0  0  0
 13 17  2  0  0  0
 14 15  1  0  0  0
 15 16  1  0  0  0
 16 17  1  0  0  0
 16 18  1  0  0  0
 17 44  1  0  0  0
 18 19  1  0  0  0
 18 22  1  0  0  0
 18 45  1  0  0  0
 19 20  1  0  0  0
 19 46  1  0  0  0
 19 47  1  0  0  0
 20 21  1  0  0  0
 20 48  1  0  0  0
 20 49  1  0  0  0
 21 22  1  0  0  0
 21 50  1  0  0  0
 21 51  1  0  0  0
 22 52  1  0  0  0
 22 53  1  0  0  0
 23 24  1  0  0  0
 23 54  1  0  0  0
 24 25  1  0  0  0
 24 29  1  0  0  0
 24 55  1  0  0  0
 25 26  1  0  0  0
 25 56  1  0  0  0
 25 57  1  0  0  0
 26 27  1  0  0  0
 26 58  1  0  0  0
 26 59  1  0  0  0
 27 28  1  0  0  0
 27 30  1  0  0  0
 27 60  1  0  0  0
 28 29  1  0  0  0
 28 61  1  0  0  0
 28 62  1  0  0  0
 29 63  1  0  0  0
 29 64  1  0  0  0
 30 65  1  0  0  0
 30 66  1  0  0  0
 31 32  2  0  0  0
 31 36  1  0  0  0
 32 33  1  0  0  0
 32 67  1  0  0  0
 33 34  2  0  0  0
 33 68  1  0  0  0
 34 35  1  0  0  0
 34 69  1  0  0  0
 35 36  2  0  0  0
 35 70  1  0  0  0
 36 37  1  0  0  0
 37 71  1  0  0  0
M  END
> <s_m_entry_id>
32635

> <s_m_entry_name>
dock_pv.36

> <s_m_Source_Path>
/home/csk/Desktop/cluster/DUD-E-result/cdk2

> <s_m_Source_File>
dock_pv.maegz

> <i_m_Source_File_Index>
36

> <chembl_id>
CHEMBL2402946

> <chembl_pref_name>
None

> <i_lp_mmshare_version>
53161

> <i_f3d_flags>
0

> <r_lp_tautomer_probability>
0.999999999997365

> <s_lp_Force_Field>
OPLS_2005

> <r_lp_Energy>
47.974534

> <b_lp_Chiralities_Consistent>
1

> <s_lp_Variant>
CHEMBL301_lig26-1

> <s_i_glide_gridfile>
glide-grid_1h00

> <i_i_glide_lignum>
90

> <i_i_glide_rotatable_bonds>
8

> <r_i_docking_score>
-8.68461364235438

> <r_i_glide_ligand_efficiency>
-0.2347192876312

> <r_i_glide_ligand_efficiency_sa>
-0.782136738306044

> <r_i_glide_ligand_efficiency_ln>
-1.88348910279646

> <r_i_glide_gscore>
-8.68461364235438

> <r_i_glide_lipo>
-2.71282810981664

> <r_i_glide_hbond>
-0.506336915682629

> <r_i_glide_metal>
0

> <r_i_glide_rewards>
-2.14316878519399

> <r_i_glide_evdw>
-47.598705291748

> <r_i_glide_ecoul>
-8.96360015869141

> <r_i_glide_erotb>
0.402195456729995

> <r_i_glide_esite>
0

> <r_i_glide_emodel>
-81.5946531174361

> <r_i_glide_energy>
-56.5623054504395

> <r_i_glide_einternal>
5.88655710220337

> <i_i_glide_confnum>
7

> <i_i_glide_posenum>
302

> <r_i_glide_eff_state_penalty>
0

> <s_user_duplicate_titles>
CHEMBL301_lig26

> <s_m_subgroup_title>
dock_pv

> <s_m_subgroupid>
dock_pv

> <b_m_subgroup_collapsed>
1

$$$$
CHEMBL301_lig1062
                    3D
 Schrodinger Suite 2021-1.
 36 39  0  0  1  0            999 V2000
    4.0819   28.2397    5.7016 C   0  0  0  0  0  0
    3.6580   28.7484    6.9294 C   0  0  0  0  0  0
    4.1382   28.1901    8.1160 C   0  0  0  0  0  0
    5.0323   27.1211    8.0629 C   0  0  0  0  0  0
    5.4369   26.5987    6.8349 C   0  0  0  0  0  0
    4.9563   27.1568    5.6518 C   0  0  0  0  0  0
    5.4468   26.5217    4.1252 Cl  0  0  0  0  0  0
    0.1729   29.8047    9.3861 C   0  0  0  0  0  0
    1.2579   31.4916    7.3761 N   0  0  0  0  0  0
    1.7485   30.2709    7.7105 C   0  0  0  0  0  0
    1.2868   29.4466    8.6864 N   0  0  0  0  0  0
    2.8040   29.8520    6.9032 N   0  0  0  0  0  0
    0.2272   31.8543    8.1428 C   0  0  0  0  0  0
   -0.3983   31.0693    9.1407 C   0  0  0  0  0  0
   -1.4312   31.7604    9.7241 N   0  0  0  0  0  0
   -1.4080   32.9281    9.1387 C   0  0  0  0  0  0
   -0.4304   33.0536    8.1770 N   0  0  0  0  0  0
   -0.3280   28.8438   10.4236 C   0  0  0  0  0  0
    0.5227   27.8922   11.0101 C   0  0  0  0  0  0
    0.0578   27.0289   12.0012 C   0  0  0  0  0  0
   -1.2617   27.1120   12.4277 C   0  0  0  0  0  0
   -2.1285   28.0215   11.8368 C   0  0  0  0  0  0
   -1.6655   28.8759   10.8436 C   0  0  0  0  0  0
   -1.7107   26.3131   13.4438 O   0  0  0  0  0  0
    3.7257   28.6709    4.7793 H   0  0  0  0  0  0
    3.8377   28.5899    9.0731 H   0  0  0  0  0  0
    5.4177   26.6996    8.9758 H   0  0  0  0  0  0
    6.1273   25.7688    6.8011 H   0  0  0  0  0  0
    3.1544   30.5965    6.3125 H   0  0  0  0  0  0
   -2.0520   33.7626    9.3760 H   0  0  0  0  0  0
   -0.2509   33.8988    7.6419 H   0  0  0  0  0  0
    1.5617   27.8308   10.7178 H   0  0  0  0  0  0
    0.7346   26.3226   12.4594 H   0  0  0  0  0  0
   -3.1546   28.0944   12.1666 H   0  0  0  0  0  0
   -2.3741   29.5654   10.4120 H   0  0  0  0  0  0
   -2.5969   26.5671   13.7129 H   0  0  0  0  0  0
  1  6  1  0  0  0
  1  2  2  0  0  0
  1 25  1  0  0  0
  2 12  1  0  0  0
  2  3  1  0  0  0
  3  4  2  0  0  0
  3 26  1  0  0  0
  4  5  1  0  0  0
  4 27  1  0  0  0
  5  6  2  0  0  0
  5 28  1  0  0  0
  6  7  1  0  0  0
  8 14  2  0  0  0
  8 18  1  0  0  0
  8 11  1  0  0  0
  9 13  2  0  0  0
  9 10  1  0  0  0
 10 12  1  0  0  0
 10 11  2  0  0  0
 12 29  1  0  0  0
 13 14  1  0  0  0
 13 17  1  0  0  0
 14 15  1  0  0  0
 15 16  2  0  0  0
 16 17  1  0  0  0
 16 30  1  0  0  0
 17 31  1  0  0  0
 18 19  2  0  0  0
 18 23  1  0  0  0
 19 20  1  0  0  0
 19 32  1  0  0  0
 20 21  2  0  0  0
 20 33  1  0  0  0
 21 22  1  0  0  0
 21 24  1  0  0  0
 22 23  2  0  0  0
 22 34  1  0  0  0
 23 35  1  0  0  0
 24 36  1  0  0  0
M  END
> <s_m_entry_id>
32636

> <s_m_entry_name>
dock_pv.37

> <s_m_Source_Path>
/home/csk/Desktop/cluster/DUD-E-result/cdk2

> <s_m_Source_File>
dock_pv.maegz

> <i_m_Source_File_Index>
37

> <chembl_id>
CHEMBL1933345

> <chembl_pref_name>
None

> <i_lp_mmshare_version>
53161

> <i_f3d_flags>
0

> <r_lp_tautomer_probability>
0.999999999997365

> <s_lp_Force_Field>
OPLS_2005

> <r_lp_Energy>
16.577437

> <b_lp_Chiralities_Consistent>
1

> <s_lp_Variant>
CHEMBL301_lig1062-1

> <s_i_glide_gridfile>
glide-grid_1h00

> <i_i_glide_lignum>
1463

> <i_i_glide_rotatable_bonds>
4

> <r_i_docking_score>
-8.6613824955568

> <r_i_glide_ligand_efficiency>
-0.360890937314866

> <r_i_glide_ligand_efficiency_sa>
-1.04098959743763

> <r_i_glide_ligand_efficiency_ln>
-2.0730662761316

> <r_i_glide_gscore>
-8.6613824955568

> <r_i_glide_lipo>
-2.14729710804418

> <r_i_glide_hbond>
-0.548451889811388

> <r_i_glide_metal>
0

> <r_i_glide_rewards>
-3.61683504780048

> <r_i_glide_evdw>
-35.3844909667969

> <r_i_glide_ecoul>
-7.15605115890503

> <r_i_glide_erotb>
0.497091932547187

> <r_i_glide_esite>
-0.00325816027233743

> <r_i_glide_emodel>
-65.9648638783476

> <r_i_glide_energy>
-42.5405421257019

> <r_i_glide_einternal>
1.28057456016541

> <i_i_glide_confnum>
10

> <i_i_glide_posenum>
41

> <r_i_glide_eff_state_penalty>
0

> <s_user_duplicate_titles>
CHEMBL301_lig1062

> <s_m_subgroup_title>
dock_pv

> <s_m_subgroupid>
dock_pv

> <b_m_subgroup_collapsed>
1

$$$$
CHEMBL301_lig1017
                    3D
 Schrodinger Suite 2021-1.
 52 55  0  0  1  0            999 V2000
   -0.3780   29.3399   10.7953 N   0  0  0  0  0  0
    0.2746   28.4290   11.7422 C   0  0  0  0  0  0
   -0.7975   27.8785   12.6708 C   0  0  1  0  0  0
   -1.9381   27.7410   11.6677 C   0  0  2  0  0  0
   -1.8183   29.0736   10.9146 C   0  0  0  0  0  0
   -3.2265   27.4521   12.1760 O   0  0  0  0  0  0
   -0.3904   26.7078   13.3545 O   0  0  0  0  0  0
    0.2296   29.8515    9.6408 C   0  0  0  0  0  0
    5.2528   27.4526    6.4397 N   0  0  0  0  0  0
    4.3575   27.9942    5.5800 C   0  0  0  0  0  0
    3.3123   28.8018    6.0390 C   0  0  0  0  0  0
    3.2226   29.0534    7.4161 C   0  0  0  0  0  0
    4.1109   28.4939    8.2881 N   0  0  0  0  0  0
    5.0765   27.7129    7.7459 C   0  0  0  0  0  0
    5.9564   27.0521    8.5760 N   0  0  0  0  0  0
    2.0580   29.8064    7.9951 C   0  0  0  0  0  0
    1.4250   29.3105    9.1447 C   0  0  0  0  0  0
   -0.3417   30.9346    8.9682 C   0  0  0  0  0  0
    0.3068   31.4898    7.8665 C   0  0  0  0  0  0
    1.4853   30.9328    7.3762 C   0  0  0  0  0  0
    2.0580   31.5375    6.2928 O   0  0  0  0  0  0
    4.4723   27.7098    4.2105 N   0  0  0  0  0  0
    5.6660   27.0538    3.6715 C   0  0  0  0  0  0
    5.6773   25.5315    3.8203 C   0  0  0  0  0  0
    6.7647   25.0675    2.8426 C   0  0  0  0  0  0
    6.8577   26.1550    1.7565 C   0  0  0  0  0  0
    5.8788   27.2639    2.1714 C   0  0  0  0  0  0
    0.6939   27.5943   11.1783 H   0  0  0  0  0  0
    1.1144   28.8944   12.2578 H   0  0  0  0  0  0
   -1.0562   28.6366   13.4134 H   0  0  0  0  0  0
   -1.7035   26.9294   10.9739 H   0  0  0  0  0  0
   -2.2764   29.8415   11.5416 H   0  0  0  0  0  0
   -2.3254   28.9742    9.9545 H   0  0  0  0  0  0
   -3.4130   28.0483   12.9215 H   0  0  0  0  0  0
    0.5576   26.7769   13.5113 H   0  0  0  0  0  0
    2.5545   29.1851    5.3760 H   0  0  0  0  0  0
    5.6580   26.8513    9.5373 H   0  0  0  0  0  0
    6.5369   26.3766    8.1059 H   0  0  0  0  0  0
    1.8627   28.4526    9.6307 H   0  0  0  0  0  0
   -1.2566   31.3819    9.3287 H   0  0  0  0  0  0
   -0.1065   32.3622    7.3806 H   0  0  0  0  0  0
    2.9861   31.2817    6.1733 H   0  0  0  0  0  0
    3.8074   28.1055    3.5660 H   0  0  0  0  0  0
    6.5499   27.4473    4.1765 H   0  0  0  0  0  0
    4.7098   25.1121    3.5369 H   0  0  0  0  0  0
    5.8899   25.2147    4.8412 H   0  0  0  0  0  0
    6.5247   24.0917    2.4169 H   0  0  0  0  0  0
    7.7214   24.9700    3.3577 H   0  0  0  0  0  0
    6.6005   25.7579    0.7726 H   0  0  0  0  0  0
    7.8770   26.5409    1.6929 H   0  0  0  0  0  0
    6.2833   28.2521    1.9530 H   0  0  0  0  0  0
    4.9373   27.1581    1.6289 H   0  0  0  0  0  0
  1  8  1  0  0  0
  1  2  1  0  0  0
  1  5  1  0  0  0
  2  3  1  0  0  0
  2 28  1  0  0  0
  2 29  1  0  0  0
  3  7  1  0  0  0
  3  4  1  0  0  0
  3 30  1  0  0  0
  4  5  1  0  0  0
  4  6  1  0  0  0
  4 31  1  0  0  0
  5 32  1  0  0  0
  5 33  1  0  0  0
  6 34  1  0  0  0
  7 35  1  0  0  0
  8 17  1  0  0  0
  8 18  2  0  0  0
  9 14  1  0  0  0
  9 10  2  0  0  0
 10 11  1  0  0  0
 10 22  1  0  0  0
 11 12  2  0  0  0
 11 36  1  0  0  0
 12 16  1  0  0  0
 12 13  1  0  0  0
 13 14  2  0  0  0
 14 15  1  0  0  0
 15 37  1  0  0  0
 15 38  1  0  0  0
 16 17  2  0  0  0
 16 20  1  0  0  0
 17 39  1  0  0  0
 18 19  1  0  0  0
 18 40  1  0  0  0
 19 20  2  0  0  0
 19 41  1  0  0  0
 20 21  1  0  0  0
 21 42  1  0  0  0
 22 23  1  0  0  0
 22 43  1  0  0  0
 23 24  1  0  0  0
 23 27  1  0  0  0
 23 44  1  0  0  0
 24 25  1  0  0  0
 24 45  1  0  0  0
 24 46  1  0  0  0
 25 26  1  0  0  0
 25 47  1  0  0  0
 25 48  1  0  0  0
 26 27  1  0  0  0
 26 49  1  0  0  0
 26 50  1  0  0  0
 27 51  1  0  0  0
 27 52  1  0  0  0
M  END
> <s_m_entry_id>
32637

> <s_m_entry_name>
dock_pv.38

> <s_m_Source_Path>
/home/csk/Desktop/cluster/DUD-E-result/cdk2

> <s_m_Source_File>
dock_pv.maegz

> <i_m_Source_File_Index>
38

> <chembl_id>
CHEMBL1800464

> <chembl_pref_name>
None

> <i_lp_mmshare_version>
53161

> <i_f3d_flags>
0

> <r_lp_tautomer_probability>
0.999999624728329

> <s_lp_Force_Field>
OPLS_2005

> <r_lp_Energy>
56.641737

> <b_lp_Chiralities_Consistent>
1

> <s_lp_Variant>
CHEMBL301_lig1017-1

> <s_i_glide_gridfile>
glide-grid_1h00

> <i_i_glide_lignum>
1416

> <i_i_glide_rotatable_bonds>
7

> <r_i_docking_score>
-8.65070770541888

> <r_i_glide_ligand_efficiency>
-0.320396581682181

> <r_i_glide_ligand_efficiency_sa>
-0.961189743990568

> <r_i_glide_ligand_efficiency_ln>
-2.01374213575878

> <r_i_glide_gscore>
-8.65070770541888

> <r_i_glide_lipo>
-2.60511290286138

> <r_i_glide_hbond>
-0.8

> <r_i_glide_metal>
0

> <r_i_glide_rewards>
-2.20739126678205

> <r_i_glide_evdw>
-31.5966110229492

> <r_i_glide_ecoul>
-13.3350667953491

> <r_i_glide_erotb>
0.559660382338349

> <r_i_glide_esite>
-0.0177733476639698

> <r_i_glide_emodel>
-65.7297393682469

> <r_i_glide_energy>
-44.9316778182983

> <r_i_glide_einternal>
8.49638366699219

> <i_i_glide_confnum>
116

> <i_i_glide_posenum>
167

> <r_i_glide_eff_state_penalty>
0

> <s_user_duplicate_titles>
CHEMBL301_lig1017

> <s_m_subgroup_title>
dock_pv

> <s_m_subgroupid>
dock_pv

> <b_m_subgroup_collapsed>
1

$$$$
CHEMBL301_lig579
                    3D
 Schrodinger Suite 2021-1.
 49 51  0  0  1  0            999 V2000
    0.0411   28.6051   11.7977 C   0  0  0  0  0  0
   -0.4683   29.7670   11.4476 N   0  0  0  0  0  0
   -1.6298   29.4525   10.9223 C   0  0  0  0  0  0
   -1.9420   28.1370   11.0099 O   0  0  0  0  0  0
   -0.8571   27.5695   11.5848 C   0  0  0  0  0  0
   -0.8788   26.0606   11.8070 C   0  0  0  0  0  0
    0.4580   25.5953   12.4210 C   0  0  0  0  0  0
   -1.0986   25.3351   10.4608 C   0  0  0  0  0  0
   -2.0291   25.7075   12.7745 C   0  0  0  0  0  0
   -2.5728   30.3315   10.1258 C   0  0  0  0  0  0
   -1.9427   31.9908    9.7205 S   0  0  0  0  0  0
   -0.5458   31.6770    8.6769 C   0  0  0  0  0  0
    0.2247   32.6520    8.0710 C   0  0  0  0  0  0
    1.2580   32.2589    7.3524 N   0  0  0  0  0  0
    1.4172   30.9614    7.3760 C   0  0  0  0  0  0
    0.1755   30.1369    8.2637 S   0  0  0  0  0  0
    2.4580   30.3233    6.7322 N   0  0  0  0  0  0
    3.1476   29.0624    7.0086 C   0  0  2  0  0  0
    4.1848   29.2574    8.1118 C   0  0  0  0  0  0
    4.8702   27.9173    8.4361 C   0  0  0  0  0  0
    5.5486   27.2998    7.1958 C   0  0  0  0  0  0
    4.6675   27.2800    5.9268 C   0  0  1  0  0  0
    3.8356   28.5690    5.7197 C   0  0  0  0  0  0
    5.4863   27.0520    4.7991 O   0  0  0  0  0  0
    1.0436   28.5295   12.1760 H   0  0  0  0  0  0
    0.4724   24.5190   12.5958 H   0  0  0  0  0  0
    0.6384   26.0882   13.3760 H   0  0  0  0  0  0
    1.3036   25.8366   11.7746 H   0  0  0  0  0  0
   -2.0409   25.6263    9.9944 H   0  0  0  0  0  0
   -0.3048   25.5691    9.7506 H   0  0  0  0  0  0
   -1.1200   24.2520   10.5854 H   0  0  0  0  0  0
   -2.9962   26.0177   12.3757 H   0  0  0  0  0  0
   -2.0837   24.6353   12.9659 H   0  0  0  0  0  0
   -1.9097   26.2104   13.7354 H   0  0  0  0  0  0
   -2.8547   29.8520    9.1907 H   0  0  0  0  0  0
   -3.5055   30.4653   10.6712 H   0  0  0  0  0  0
    0.0238   33.7049    8.1760 H   0  0  0  0  0  0
    3.1162   30.9263    6.2459 H   0  0  0  0  0  0
    2.4580   28.3168    7.3736 H   0  0  0  0  0  0
    4.9288   30.0085    7.8410 H   0  0  0  0  0  0
    3.6519   29.6260    8.9760 H   0  0  0  0  0  0
    4.1349   27.2170    8.8367 H   0  0  0  0  0  0
    5.6101   28.0524    9.2238 H   0  0  0  0  0  0
    5.8733   26.2857    7.4329 H   0  0  0  0  0  0
    6.4580   27.8520    6.9760 H   0  0  0  0  0  0
    3.9930   26.4250    5.9703 H   0  0  0  0  0  0
    3.0690   28.3685    4.9760 H   0  0  0  0  0  0
    4.4676   29.3547    5.3009 H   0  0  0  0  0  0
    6.2083   27.6922    4.8140 H   0  0  0  0  0  0
  1  5  2  0  0  0
  1  2  1  0  0  0
  1 25  1  0  0  0
  2  3  2  0  0  0
  3  4  1  0  0  0
  3 10  1  0  0  0
  4  5  1  0  0  0
  5  6  1  0  0  0
  6  7  1  0  0  0
  6  8  1  0  0  0
  6  9  1  0  0  0
  7 26  1  0  0  0
  7 27  1  0  0  0
  7 28  1  0  0  0
  8 29  1  0  0  0
  8 30  1  0  0  0
  8 31  1  0  0  0
  9 32  1  0  0  0
  9 33  1  0  0  0
  9 34  1  0  0  0
 10 11  1  0  0  0
 10 35  1  0  0  0
 10 36  1  0  0  0
 11 12  1  0  0  0
 12 13  2  0  0  0
 12 16  1  0  0  0
 13 14  1  0  0  0
 13 37  1  0  0  0
 14 15  2  0  0  0
 15 16  1  0  0  0
 15 17  1  0  0  0
 17 18  1  0  0  0
 17 38  1  0  0  0
 18 19  1  0  0  0
 18 23  1  0  0  0
 18 39  1  0  0  0
 19 20  1  0  0  0
 19 40  1  0  0  0
 19 41  1  0  0  0
 20 21  1  0  0  0
 20 42  1  0  0  0
 20 43  1  0  0  0
 21 22  1  0  0  0
 21 44  1  0  0  0
 21 45  1  0  0  0
 22 23  1  0  0  0
 22 24  1  0  0  0
 22 46  1  0  0  0
 23 47  1  0  0  0
 23 48  1  0  0  0
 24 49  1  0  0  0
M  END
> <s_m_entry_id>
32638

> <s_m_entry_name>
dock_pv.39

> <s_m_Source_Path>
/home/csk/Desktop/cluster/DUD-E-result/cdk2

> <s_m_Source_File>
dock_pv.maegz

> <i_m_Source_File_Index>
39

> <chembl_id>
CHEMBL495558

> <chembl_pref_name>
None

> <i_lp_mmshare_version>
53161

> <i_f3d_flags>
0

> <r_lp_tautomer_probability>
1

> <s_lp_Force_Field>
OPLS_2005

> <r_lp_Energy>
6.066598

> <b_lp_Chiralities_Consistent>
1

> <s_lp_Variant>
CHEMBL301_lig579-3

> <s_i_glide_gridfile>
glide-grid_1h00

> <i_i_glide_lignum>
815

> <i_i_glide_rotatable_bonds>
7

> <r_i_docking_score>
-8.64392607636159

> <r_i_glide_ligand_efficiency>
-0.360163586515066

> <r_i_glide_ligand_efficiency_sa>
-1.03889155468291

> <r_i_glide_ligand_efficiency_ln>
-2.06888815399531

> <r_i_glide_gscore>
-8.64392607636159

> <r_i_glide_lipo>
-3.30019455845032

> <r_i_glide_hbond>
-0.635965214285347

> <r_i_glide_metal>
0

> <r_i_glide_rewards>
-2.23875298067216

> <r_i_glide_evdw>
-35.4558944702148

> <r_i_glide_ecoul>
-7.96834278106689

> <r_i_glide_erotb>
0.499032817717021

> <r_i_glide_esite>
0

> <r_i_glide_emodel>
-60.7449577935723

> <r_i_glide_energy>
-43.4242372512817

> <r_i_glide_einternal>
3.46075582504272

> <i_i_glide_confnum>
78

> <i_i_glide_posenum>
209

> <r_i_glide_eff_state_penalty>
0

> <s_user_duplicate_titles>
CHEMBL301_lig579,494700

> <s_m_subgroup_title>
dock_pv

> <s_m_subgroupid>
dock_pv

> <b_m_subgroup_collapsed>
1

$$$$
CHEMBL301_lig527
                    3D
 Schrodinger Suite 2021-1.
 44 47  0  0  1  0            999 V2000
   -1.5152   27.9618   10.8842 N   0  0  0  0  0  0
    4.5531   24.9085    6.8669 C   0  0  0  0  0  0
    4.4642   24.8434    5.4787 C   0  0  0  0  0  0
    4.4562   26.0074    4.7126 C   0  0  0  0  0  0
    4.5219   27.2489    5.3424 C   0  0  0  0  0  0
    4.6009   27.3204    6.7371 C   0  0  0  0  0  0
    4.6270   26.1468    7.4978 C   0  0  0  0  0  0
    4.6297   28.6766    7.4306 C   0  0  0  0  0  0
    3.2591   29.0547    8.0113 C   0  0  0  0  0  0
    2.8609   28.4709    9.0160 O   0  0  0  0  0  0
    2.6046   30.0484    7.3763 N   0  0  0  0  0  0
    1.4299   30.6833    7.7580 C   0  0  0  0  0  0
    0.1398   32.3791    7.9894 N   0  0  0  0  0  0
    1.2452   31.9219    7.3759 N   0  0  0  0  0  0
   -0.4662   31.4031    8.7532 C   0  0  0  0  0  0
    0.3442   30.2459    8.6044 C   0  0  0  0  0  0
   -0.0449   29.0709    9.2683 C   0  0  0  0  0  0
   -1.1598   29.0850   10.1124 C   0  0  0  0  0  0
   -1.9116   30.2534   10.2548 C   0  0  0  0  0  0
   -1.6058   31.4274    9.5633 C   0  0  0  0  0  0
   -1.4090   26.6239   10.3030 C   0  0  0  0  0  0
   -0.0380   26.0040   10.6600 C   0  0  0  0  0  0
    0.6198   26.8521   11.7645 C   0  0  0  0  0  0
   -0.8023   27.8322   12.4923 S   0  0  0  0  0  0
   -0.3421   29.1369   12.9759 O   0  0  0  0  0  0
   -1.5409   26.9051   13.3577 O   0  0  0  0  0  0
    4.3851   23.6386    4.8713 F   0  0  0  0  0  0
    4.5547   23.9999    7.4494 H   0  0  0  0  0  0
    4.3930   25.9406    3.6357 H   0  0  0  0  0  0
    4.5064   28.1508    4.7483 H   0  0  0  0  0  0
    4.6843   26.1982    8.5761 H   0  0  0  0  0  0
    5.3477   28.6489    8.2514 H   0  0  0  0  0  0
    4.9931   29.4453    6.7475 H   0  0  0  0  0  0
    3.1273   30.5155    6.6456 H   0  0  0  0  0  0
   -0.1540   33.3372    7.8510 H   0  0  0  0  0  0
    0.5328   28.1714    9.1565 H   0  0  0  0  0  0
   -2.7570   30.2571   10.9308 H   0  0  0  0  0  0
   -2.2037   32.3189    9.6867 H   0  0  0  0  0  0
   -2.2573   25.9745   10.5280 H   0  0  0  0  0  0
   -1.4486   26.6783    9.2136 H   0  0  0  0  0  0
   -0.1831   24.9750   10.9904 H   0  0  0  0  0  0
    0.6092   25.9379    9.7829 H   0  0  0  0  0  0
    1.0616   26.2489   12.5545 H   0  0  0  0  0  0
    1.3767   27.5440   11.3936 H   0  0  0  0  0  0
  1 18  1  0  0  0
  1 21  1  0  0  0
  1 24  1  0  0  0
  2  3  2  0  0  0
  2  7  1  0  0  0
  2 28  1  0  0  0
  3  4  1  0  0  0
  3 27  1  0  0  0
  4  5  2  0  0  0
  4 29  1  0  0  0
  5  6  1  0  0  0
  5 30  1  0  0  0
  6  8  1  0  0  0
  6  7  2  0  0  0
  7 31  1  0  0  0
  8  9  1  0  0  0
  8 32  1  0  0  0
  8 33  1  0  0  0
  9 10  2  0  0  0
  9 11  1  0  0  0
 11 12  1  0  0  0
 11 34  1  0  0  0
 12 14  2  0  0  0
 12 16  1  0  0  0
 13 15  1  0  0  0
 13 14  1  0  0  0
 13 35  1  0  0  0
 15 16  2  0  0  0
 15 20  1  0  0  0
 16 17  1  0  0  0
 17 18  2  0  0  0
 17 36  1  0  0  0
 18 19  1  0  0  0
 19 20  2  0  0  0
 19 37  1  0  0  0
 20 38  1  0  0  0
 21 22  1  0  0  0
 21 39  1  0  0  0
 21 40  1  0  0  0
 22 23  1  0  0  0
 22 41  1  0  0  0
 22 42  1  0  0  0
 23 24  1  0  0  0
 23 43  1  0  0  0
 23 44  1  0  0  0
 24 25  2  0  0  0
 24 26  2  0  0  0
M  END
> <s_m_entry_id>
32639

> <s_m_entry_name>
dock_pv.40

> <s_m_Source_Path>
/home/csk/Desktop/cluster/DUD-E-result/cdk2

> <s_m_Source_File>
dock_pv.maegz

> <i_m_Source_File_Index>
40

> <chembl_id>
CHEMBL255263

> <chembl_pref_name>
None

> <i_lp_mmshare_version>
53161

> <i_f3d_flags>
0

> <r_lp_tautomer_probability>
0.980392156862745

> <s_lp_Force_Field>
OPLS_2005

> <r_lp_Energy>
17.491605

> <b_lp_Chiralities_Consistent>
1

> <s_lp_Variant>
CHEMBL301_lig527-1

> <s_i_glide_gridfile>
glide-grid_1h00

> <i_i_glide_lignum>
738

> <i_i_glide_rotatable_bonds>
5

> <r_i_docking_score>
-8.64011610288401

> <r_i_glide_ligand_efficiency>
-0.320004300106815

> <r_i_glide_ligand_efficiency_sa>
-0.960012899265763

> <r_i_glide_ligand_efficiency_ln>
-2.01127658530488

> <r_i_glide_gscore>
-8.64011610288401

> <r_i_glide_lipo>
-2.90999793828144

> <r_i_glide_hbond>
-0.32

> <r_i_glide_metal>
0

> <r_i_glide_rewards>
-2.77591052461249

> <r_i_glide_evdw>
-43.3000335693359

> <r_i_glide_ecoul>
-6.42479467391968

> <r_i_glide_erotb>
0.516579429713671

> <r_i_glide_esite>
-0.0220661901490019

> <r_i_glide_emodel>
-70.0502934726887

> <r_i_glide_energy>
-49.7248282432556

> <r_i_glide_einternal>
8.20606899261475

> <i_i_glide_confnum>
43

> <i_i_glide_posenum>
192

> <r_i_glide_eff_state_penalty>
0

> <s_user_duplicate_titles>
CHEMBL301_lig527,424689

> <s_m_subgroup_title>
dock_pv

> <s_m_subgroupid>
dock_pv

> <b_m_subgroup_collapsed>
1

$$$$
CHEMBL301_lig66
                    3D
 Schrodinger Suite 2021-1.
 56 58  0  0  1  0            999 V2000
    0.6123   29.8775    9.0348 C   0  0  0  0  0  0
   -0.2039   30.9557    8.7814 N   0  0  0  0  0  0
    1.7201   29.9978    8.1760 C   0  0  0  0  0  0
    0.4574   28.9531    9.9640 N   0  0  0  0  0  0
    1.5687   31.0829    7.3542 N   0  0  0  0  0  0
    1.4727   28.0619   10.0393 C   0  0  0  0  0  0
    2.6050   28.0629    9.2869 N   0  0  0  0  0  0
    2.7396   29.0416    8.3424 C   0  0  0  0  0  0
    0.4580   31.6430    7.7760 C   0  0  0  0  0  0
    1.3373   27.0345   10.9760 N   0  0  0  0  0  0
    3.8853   29.1087    7.5359 N   0  0  0  0  0  0
   -1.3883   31.3445    9.5734 C   0  0  0  0  0  0
    0.0765   26.7693   11.7006 C   0  0  2  0  0  0
    4.9266   28.0851    7.5076 C   0  0  0  0  0  0
   -1.0512   26.2882   10.7393 C   0  0  0  0  0  0
    4.6287   27.5438    5.0297 C   0  0  0  0  0  0
    4.7149   27.1019    6.3595 C   0  0  0  0  0  0
    4.4577   26.6273    3.9886 C   0  0  0  0  0  0
    4.3609   27.0520    2.6872 O   0  0  0  0  0  0
   -1.1419   27.4214   13.7434 O   0  0  0  0  0  0
   -0.3677   27.9144   12.6624 C   0  0  0  0  0  0
    4.4580   24.8176    5.5899 C   0  0  0  0  0  0
    4.3709   25.2648    4.2700 C   0  0  0  0  0  0
    4.6362   25.7316    6.6288 C   0  0  0  0  0  0
   -2.5042   30.2822    9.5321 C   0  0  0  0  0  0
   -1.9421   32.7101    9.1662 C   0  0  0  0  0  0
   -2.4411   26.1833   11.3752 C   0  0  0  0  0  0
   -0.6838   24.9651   10.0627 C   0  0  0  0  0  0
    0.0590   32.5723    7.3964 H   0  0  0  0  0  0
    2.1038   26.3830   11.0582 H   0  0  0  0  0  0
    3.9711   29.8917    6.8975 H   0  0  0  0  0  0
   -1.0377   31.4296   10.6030 H   0  0  0  0  0  0
    0.3329   25.9283   12.3461 H   0  0  0  0  0  0
    5.8885   28.5786    7.3710 H   0  0  0  0  0  0
    4.9835   27.5554    8.4609 H   0  0  0  0  0  0
   -1.1595   27.0104    9.9312 H   0  0  0  0  0  0
    4.6984   28.5975    4.8053 H   0  0  0  0  0  0
    4.3000   26.3062    2.0729 H   0  0  0  0  0  0
   -1.9035   28.0025   13.8624 H   0  0  0  0  0  0
    0.4841   28.4097   13.1139 H   0  0  0  0  0  0
   -0.9534   28.6752   12.1459 H   0  0  0  0  0  0
    4.3831   23.7618    5.8055 H   0  0  0  0  0  0
    4.2324   24.5531    3.4691 H   0  0  0  0  0  0
    4.7014   25.3734    7.6464 H   0  0  0  0  0  0
   -3.2840   30.5184   10.2573 H   0  0  0  0  0  0
   -2.1450   29.2828    9.7748 H   0  0  0  0  0  0
   -2.9832   30.2521    8.5559 H   0  0  0  0  0  0
   -2.7156   33.0507    9.8571 H   0  0  0  0  0  0
   -1.1565   33.4578    9.1543 H   0  0  0  0  0  0
   -2.3855   32.6520    8.1757 H   0  0  0  0  0  0
   -2.4602   25.4710   12.2005 H   0  0  0  0  0  0
   -2.8143   27.1434   11.7323 H   0  0  0  0  0  0
   -3.1423   25.8520   10.6172 H   0  0  0  0  0  0
   -0.5434   24.1696   10.7942 H   0  0  0  0  0  0
   -1.4722   24.6549    9.3765 H   0  0  0  0  0  0
    0.2335   25.0516    9.4787 H   0  0  0  0  0  0
  1  2  1  0  0  0
  1  3  2  0  0  0
  1  4  1  0  0  0
  2  9  1  0  0  0
  2 12  1  0  0  0
  3  5  1  0  0  0
  3  8  1  0  0  0
  4  6  2  0  0  0
  5  9  2  0  0  0
  6  7  1  0  0  0
  6 10  1  0  0  0
  7  8  2  0  0  0
  8 11  1  0  0  0
  9 29  1  0  0  0
 10 13  1  0  0  0
 10 30  1  0  0  0
 11 14  1  0  0  0
 11 31  1  0  0  0
 12 25  1  0  0  0
 12 26  1  0  0  0
 12 32  1  0  0  0
 13 15  1  0  0  0
 13 21  1  0  0  0
 13 33  1  0  0  0
 14 17  1  0  0  0
 14 34  1  0  0  0
 14 35  1  0  0  0
 15 27  1  0  0  0
 15 28  1  0  0  0
 15 36  1  0  0  0
 16 17  1  0  0  0
 16 18  2  0  0  0
 16 37  1  0  0  0
 17 24  2  0  0  0
 18 19  1  0  0  0
 18 23  1  0  0  0
 19 38  1  0  0  0
 20 21  1  0  0  0
 20 39  1  0  0  0
 21 40  1  0  0  0
 21 41  1  0  0  0
 22 24  1  0  0  0
 22 23  2  0  0  0
 22 42  1  0  0  0
 23 43  1  0  0  0
 24 44  1  0  0  0
 25 45  1  0  0  0
 25 46  1  0  0  0
 25 47  1  0  0  0
 26 48  1  0  0  0
 26 49  1  0  0  0
 26 50  1  0  0  0
 27 51  1  0  0  0
 27 52  1  0  0  0
 27 53  1  0  0  0
 28 54  1  0  0  0
 28 55  1  0  0  0
 28 56  1  0  0  0
M  END
> <s_m_entry_id>
32640

> <s_m_entry_name>
dock_pv.41

> <s_m_Source_Path>
/home/csk/Desktop/cluster/DUD-E-result/cdk2

> <s_m_Source_File>
dock_pv.maegz

> <i_m_Source_File_Index>
41

> <chembl_id>
CHEMBL84944

> <chembl_pref_name>
None

> <i_lp_mmshare_version>
53161

> <i_f3d_flags>
0

> <r_lp_tautomer_probability>
0.999999999997365

> <s_lp_Force_Field>
OPLS_2005

> <r_lp_Energy>
23.842065

> <b_lp_Chiralities_Consistent>
1

> <s_lp_Variant>
CHEMBL301_lig66-1

> <s_i_glide_gridfile>
glide-grid_1h00

> <i_i_glide_lignum>
148

> <i_i_glide_rotatable_bonds>
10

> <r_i_docking_score>
-8.63867584960829

> <r_i_glide_ligand_efficiency>
-0.30852413748601

> <r_i_glide_ligand_efficiency_sa>
-0.936860992406866

> <r_i_glide_ligand_efficiency_ln>
-1.994060028634

> <r_i_glide_gscore>
-8.63867584960829

> <r_i_glide_lipo>
-2.73159638793158

> <r_i_glide_hbond>
-0.464067591743048

> <r_i_glide_metal>
0

> <r_i_glide_rewards>
-3.0206886644565

> <r_i_glide_evdw>
-42.4184379577637

> <r_i_glide_ecoul>
-7.04826688766479

> <r_i_glide_erotb>
0.789182069614591

> <r_i_glide_esite>
-0.0333433440538618

> <r_i_glide_emodel>
-74.0700807924099

> <r_i_glide_energy>
-49.4667048454285

> <r_i_glide_einternal>
5.57493782043457

> <i_i_glide_confnum>
13

> <i_i_glide_posenum>
31

> <r_i_glide_eff_state_penalty>
0

> <s_user_duplicate_titles>
CHEMBL301_lig66

> <s_m_subgroup_title>
dock_pv

> <s_m_subgroupid>
dock_pv

> <b_m_subgroup_collapsed>
1

$$$$
CHEMBL301_lig1388
                    3D
 Schrodinger Suite 2021-1.
 68 69  0  0  1  0            999 V2000
    1.2480   25.9402   11.1397 C   0  0  0  0  0  0
    1.0456   27.3985   10.6864 C   0  0  2  0  0  0
    1.2573   28.2567   11.7759 O   0  0  0  0  0  0
   -0.3690   27.7228   10.1303 C   0  0  1  0  0  0
   -1.4414   27.3286   11.1589 C   0  0  0  0  0  0
   -0.6737   29.1033    9.8172 O   0  0  0  0  0  0
    0.1001   29.9067    8.9986 C   0  0  0  0  0  0
    1.3053   29.4521    8.5760 N   0  0  0  0  0  0
    2.0335   30.2561    7.7755 C   0  0  0  0  0  0
    3.2950   29.8402    7.3756 N   0  0  0  0  0  0
    3.7867   28.5451    7.1585 C   0  0  0  0  0  0
    3.9970   27.6653    8.2166 C   0  0  0  0  0  0
    4.3705   26.3472    7.9595 C   0  0  0  0  0  0
    4.5882   25.8987    6.6526 C   0  0  0  0  0  0
    4.4667   26.8114    5.6012 C   0  0  0  0  0  0
    4.0673   28.1272    5.8540 C   0  0  0  0  0  0
    5.0476   24.1520    6.4320 S   0  0  2  0  0  0
    4.8638   23.4896    7.7266 O   0  0  0  0  0  0
    6.3346   24.0785    5.5968 N   0  0  0  0  0  0
    7.7462   24.9306    6.1575 S   0  0  0  0  0  0
    7.5303   26.1317    6.9675 O   0  0  0  0  0  0
    8.8533   24.0749    6.5887 O   0  0  0  0  0  0
    8.3434   25.5435    4.4635 C   0  0  0  0  0  0
    7.2397   26.2164    3.6252 C   0  0  0  0  0  0
    7.8166   26.8124    1.9378 Si  0  0  0  0  0  0
    9.3155   27.9043    2.1797 C   0  0  0  0  0  0
    8.2473   25.3366    0.8527 C   0  0  0  0  0  0
    6.4778   27.8383    1.1081 C   0  0  0  0  0  0
    3.8645   23.2640    5.2552 C   0  0  0  0  0  0
    4.0655   23.5347    3.7684 C   0  0  0  0  0  0
    3.5490   24.7845    3.3760 O   0  0  0  0  0  0
    1.6551   31.4828    7.3421 N   0  0  0  0  0  0
    0.4574   31.9349    7.7852 C   0  0  0  0  0  0
   -0.3697   31.1694    8.6127 C   0  0  0  0  0  0
   -2.0614   31.8379    9.1812 Br  0  0  0  0  0  0
    1.0369   25.2460   10.3251 H   0  0  0  0  0  0
    0.6040   25.6739   11.9782 H   0  0  0  0  0  0
    2.2797   25.7693   11.4531 H   0  0  0  0  0  0
    1.8180   27.5712    9.9487 H   0  0  0  0  0  0
    1.9071   27.8610   12.3889 H   0  0  0  0  0  0
   -0.5451   27.1455    9.2234 H   0  0  0  0  0  0
   -1.6439   26.2570   11.1625 H   0  0  0  0  0  0
   -1.1858   27.6325   12.1752 H   0  0  0  0  0  0
   -2.3420   27.8608   10.9238 H   0  0  0  0  0  0
    3.7915   30.5472    6.8318 H   0  0  0  0  0  0
    3.8336   27.9893    9.2330 H   0  0  0  0  0  0
    4.4585   25.6618    8.7855 H   0  0  0  0  0  0
    4.6743   26.5127    4.5897 H   0  0  0  0  0  0
    3.9609   28.8140    5.0287 H   0  0  0  0  0  0
    9.1709   26.2239    4.6592 H   0  0  0  0  0  0
    8.7352   24.6683    3.9475 H   0  0  0  0  0  0
    6.4154   25.5232    3.4680 H   0  0  0  0  0  0
    6.8407   27.0551    4.1868 H   0  0  0  0  0  0
    9.6314   28.3647    1.2433 H   0  0  0  0  0  0
    9.1106   28.6917    2.9011 H   0  0  0  0  0  0
   10.1594   27.3287    2.5615 H   0  0  0  0  0  0
    8.5997   25.6561   -0.1272 H   0  0  0  0  0  0
    9.0347   24.7331    1.3035 H   0  0  0  0  0  0
    7.3820   24.6906    0.6992 H   0  0  0  0  0  0
    6.6810   27.9463    0.0424 H   0  0  0  0  0  0
    5.4936   27.3842    1.2228 H   0  0  0  0  0  0
    6.4557   28.8384    1.5436 H   0  0  0  0  0  0
    4.0071   22.2031    5.4464 H   0  0  0  0  0  0
    2.8581   23.5003    5.5391 H   0  0  0  0  0  0
    5.1136   23.4720    3.4755 H   0  0  0  0  0  0
    3.5790   22.7519    3.1857 H   0  0  0  0  0  0
    3.6588   24.8230    2.4026 H   0  0  0  0  0  0
    0.1682   32.9284    7.4725 H   0  0  0  0  0  0
  1  2  1  0  0  0
  1 36  1  0  0  0
  1 37  1  0  0  0
  1 38  1  0  0  0
  2  3  1  0  0  0
  2  4  1  0  0  0
  2 39  1  0  0  0
  3 40  1  0  0  0
  4  5  1  0  0  0
  4  6  1  0  0  0
  4 41  1  0  0  0
  5 42  1  0  0  0
  5 43  1  0  0  0
  5 44  1  0  0  0
  6  7  1  0  0  0
  7  8  2  0  0  0
  7 34  1  0  0  0
  8  9  1  0  0  0
  9 10  1  0  0  0
  9 32  2  0  0  0
 10 11  1  0  0  0
 10 45  1  0  0  0
 11 12  2  0  0  0
 11 16  1  0  0  0
 12 13  1  0  0  0
 12 46  1  0  0  0
 13 14  2  0  0  0
 13 47  1  0  0  0
 14 15  1  0  0  0
 14 17  1  0  0  0
 15 16  2  0  0  0
 15 48  1  0  0  0
 16 49  1  0  0  0
 17 18  2  0  0  0
 17 19  2  0  0  0
 17 29  1  0  0  0
 19 20  1  0  0  0
 20 21  2  0  0  0
 20 22  2  0  0  0
 20 23  1  0  0  0
 23 24  1  0  0  0
 23 50  1  0  0  0
 23 51  1  0  0  0
 24 25  1  0  0  0
 24 52  1  0  0  0
 24 53  1  0  0  0
 25 26  1  0  0  0
 25 27  1  0  0  0
 25 28  1  0  0  0
 26 54  1  0  0  0
 26 55  1  0  0  0
 26 56  1  0  0  0
 27 57  1  0  0  0
 27 58  1  0  0  0
 27 59  1  0  0  0
 28 60  1  0  0  0
 28 61  1  0  0  0
 28 62  1  0  0  0
 29 30  1  0  0  0
 29 63  1  0  0  0
 29 64  1  0  0  0
 30 31  1  0  0  0
 30 65  1  0  0  0
 30 66  1  0  0  0
 31 67  1  0  0  0
 32 33  1  0  0  0
 33 34  2  0  0  0
 33 68  1  0  0  0
 34 35  1  0  0  0
M  END
> <s_m_entry_id>
32641

> <s_m_entry_name>
dock_pv.42

> <s_m_Source_Path>
/home/csk/Desktop/cluster/DUD-E-result/cdk2

> <s_m_Source_File>
dock_pv.maegz

> <i_m_Source_File_Index>
42

> <chembl_id>
CHEMBL3648081

> <chembl_pref_name>
None

> <i_lp_mmshare_version>
53161

> <i_f3d_flags>
0

> <r_lp_tautomer_probability>
0.999999917912647

> <s_lp_Force_Field>
OPLS_2005

> <r_lp_Energy>
-0.706629

> <b_lp_Chiralities_Consistent>
1

> <s_lp_Variant>
CHEMBL301_lig1388-2

> <s_i_glide_gridfile>
glide-grid_1h00

> <i_i_glide_lignum>
1875

> <i_i_glide_rotatable_bonds>
14

> <r_i_docking_score>
-8.63075264400158

> <r_i_glide_ligand_efficiency>
-0.24659293268576

> <r_i_glide_ligand_efficiency_sa>
-0.80662183348305

> <r_i_glide_ligand_efficiency_ln>
-1.89464175459288

> <r_i_glide_gscore>
-8.63075264400158

> <r_i_glide_lipo>
-2.57043075858932

> <r_i_glide_hbond>
-0.438163659895299

> <r_i_glide_metal>
0

> <r_i_glide_rewards>
-1.07467838344553

> <r_i_glide_evdw>
-32.7430267333984

> <r_i_glide_ecoul>
-22.709300994873

> <r_i_glide_erotb>
0.498783669969832

> <r_i_glide_esite>
-0.00271702614039127

> <r_i_glide_emodel>
-75.8438370770167

> <r_i_glide_energy>
-55.4523277282715

> <r_i_glide_einternal>
10.7086210250854

> <i_i_glide_confnum>
30

> <i_i_glide_posenum>
259

> <r_i_glide_eff_state_penalty>
0

> <s_user_duplicate_titles>
CHEMBL301_lig1388

> <s_m_subgroup_title>
dock_pv

> <s_m_subgroupid>
dock_pv

> <b_m_subgroup_collapsed>
1

$$$$
CHEMBL301_lig26
                    3D
 Schrodinger Suite 2021-1.
 71 76  0  0  1  0            999 V2000
    4.2537   25.5112    5.0072 N   0  0  0  0  0  0
    4.4631   26.6825    5.6647 C   0  0  0  0  0  0
    4.8576   26.7476    7.0054 C   0  0  0  0  0  0
    5.0961   25.5410    7.6675 C   0  0  0  0  0  0
    4.9030   24.3305    7.0017 C   0  0  0  0  0  0
    4.4619   24.3389    5.6728 C   0  0  0  0  0  0
    5.0639   28.0714    7.7350 C   0  0  0  0  0  0
    4.0340   29.0622    7.4170 N   0  0  0  0  0  0
    2.8234   29.1728    8.1208 C   0  0  0  0  0  0
    2.4887   28.2396    9.0638 N   0  0  0  0  0  0
    1.2802   28.3533    9.6793 C   0  0  0  0  0  0
    0.3742   29.3342    9.4702 N   0  0  0  0  0  0
    1.9906   31.3490    7.0287 N   0  0  0  0  0  0
    1.9411   30.2446    7.8482 C   0  0  0  0  0  0
    0.7347   30.2425    8.5764 C   0  0  0  0  0  0
    0.0579   31.3873    8.2177 N   0  0  0  0  0  0
    0.9253   32.0411    7.3741 C   0  0  0  0  0  0
   -1.2180   31.8922    8.7447 C   0  0  0  0  0  0
   -2.3598   30.8524    8.7290 C   0  0  0  0  0  0
   -3.3017   31.2506    9.8622 C   0  0  0  0  0  0
   -2.4676   32.0720   10.8464 C   0  0  0  0  0  0
   -1.0952   32.2839   10.2152 C   0  0  0  0  0  0
    0.9268   27.3399   10.5794 N   0  0  0  0  0  0
   -0.4478   27.1900   11.0979 C   0  0  2  0  0  0
   -0.4512   27.1339   12.6367 C   0  0  0  0  0  0
    0.1591   25.8266   13.1700 C   0  0  0  0  0  0
   -0.4937   24.5682   12.5499 C   0  0  1  0  0  0
   -0.5002   24.6318   11.0020 C   0  0  0  0  0  0
   -1.1162   25.9447   10.4792 C   0  0  0  0  0  0
    0.0751   23.3389   13.0671 N   0  0  0  0  0  0
    4.2733   23.0725    4.8929 C   0  0  0  0  0  0
    4.6809   23.0214    3.5477 C   0  0  0  0  0  0
    4.5761   21.8506    2.7996 C   0  0  0  0  0  0
    4.0683   20.6944    3.3827 C   0  0  0  0  0  0
    3.6525   20.7194    4.7107 C   0  0  0  0  0  0
    3.7365   21.8947    5.4570 C   0  0  0  0  0  0
    3.2594   21.8500    6.7411 O   0  0  0  0  0  0
    4.2829   27.5826    5.0962 H   0  0  0  0  0  0
    5.4333   25.5351    8.6907 H   0  0  0  0  0  0
    5.1096   23.4029    7.5121 H   0  0  0  0  0  0
    5.1102   27.9109    8.8144 H   0  0  0  0  0  0
    6.0239   28.4813    7.4274 H   0  0  0  0  0  0
    4.2884   29.8564    6.8364 H   0  0  0  0  0  0
    0.6507   33.0116    6.9828 H   0  0  0  0  0  0
   -1.5108   32.7725    8.1744 H   0  0  0  0  0  0
   -2.8842   30.7994    7.7773 H   0  0  0  0  0  0
   -2.0058   29.8527    8.9765 H   0  0  0  0  0  0
   -4.1161   31.8475    9.4699 H   0  0  0  0  0  0
   -3.7549   30.3808   10.3418 H   0  0  0  0  0  0
   -2.9583   33.0182   11.0791 H   0  0  0  0  0  0
   -2.3420   31.5264   11.7761 H   0  0  0  0  0  0
   -0.4006   31.6182   10.7313 H   0  0  0  0  0  0
   -0.7451   33.3024   10.3588 H   0  0  0  0  0  0
    1.6054   26.6160   10.7586 H   0  0  0  0  0  0
   -1.0647   28.0452   10.8237 H   0  0  0  0  0  0
    0.0849   27.9921   13.0459 H   0  0  0  0  0  0
   -1.4775   27.2280   12.9968 H   0  0  0  0  0  0
    0.0579   25.8054   14.2561 H   0  0  0  0  0  0
    1.2253   25.8507   12.9465 H   0  0  0  0  0  0
   -1.5390   24.5940   12.8623 H   0  0  0  0  0  0
   -1.0653   23.7991   10.5845 H   0  0  0  0  0  0
    0.5182   24.5485   10.6230 H   0  0  0  0  0  0
   -2.1834   25.9600   10.7081 H   0  0  0  0  0  0
   -1.0516   25.9813    9.3894 H   0  0  0  0  0  0
   -0.4087   22.5403   12.6784 H   0  0  0  0  0  0
    1.0344   23.2638   12.7674 H   0  0  0  0  0  0
    5.0899   23.9000    3.0664 H   0  0  0  0  0  0
    4.8964   21.8452    1.7672 H   0  0  0  0  0  0
    4.0006   19.7852    2.8044 H   0  0  0  0  0  0
    3.2530   19.8251    5.1628 H   0  0  0  0  0  0
    2.7422   22.6354    6.9755 H   0  0  0  0  0  0
  1  2  2  0  0  0
  1  6  1  0  0  0
  2  3  1  0  0  0
  2 38  1  0  0  0
  3  4  2  0  0  0
  3  7  1  0  0  0
  4  5  1  0  0  0
  4 39  1  0  0  0
  5  6  2  0  0  0
  5 40  1  0  0  0
  6 31  1  0  0  0
  7  8  1  0  0  0
  7 41  1  0  0  0
  7 42  1  0  0  0
  8  9  1  0  0  0
  8 43  1  0  0  0
  9 10  1  0  0  0
  9 14  2  0  0  0
 10 11  2  0  0  0
 11 12  1  0  0  0
 11 23  1  0  0  0
 12 15  2  0  0  0
 13 14  1  0  0  0
 13 17  2  0  0  0
 14 15  1  0  0  0
 15 16  1  0  0  0
 16 17  1  0  0  0
 16 18  1  0  0  0
 17 44  1  0  0  0
 18 19  1  0  0  0
 18 22  1  0  0  0
 18 45  1  0  0  0
 19 20  1  0  0  0
 19 46  1  0  0  0
 19 47  1  0  0  0
 20 21  1  0  0  0
 20 48  1  0  0  0
 20 49  1  0  0  0
 21 22  1  0  0  0
 21 50  1  0  0  0
 21 51  1  0  0  0
 22 52  1  0  0  0
 22 53  1  0  0  0
 23 24  1  0  0  0
 23 54  1  0  0  0
 24 25  1  0  0  0
 24 29  1  0  0  0
 24 55  1  0  0  0
 25 26  1  0  0  0
 25 56  1  0  0  0
 25 57  1  0  0  0
 26 27  1  0  0  0
 26 58  1  0  0  0
 26 59  1  0  0  0
 27 28  1  0  0  0
 27 30  1  0  0  0
 27 60  1  0  0  0
 28 29  1  0  0  0
 28 61  1  0  0  0
 28 62  1  0  0  0
 29 63  1  0  0  0
 29 64  1  0  0  0
 30 65  1  0  0  0
 30 66  1  0  0  0
 31 32  2  0  0  0
 31 36  1  0  0  0
 32 33  1  0  0  0
 32 67  1  0  0  0
 33 34  2  0  0  0
 33 68  1  0  0  0
 34 35  1  0  0  0
 34 69  1  0  0  0
 35 36  2  0  0  0
 35 70  1  0  0  0
 36 37  1  0  0  0
 37 71  1  0  0  0
M  END
> <s_m_entry_id>
32642

> <s_m_entry_name>
dock_pv.43

> <s_m_Source_Path>
/home/csk/Desktop/cluster/DUD-E-result/cdk2

> <s_m_Source_File>
dock_pv.maegz

> <i_m_Source_File_Index>
43

> <chembl_id>
CHEMBL2402946

> <chembl_pref_name>
None

> <i_lp_mmshare_version>
53161

> <i_f3d_flags>
0

> <r_lp_tautomer_probability>
0.999999999997365

> <s_lp_Force_Field>
OPLS_2005

> <r_lp_Energy>
47.991917

> <b_lp_Chiralities_Consistent>
1

> <s_lp_Variant>
CHEMBL301_lig26-2

> <s_i_glide_gridfile>
glide-grid_1h00

> <i_i_glide_lignum>
91

> <i_i_glide_rotatable_bonds>
8

> <r_i_docking_score>
-8.61855203031786

> <r_i_glide_ligand_efficiency>
-0.232933838657239

> <r_i_glide_ligand_efficiency_sa>
-0.776187226227177

> <r_i_glide_ligand_efficiency_ln>
-1.86916188784965

> <r_i_glide_gscore>
-8.61855203031786

> <r_i_glide_lipo>
-2.8356254402241

> <r_i_glide_hbond>
-0.645010765167246

> <r_i_glide_metal>
0

> <r_i_glide_rewards>
-2.16574502208162

> <r_i_glide_evdw>
-45.1306037902832

> <r_i_glide_ecoul>
-7.45224046707153

> <r_i_glide_erotb>
0.402195456729995

> <r_i_glide_esite>
0

> <r_i_glide_emodel>
-73.5367722113126

> <r_i_glide_energy>
-52.5828442573547

> <r_i_glide_einternal>
7.90350484848022

> <i_i_glide_confnum>
112

> <i_i_glide_posenum>
317

> <r_i_glide_eff_state_penalty>
0

> <s_user_duplicate_titles>
CHEMBL301_lig26

> <s_m_subgroup_title>
dock_pv

> <s_m_subgroupid>
dock_pv

> <b_m_subgroup_collapsed>
1

$$$$
CHEMBL301_lig1338
                    3D
 Schrodinger Suite 2021-1.
 60 62  0  0  1  0            999 V2000
   -1.0016   29.2617   12.8946 C   0  0  0  0  0  0
   -0.8264   27.7360   12.9089 C   0  0  0  0  0  0
   -0.7459   27.0933   11.5007 C   0  0  1  0  0  0
    0.5211   27.3959   10.8234 N   0  0  0  0  0  0
    0.7148   28.4601    9.9376 C   0  0  0  0  0  0
    1.9365   28.4740    9.3500 N   0  0  0  0  0  0
    2.2004   29.4519    8.4367 C   0  0  0  0  0  0
    3.4452   29.5037    7.7867 N   0  0  0  0  0  0
    4.5755   28.6685    8.1821 C   0  0  0  0  0  0
    4.5360   27.3248    7.4772 C   0  0  0  0  0  0
    4.8579   27.2135    6.1194 C   0  0  0  0  0  0
    4.8122   25.9614    5.5020 C   0  0  0  0  0  0
    4.4574   24.8514    6.2720 C   0  0  0  0  0  0
    4.1635   24.9339    7.5950 N   0  0  0  0  0  0
    4.2037   26.1600    8.1759 C   0  0  0  0  0  0
    1.2381   30.4428    8.1764 C   0  0  0  0  0  0
    1.2586   31.5680    7.3919 N   0  0  0  0  0  0
    0.1878   32.2158    7.7767 C   0  0  0  0  0  0
   -0.6664   31.5030    8.5971 N   0  0  0  0  0  0
   -1.9699   31.9713    9.0918 C   0  0  0  0  0  0
   -1.8826   32.3390   10.5752 C   0  0  0  0  0  0
   -3.0774   30.9345    8.8321 C   0  0  0  0  0  0
    0.0280   30.3440    8.9031 C   0  0  0  0  0  0
   -0.2898   29.3583    9.7458 N   0  0  0  0  0  0
   -1.0784   25.5687   11.5250 C   0  0  1  0  0  0
   -1.1373   25.0601   10.2011 O   0  0  0  0  0  0
   -0.1849   24.6552   12.4255 C   0  0  0  0  0  0
    1.2810   24.5151   11.9571 C   0  0  0  0  0  0
   -0.8155   23.2601   12.6201 C   0  0  0  0  0  0
   -1.1504   29.6590   13.8958 H   0  0  0  0  0  0
   -0.1328   29.7648   12.4697 H   0  0  0  0  0  0
   -1.8802   29.5372   12.3114 H   0  0  0  0  0  0
   -1.6723   27.3126   13.4528 H   0  0  0  0  0  0
    0.0584   27.4751   13.4906 H   0  0  0  0  0  0
   -1.5430   27.5494   10.9106 H   0  0  0  0  0  0
    1.2859   26.7468   10.9228 H   0  0  0  0  0  0
    3.6356   30.3029    7.1931 H   0  0  0  0  0  0
    5.4966   29.1860    7.9094 H   0  0  0  0  0  0
    4.6065   28.5351    9.2652 H   0  0  0  0  0  0
    5.1346   28.0888    5.5488 H   0  0  0  0  0  0
    5.0462   25.8555    4.4525 H   0  0  0  0  0  0
    4.4033   23.8677    5.8294 H   0  0  0  0  0  0
    3.9512   26.2009    9.2257 H   0  0  0  0  0  0
   -0.1011   33.1977    7.4265 H   0  0  0  0  0  0
   -2.2199   32.8804    8.5468 H   0  0  0  0  0  0
   -2.8183   32.7709   10.9330 H   0  0  0  0  0  0
   -1.6845   31.4503   11.1718 H   0  0  0  0  0  0
   -1.0921   33.0697   10.7485 H   0  0  0  0  0  0
   -4.0486   31.3163    9.1468 H   0  0  0  0  0  0
   -3.1506   30.6902    7.7760 H   0  0  0  0  0  0
   -2.9071   30.0063    9.3788 H   0  0  0  0  0  0
   -2.0991   25.4879   11.9049 H   0  0  0  0  0  0
   -1.5844   25.7047    9.6473 H   0  0  0  0  0  0
   -0.1522   25.1065   13.4175 H   0  0  0  0  0  0
    1.3421   24.1840   10.9196 H   0  0  0  0  0  0
    1.8232   23.7906   12.5659 H   0  0  0  0  0  0
    1.8263   25.4534   12.0454 H   0  0  0  0  0  0
   -0.8534   22.7065   11.6815 H   0  0  0  0  0  0
   -0.2461   22.6611   13.3321 H   0  0  0  0  0  0
   -1.8347   23.3326   13.0020 H   0  0  0  0  0  0
  1  2  1  0  0  0
  1 30  1  0  0  0
  1 31  1  0  0  0
  1 32  1  0  0  0
  2  3  1  0  0  0
  2 33  1  0  0  0
  2 34  1  0  0  0
  3  4  1  0  0  0
  3 25  1  0  0  0
  3 35  1  0  0  0
  4  5  1  0  0  0
  4 36  1  0  0  0
  5  6  2  0  0  0
  5 24  1  0  0  0
  6  7  1  0  0  0
  7  8  1  0  0  0
  7 16  2  0  0  0
  8  9  1  0  0  0
  8 37  1  0  0  0
  9 10  1  0  0  0
  9 38  1  0  0  0
  9 39  1  0  0  0
 10 11  2  0  0  0
 10 15  1  0  0  0
 11 12  1  0  0  0
 11 40  1  0  0  0
 12 13  2  0  0  0
 12 41  1  0  0  0
 13 14  1  0  0  0
 13 42  1  0  0  0
 14 15  2  0  0  0
 15 43  1  0  0  0
 16 17  1  0  0  0
 16 23  1  0  0  0
 17 18  2  0  0  0
 18 19  1  0  0  0
 18 44  1  0  0  0
 19 20  1  0  0  0
 19 23  1  0  0  0
 20 21  1  0  0  0
 20 22  1  0  0  0
 20 45  1  0  0  0
 21 46  1  0  0  0
 21 47  1  0  0  0
 21 48  1  0  0  0
 22 49  1  0  0  0
 22 50  1  0  0  0
 22 51  1  0  0  0
 23 24  2  0  0  0
 25 26  1  0  0  0
 25 27  1  0  0  0
 25 52  1  0  0  0
 26 53  1  0  0  0
 27 28  1  0  0  0
 27 29  1  0  0  0
 27 54  1  0  0  0
 28 55  1  0  0  0
 28 56  1  0  0  0
 28 57  1  0  0  0
 29 58  1  0  0  0
 29 59  1  0  0  0
 29 60  1  0  0  0
M  END
> <s_m_entry_id>
32643

> <s_m_entry_name>
dock_pv.44

> <s_m_Source_Path>
/home/csk/Desktop/cluster/DUD-E-result/cdk2

> <s_m_Source_File>
dock_pv.maegz

> <i_m_Source_File_Index>
44

> <chembl_id>
CHEMBL1922121

> <chembl_pref_name>
None

> <i_lp_mmshare_version>
53161

> <i_f3d_flags>
0

> <r_lp_tautomer_probability>
1

> <s_lp_Force_Field>
OPLS_2005

> <r_lp_Energy>
24.910772

> <b_lp_Chiralities_Consistent>
1

> <s_lp_Variant>
CHEMBL301_lig1338-2

> <s_i_glide_gridfile>
glide-grid_1h00

> <i_i_glide_lignum>
1769

> <i_i_glide_rotatable_bonds>
10

> <r_i_docking_score>
-8.61663394593194

> <r_i_glide_ligand_efficiency>
-0.297125308480412

> <r_i_glide_ligand_efficiency_sa>
-0.91286308355684

> <r_i_glide_ligand_efficiency_ln>
-1.97299067463415

> <r_i_glide_gscore>
-8.61663394593194

> <r_i_glide_lipo>
-3.22870631235567

> <r_i_glide_hbond>
-0.32

> <r_i_glide_metal>
0

> <r_i_glide_rewards>
-2.953113547892

> <r_i_glide_evdw>
-44.0747337341309

> <r_i_glide_ecoul>
-4.36239385604858

> <r_i_glide_erotb>
0.74328167942956

> <r_i_glide_esite>
0

> <r_i_glide_emodel>
-69.1507367037435

> <r_i_glide_energy>
-48.4371275901794

> <r_i_glide_einternal>
6.64457082748413

> <i_i_glide_confnum>
28

> <i_i_glide_posenum>
187

> <r_i_glide_eff_state_penalty>
0

> <s_user_duplicate_titles>
CHEMBL301_lig1338

> <s_m_subgroup_title>
dock_pv

> <s_m_subgroupid>
dock_pv

> <b_m_subgroup_collapsed>
1

$$$$
CHEMBL301_lig517
                    3D
 Schrodinger Suite 2021-1.
 52 55  0  0  1  0            999 V2000
   -1.4346   27.9706   10.8221 N   0  0  0  0  0  0
    4.4686   25.9542    4.8084 C   0  0  0  0  0  0
    4.4577   24.7865    5.5901 C   0  0  0  0  0  0
    4.5340   24.9257    6.9851 C   0  0  0  0  0  0
    4.6093   26.1813    7.5787 C   0  0  0  0  0  0
    4.6070   27.3295    6.7866 C   0  0  0  0  0  0
    4.5412   27.2135    5.3983 C   0  0  0  0  0  0
    4.6360   28.7059    7.4393 C   0  0  0  0  0  0
    3.2642   29.1004    8.0077 C   0  0  0  0  0  0
    2.8488   28.5174    9.0045 O   0  0  0  0  0  0
    2.6298   30.1051    7.3718 N   0  0  0  0  0  0
    1.4367   30.7242    7.7220 C   0  0  0  0  0  0
    0.1312   32.4057    7.9573 N   0  0  0  0  0  0
    1.2579   31.9723    7.3711 N   0  0  0  0  0  0
   -0.4929   31.4029    8.6718 C   0  0  0  0  0  0
    0.3256   30.2521    8.5105 C   0  0  0  0  0  0
   -0.0699   29.0563    9.1248 C   0  0  0  0  0  0
   -1.1758   29.0593    9.9760 C   0  0  0  0  0  0
   -1.9492   30.2142   10.1272 C   0  0  0  0  0  0
   -1.6572   31.3965    9.4467 C   0  0  0  0  0  0
   -1.4414   26.6017   10.3086 C   0  0  0  0  0  0
   -0.1026   25.9004   10.6406 C   0  0  0  0  0  0
    0.7400   26.8086   11.5486 C   0  0  0  0  0  0
   -0.5266   27.9452   12.3298 S   0  0  0  0  0  0
    0.0582   29.2640   12.5795 O   0  0  0  0  0  0
   -1.1903   27.1621   13.3783 O   0  0  0  0  0  0
    4.3762   23.5004    4.9898 N   0  0  0  0  0  0
    4.0972   23.3773    3.5575 C   0  0  0  0  0  0
    4.2071   22.3012    5.8098 C   0  0  0  0  0  0
    4.4151   25.9084    3.7309 H   0  0  0  0  0  0
    4.5226   24.0680    7.6376 H   0  0  0  0  0  0
    4.6451   26.2654    8.6539 H   0  0  0  0  0  0
    4.5410   28.0965    4.7750 H   0  0  0  0  0  0
    5.3562   28.7064    8.2600 H   0  0  0  0  0  0
    4.9906   29.4513    6.7267 H   0  0  0  0  0  0
    3.1656   30.5805    6.6547 H   0  0  0  0  0  0
   -0.1651   33.3654    7.8329 H   0  0  0  0  0  0
    0.5195   28.1632    9.0078 H   0  0  0  0  0  0
   -2.7843   30.2029   10.8136 H   0  0  0  0  0  0
   -2.2634   32.2822    9.5794 H   0  0  0  0  0  0
   -2.3114   26.0229   10.6228 H   0  0  0  0  0  0
   -1.5351   26.5895    9.2200 H   0  0  0  0  0  0
   -0.3183   24.9561   11.1449 H   0  0  0  0  0  0
    0.4541   25.6300    9.7436 H   0  0  0  0  0  0
    1.2496   26.2513   12.3332 H   0  0  0  0  0  0
    1.4827   27.4072   11.0216 H   0  0  0  0  0  0
    3.1462   23.8518    3.3117 H   0  0  0  0  0  0
    4.0442   22.3399    3.2261 H   0  0  0  0  0  0
    4.8733   23.8765    2.9763 H   0  0  0  0  0  0
    5.0018   22.2205    6.5532 H   0  0  0  0  0  0
    3.2577   22.3409    6.3424 H   0  0  0  0  0  0
    4.2180   21.3890    5.2115 H   0  0  0  0  0  0
  1 18  1  0  0  0
  1 21  1  0  0  0
  1 24  1  0  0  0
  2  3  2  0  0  0
  2  7  1  0  0  0
  2 30  1  0  0  0
  3  4  1  0  0  0
  3 27  1  0  0  0
  4  5  2  0  0  0
  4 31  1  0  0  0
  5  6  1  0  0  0
  5 32  1  0  0  0
  6  8  1  0  0  0
  6  7  2  0  0  0
  7 33  1  0  0  0
  8  9  1  0  0  0
  8 34  1  0  0  0
  8 35  1  0  0  0
  9 10  2  0  0  0
  9 11  1  0  0  0
 11 12  1  0  0  0
 11 36  1  0  0  0
 12 14  2  0  0  0
 12 16  1  0  0  0
 13 15  1  0  0  0
 13 14  1  0  0  0
 13 37  1  0  0  0
 15 16  2  0  0  0
 15 20  1  0  0  0
 16 17  1  0  0  0
 17 18  2  0  0  0
 17 38  1  0  0  0
 18 19  1  0  0  0
 19 20  2  0  0  0
 19 39  1  0  0  0
 20 40  1  0  0  0
 21 22  1  0  0  0
 21 41  1  0  0  0
 21 42  1  0  0  0
 22 23  1  0  0  0
 22 43  1  0  0  0
 22 44  1  0  0  0
 23 24  1  0  0  0
 23 45  1  0  0  0
 23 46  1  0  0  0
 24 25  2  0  0  0
 24 26  2  0  0  0
 27 28  1  0  0  0
 27 29  1  0  0  0
 28 47  1  0  0  0
 28 48  1  0  0  0
 28 49  1  0  0  0
 29 50  1  0  0  0
 29 51  1  0  0  0
 29 52  1  0  0  0
M  END
> <s_m_entry_id>
32644

> <s_m_entry_name>
dock_pv.45

> <s_m_Source_Path>
/home/csk/Desktop/cluster/DUD-E-result/cdk2

> <s_m_Source_File>
dock_pv.maegz

> <i_m_Source_File_Index>
45

> <chembl_id>
CHEMBL257831

> <chembl_pref_name>
None

> <i_lp_mmshare_version>
53161

> <i_f3d_flags>
0

> <r_lp_tautomer_probability>
0.980392156862745

> <s_lp_Force_Field>
OPLS_2005

> <r_lp_Energy>
24.84294

> <b_lp_Chiralities_Consistent>
1

> <s_lp_Variant>
CHEMBL301_lig517-1

> <s_i_glide_gridfile>
glide-grid_1h00

> <i_i_glide_lignum>
718

> <i_i_glide_rotatable_bonds>
6

> <r_i_docking_score>
-8.60763939354463

> <r_i_glide_ligand_efficiency>
-0.296815151501539

> <r_i_glide_ligand_efficiency_sa>
-0.911910183053115

> <r_i_glide_ligand_efficiency_ln>
-1.97093115021963

> <r_i_glide_gscore>
-8.60763939354463

> <r_i_glide_lipo>
-2.94644790113541

> <r_i_glide_hbond>
-0.333557041153679

> <r_i_glide_metal>
0

> <r_i_glide_rewards>
-2.55664980682698

> <r_i_glide_evdw>
-44.7983474731445

> <r_i_glide_ecoul>
-7.38671731948853

> <r_i_glide_erotb>
0.576940327151939

> <r_i_glide_esite>
0

> <r_i_glide_emodel>
-75.3275171083316

> <r_i_glide_energy>
-52.1850647926331

> <r_i_glide_einternal>
7.52644729614258

> <i_i_glide_confnum>
147

> <i_i_glide_posenum>
111

> <r_i_glide_eff_state_penalty>
0

> <s_user_duplicate_titles>
CHEMBL301_lig517,424728

> <s_m_subgroup_title>
dock_pv

> <s_m_subgroupid>
dock_pv

> <b_m_subgroup_collapsed>
1

$$$$
CHEMBL301_lig66
                    3D
 Schrodinger Suite 2021-1.
 56 58  0  0  1  0            999 V2000
    0.7295   30.1498    8.6463 C   0  0  0  0  0  0
    0.0311   31.2915    8.2861 N   0  0  0  0  0  0
    1.9158   30.1709    7.8717 C   0  0  0  0  0  0
    0.4305   29.2332    9.5688 N   0  0  0  0  0  0
    1.9242   31.2495    7.0245 N   0  0  0  0  0  0
    1.4136   28.3151    9.7756 C   0  0  0  0  0  0
    2.5869   28.2242    9.0994 N   0  0  0  0  0  0
    2.8412   29.1358    8.1203 C   0  0  0  0  0  0
    0.8580   31.9250    7.3760 C   0  0  0  0  0  0
    1.2425   27.3496   10.7725 N   0  0  0  0  0  0
    4.0228   29.0520    7.3669 N   0  0  0  0  0  0
   -1.2284   31.8386    8.8369 C   0  0  0  0  0  0
   -0.0578   27.0257   11.3737 C   0  0  1  0  0  0
    4.9721   27.9432    7.4457 C   0  0  0  0  0  0
   -0.0760   25.5925   11.9923 C   0  0  0  0  0  0
    4.6439   27.2657    5.0024 C   0  0  0  0  0  0
    4.7283   26.9009    6.3556 C   0  0  0  0  0  0
    4.4578   26.2936    4.0148 C   0  0  0  0  0  0
    4.3610   26.6532    2.6948 O   0  0  0  0  0  0
   -2.0247   28.1907   12.1760 O   0  0  0  0  0  0
   -0.6139   28.1397   12.3084 C   0  0  0  0  0  0
    4.4555   24.5777    5.7154 C   0  0  0  0  0  0
    4.3632   24.9500    4.3738 C   0  0  0  0  0  0
    4.6418   25.5482    6.7011 C   0  0  0  0  0  0
   -1.0195   32.2966   10.2811 C   0  0  0  0  0  0
   -2.4025   30.8409    8.7879 C   0  0  0  0  0  0
    0.2069   24.5083   10.9321 C   0  0  0  0  0  0
   -1.3801   25.2352   12.7401 C   0  0  0  0  0  0
    0.5649   32.8865    6.9762 H   0  0  0  0  0  0
    1.9967   26.6889   10.8813 H   0  0  0  0  0  0
    4.1962   29.7847    6.6880 H   0  0  0  0  0  0
   -1.4987   32.7104    8.2374 H   0  0  0  0  0  0
   -0.7342   26.9901   10.5158 H   0  0  0  0  0  0
    5.9789   28.3403    7.3197 H   0  0  0  0  0  0
    4.9446   27.4785    8.4333 H   0  0  0  0  0  0
    0.7343   25.5474   12.7225 H   0  0  0  0  0  0
    4.7278   28.3036    4.7157 H   0  0  0  0  0  0
    4.2839   25.8989    2.0848 H   0  0  0  0  0  0
   -2.4191   28.7184   12.8836 H   0  0  0  0  0  0
   -0.3337   27.9657   13.3478 H   0  0  0  0  0  0
   -0.2513   29.1325   12.0441 H   0  0  0  0  0  0
    4.3764   23.5367    5.9917 H   0  0  0  0  0  0
    4.2145   24.1959    3.6138 H   0  0  0  0  0  0
    4.7117   25.2472    7.7366 H   0  0  0  0  0  0
   -1.9310   32.7354   10.6902 H   0  0  0  0  0  0
   -0.2438   33.0521   10.3572 H   0  0  0  0  0  0
   -0.7462   31.4529   10.9192 H   0  0  0  0  0  0
   -3.2707   31.2438    9.3114 H   0  0  0  0  0  0
   -2.7394   30.6520    7.7760 H   0  0  0  0  0  0
   -2.1629   29.8914    9.2683 H   0  0  0  0  0  0
   -0.5777   24.5071   10.1762 H   0  0  0  0  0  0
    1.1582   24.6674   10.4228 H   0  0  0  0  0  0
    0.2431   23.5125   11.3758 H   0  0  0  0  0  0
   -2.2494   25.3219   12.0862 H   0  0  0  0  0  0
   -1.3545   24.2136   13.1204 H   0  0  0  0  0  0
   -1.5463   25.8849   13.6000 H   0  0  0  0  0  0
  1  2  1  0  0  0
  1  3  2  0  0  0
  1  4  1  0  0  0
  2  9  1  0  0  0
  2 12  1  0  0  0
  3  5  1  0  0  0
  3  8  1  0  0  0
  4  6  2  0  0  0
  5  9  2  0  0  0
  6  7  1  0  0  0
  6 10  1  0  0  0
  7  8  2  0  0  0
  8 11  1  0  0  0
  9 29  1  0  0  0
 10 13  1  0  0  0
 10 30  1  0  0  0
 11 14  1  0  0  0
 11 31  1  0  0  0
 12 25  1  0  0  0
 12 26  1  0  0  0
 12 32  1  0  0  0
 13 15  1  0  0  0
 13 21  1  0  0  0
 13 33  1  0  0  0
 14 17  1  0  0  0
 14 34  1  0  0  0
 14 35  1  0  0  0
 15 27  1  0  0  0
 15 28  1  0  0  0
 15 36  1  0  0  0
 16 17  1  0  0  0
 16 18  2  0  0  0
 16 37  1  0  0  0
 17 24  2  0  0  0
 18 19  1  0  0  0
 18 23  1  0  0  0
 19 38  1  0  0  0
 20 21  1  0  0  0
 20 39  1  0  0  0
 21 40  1  0  0  0
 21 41  1  0  0  0
 22 24  1  0  0  0
 22 23  2  0  0  0
 22 42  1  0  0  0
 23 43  1  0  0  0
 24 44  1  0  0  0
 25 45  1  0  0  0
 25 46  1  0  0  0
 25 47  1  0  0  0
 26 48  1  0  0  0
 26 49  1  0  0  0
 26 50  1  0  0  0
 27 51  1  0  0  0
 27 52  1  0  0  0
 27 53  1  0  0  0
 28 54  1  0  0  0
 28 55  1  0  0  0
 28 56  1  0  0  0
M  END
> <s_m_entry_id>
32645

> <s_m_entry_name>
dock_pv.46

> <s_m_Source_Path>
/home/csk/Desktop/cluster/DUD-E-result/cdk2

> <s_m_Source_File>
dock_pv.maegz

> <i_m_Source_File_Index>
46

> <chembl_id>
CHEMBL84944

> <chembl_pref_name>
None

> <i_lp_mmshare_version>
53161

> <i_f3d_flags>
0

> <r_lp_tautomer_probability>
0.999999999997365

> <s_lp_Force_Field>
OPLS_2005

> <r_lp_Energy>
23.581819

> <b_lp_Chiralities_Consistent>
1

> <s_lp_Variant>
CHEMBL301_lig66-2

> <s_i_glide_gridfile>
glide-grid_1h00

> <i_i_glide_lignum>
149

> <i_i_glide_rotatable_bonds>
10

> <r_i_docking_score>
-8.60501629407582

> <r_i_glide_ligand_efficiency>
-0.307322010502708

> <r_i_glide_ligand_efficiency_sa>
-0.933210626870629

> <r_i_glide_ligand_efficiency_ln>
-1.98629041492961

> <r_i_glide_gscore>
-8.60501629407582

> <r_i_glide_lipo>
-2.77439286631316

> <r_i_glide_hbond>
-0.559008757108406

> <r_i_glide_metal>
0

> <r_i_glide_rewards>
-2.90115972689619

> <r_i_glide_evdw>
-39.574592590332

> <r_i_glide_ecoul>
-7.76671838760376

> <r_i_glide_erotb>
0.789182069614591

> <r_i_glide_esite>
-0.0158996257154871

> <r_i_glide_emodel>
-72.4723897555619

> <r_i_glide_energy>
-47.3413109779358

> <r_i_glide_einternal>
3.09619498252869

> <i_i_glide_confnum>
3

> <i_i_glide_posenum>
365

> <r_i_glide_eff_state_penalty>
0

> <s_user_duplicate_titles>
CHEMBL301_lig66,134853

> <s_m_subgroup_title>
dock_pv

> <s_m_subgroupid>
dock_pv

> <b_m_subgroup_collapsed>
1

$$$$
CHEMBL301_lig489
                    3D
 Schrodinger Suite 2021-1.
 51 54  0  0  1  0            999 V2000
   -0.0423   32.4267    8.1760 C   0  0  0  0  0  0
   -0.7313   31.6265    9.0886 C   0  0  0  0  0  0
   -0.2722   30.3001    9.2409 C   0  0  0  0  0  0
    0.7766   29.8520    8.4946 N   0  0  0  0  0  0
    1.3632   30.6903    7.5977 C   0  0  0  0  0  0
    0.9842   31.9769    7.4033 N   0  0  0  0  0  0
   -0.7843   29.2868   10.2353 C   0  0  0  0  0  0
   -2.1014   28.2592   11.7760 N   0  0  0  0  0  0
   -1.9653   29.3468   10.9585 C   0  0  0  0  0  0
   -1.0259   27.4212   11.6158 C   0  0  0  0  0  0
   -0.1529   28.0489   10.6685 C   0  0  0  0  0  0
    1.0559   27.3921   10.3646 C   0  0  0  0  0  0
    1.3435   26.1645   10.9582 C   0  0  0  0  0  0
    0.4594   25.5756   11.8562 C   0  0  0  0  0  0
   -0.7393   26.1900   12.2153 C   0  0  0  0  0  0
   -2.0087   32.3512   10.0017 Cl  0  0  0  0  0  0
    2.4579   30.2520    6.8255 N   0  0  0  0  0  0
    3.1681   29.0002    7.0921 C   0  0  0  0  0  0
    3.9486   28.5141    5.8617 C   0  0  0  0  0  0
    4.7364   27.2169    6.1718 C   0  0  0  0  0  0
    5.5906   27.3073    7.3763 N   0  0  1  0  0  0
    4.9016   27.8835    8.5456 C   0  0  0  0  0  0
    4.1527   29.1906    8.2333 C   0  0  0  0  0  0
    6.1437   25.9929    7.7756 C   0  0  0  0  0  0
    7.1998   25.4100    6.8110 C   0  0  0  0  0  0
    7.9167   26.2520    6.0499 N   0  0  0  0  0  0
    7.3711   24.1908    6.7994 O   0  0  0  0  0  0
    8.9799   25.8694    5.1288 C   0  0  0  0  0  0
   -0.3353   33.4522    8.0299 H   0  0  0  0  0  0
   -2.8824   28.1558   12.4131 H   0  0  0  0  0  0
   -2.7466   30.0901   10.9760 H   0  0  0  0  0  0
    1.7665   27.8230    9.6789 H   0  0  0  0  0  0
    2.2746   25.6685   10.7227 H   0  0  0  0  0  0
    0.7178   24.6238   12.2963 H   0  0  0  0  0  0
   -1.4120   25.7308   12.9242 H   0  0  0  0  0  0
    3.0107   30.9640    6.3595 H   0  0  0  0  0  0
    2.4580   28.2521    7.4203 H   0  0  0  0  0  0
    4.6321   29.2729    5.4788 H   0  0  0  0  0  0
    3.2584   28.3160    5.0421 H   0  0  0  0  0  0
    5.3444   26.9328    5.3121 H   0  0  0  0  0  0
    4.0327   26.3976    6.3135 H   0  0  0  0  0  0
    4.1933   27.1552    8.9471 H   0  0  0  0  0  0
    5.6360   28.0521    9.3334 H   0  0  0  0  0  0
    3.5499   29.4515    9.0930 H   0  0  0  0  0  0
    4.8492   30.0162    8.0789 H   0  0  0  0  0  0
    5.3397   25.2672    7.9154 H   0  0  0  0  0  0
    6.6596   26.0784    8.7335 H   0  0  0  0  0  0
    7.6643   27.2375    6.0555 H   0  0  0  0  0  0
    8.8350   26.3743    4.1732 H   0  0  0  0  0  0
    9.0131   24.7948    4.9394 H   0  0  0  0  0  0
    9.9468   26.1774    5.5282 H   0  0  0  0  0  0
  1  2  2  0  0  0
  1  6  1  0  0  0
  1 29  1  0  0  0
  2 16  1  0  0  0
  2  3  1  0  0  0
  3  7  1  0  0  0
  3  4  2  0  0  0
  4  5  1  0  0  0
  5 17  1  0  0  0
  5  6  2  0  0  0
  7 11  1  0  0  0
  7  9  2  0  0  0
  8 10  1  0  0  0
  8  9  1  0  0  0
  8 30  1  0  0  0
  9 31  1  0  0  0
 10 15  1  0  0  0
 10 11  2  0  0  0
 11 12  1  0  0  0
 12 13  2  0  0  0
 12 32  1  0  0  0
 13 14  1  0  0  0
 13 33  1  0  0  0
 14 15  2  0  0  0
 14 34  1  0  0  0
 15 35  1  0  0  0
 17 18  1  0  0  0
 17 36  1  0  0  0
 18 19  1  0  0  0
 18 23  1  0  0  0
 18 37  1  0  0  0
 19 20  1  0  0  0
 19 38  1  0  0  0
 19 39  1  0  0  0
 20 21  1  0  0  0
 20 40  1  0  0  0
 20 41  1  0  0  0
 21 22  1  0  0  0
 21 24  1  0  0  0
 22 23  1  0  0  0
 22 42  1  0  0  0
 22 43  1  0  0  0
 23 44  1  0  0  0
 23 45  1  0  0  0
 24 25  1  0  0  0
 24 46  1  0  0  0
 24 47  1  0  0  0
 25 26  1  0  0  0
 25 27  2  0  0  0
 26 28  1  0  0  0
 26 48  1  0  0  0
 28 49  1  0  0  0
 28 50  1  0  0  0
 28 51  1  0  0  0
M  END
> <s_m_entry_id>
32646

> <s_m_entry_name>
dock_pv.47

> <s_m_Source_Path>
/home/csk/Desktop/cluster/DUD-E-result/cdk2

> <s_m_Source_File>
dock_pv.maegz

> <i_m_Source_File_Index>
47

> <chembl_id>
CHEMBL245336

> <chembl_pref_name>
None

> <i_lp_mmshare_version>
53161

> <i_f3d_flags>
0

> <r_lp_tautomer_probability>
0.999999987636

> <s_lp_Force_Field>
OPLS_2005

> <r_lp_Energy>
17.588499

> <b_lp_Chiralities_Consistent>
1

> <s_lp_Variant>
CHEMBL301_lig489-1

> <s_i_glide_gridfile>
glide-grid_1h00

> <i_i_glide_lignum>
680

> <i_i_glide_rotatable_bonds>
6

> <r_i_docking_score>
-8.57289270594025

> <r_i_glide_ligand_efficiency>
-0.306174739497866

> <r_i_glide_ligand_efficiency_sa>
-0.929726836393444

> <r_i_glide_ligand_efficiency_ln>
-1.97887534759839

> <r_i_glide_gscore>
-8.57289270594025

> <r_i_glide_lipo>
-2.93285957595845

> <r_i_glide_hbond>
-0.608757523895772

> <r_i_glide_metal>
0

> <r_i_glide_rewards>
-2.31421719530594

> <r_i_glide_evdw>
-40.4625396728516

> <r_i_glide_ecoul>
-8.17671394348145

> <r_i_glide_erotb>
0.61557398411359

> <r_i_glide_esite>
-0.0829983197288906

> <r_i_glide_emodel>
-68.2820474986116

> <r_i_glide_energy>
-48.639253616333

> <r_i_glide_einternal>
4.56691694259644

> <i_i_glide_confnum>
62

> <i_i_glide_posenum>
95

> <r_i_glide_eff_state_penalty>
0

> <s_user_duplicate_titles>
CHEMBL301_lig489,410904

> <s_m_subgroup_title>
dock_pv

> <s_m_subgroupid>
dock_pv

> <b_m_subgroup_collapsed>
1

$$$$
CHEMBL301_lig497
                    3D
 Schrodinger Suite 2021-1.
 51 54  0  0  1  0            999 V2000
    0.5690   32.4961    7.7760 C   0  0  0  0  0  0
   -0.3419   31.8884    8.6364 C   0  0  0  0  0  0
   -0.1394   30.5127    8.8777 C   0  0  0  0  0  0
    0.9007   29.8520    8.2995 N   0  0  0  0  0  0
    1.7343   30.5307    7.4793 C   0  0  0  0  0  0
    1.5885   31.8389    7.1612 N   0  0  0  0  0  0
    2.8580   29.8913    6.9358 N   0  0  0  0  0  0
    3.3823   28.5821    7.3004 C   0  0  0  0  0  0
    3.9570   27.9530    6.0137 C   0  0  0  0  0  0
    4.6033   26.5751    6.2645 C   0  0  0  0  0  0
    5.6583   26.7802    7.2844 N   0  0  0  0  0  0
    5.1807   27.3241    8.5741 C   0  0  0  0  0  0
    4.5216   28.7004    8.3172 C   0  0  0  0  0  0
    6.8463   26.1134    7.2385 C   0  0  0  0  0  0
    7.5142   25.8521    8.2428 O   0  0  0  0  0  0
    7.3138   25.8496    6.0025 N   0  0  0  0  0  0
    8.5873   25.1971    5.6982 C   0  0  0  0  0  0
    8.5571   23.6773    5.9226 C   0  0  0  0  0  0
   -0.9193   29.7354    9.7760 N   0  0  0  0  0  0
   -1.5238   32.8914    9.4108 Cl  0  0  0  0  0  0
   -2.7105   29.0520   10.9787 C   0  0  0  0  0  0
   -2.2606   29.9335   10.0365 C   0  0  0  0  0  0
   -1.6353   28.1695   11.2759 C   0  0  0  0  0  0
   -0.5099   28.6121   10.5116 C   0  0  0  0  0  0
    0.7192   27.9292   10.5835 C   0  0  0  0  0  0
    0.7804   26.7862   11.3762 C   0  0  0  0  0  0
   -0.3054   26.3541   12.1296 C   0  0  0  0  0  0
   -1.5147   27.0428   12.1016 C   0  0  0  0  0  0
    0.5039   33.5461    7.5825 H   0  0  0  0  0  0
    3.5138   30.5028    6.4524 H   0  0  0  0  0  0
    2.6047   27.9877    7.7760 H   0  0  0  0  0  0
    4.6953   28.6161    5.5551 H   0  0  0  0  0  0
    3.1715   27.8519    5.2707 H   0  0  0  0  0  0
    4.9817   26.2059    5.3110 H   0  0  0  0  0  0
    3.8698   25.8694    6.6582 H   0  0  0  0  0  0
    4.4430   26.6297    8.9760 H   0  0  0  0  0  0
    5.9893   27.4522    9.2948 H   0  0  0  0  0  0
    4.1109   29.0509    9.2589 H   0  0  0  0  0  0
    5.2659   29.4362    8.0072 H   0  0  0  0  0  0
    6.7936   26.2022    5.2140 H   0  0  0  0  0  0
    9.3904   25.6499    6.2838 H   0  0  0  0  0  0
    8.8287   25.4032    4.6549 H   0  0  0  0  0  0
    9.5211   23.2335    5.6731 H   0  0  0  0  0  0
    7.8050   23.1980    5.2950 H   0  0  0  0  0  0
    8.3459   23.4300    6.9633 H   0  0  0  0  0  0
   -3.7081   29.0317   11.3908 H   0  0  0  0  0  0
   -2.8143   30.7106    9.5330 H   0  0  0  0  0  0
    1.5995   28.2430   10.0453 H   0  0  0  0  0  0
    1.7133   26.2435   11.4393 H   0  0  0  0  0  0
   -0.2027   25.4772   12.7521 H   0  0  0  0  0  0
   -2.3547   26.7056   12.6906 H   0  0  0  0  0  0
  1  2  2  0  0  0
  1  6  1  0  0  0
  1 29  1  0  0  0
  2 20  1  0  0  0
  2  3  1  0  0  0
  3  4  2  0  0  0
  3 19  1  0  0  0
  4  5  1  0  0  0
  5  7  1  0  0  0
  5  6  2  0  0  0
  7  8  1  0  0  0
  7 30  1  0  0  0
  8  9  1  0  0  0
  8 13  1  0  0  0
  8 31  1  0  0  0
  9 10  1  0  0  0
  9 32  1  0  0  0
  9 33  1  0  0  0
 10 11  1  0  0  0
 10 34  1  0  0  0
 10 35  1  0  0  0
 11 14  1  0  0  0
 11 12  1  0  0  0
 12 13  1  0  0  0
 12 36  1  0  0  0
 12 37  1  0  0  0
 13 38  1  0  0  0
 13 39  1  0  0  0
 14 15  2  0  0  0
 14 16  1  0  0  0
 16 17  1  0  0  0
 16 40  1  0  0  0
 17 18  1  0  0  0
 17 41  1  0  0  0
 17 42  1  0  0  0
 18 43  1  0  0  0
 18 44  1  0  0  0
 18 45  1  0  0  0
 19 24  1  0  0  0
 19 22  1  0  0  0
 21 23  1  0  0  0
 21 22  2  0  0  0
 21 46  1  0  0  0
 22 47  1  0  0  0
 23 24  2  0  0  0
 23 28  1  0  0  0
 24 25  1  0  0  0
 25 26  2  0  0  0
 25 48  1  0  0  0
 26 27  1  0  0  0
 26 49  1  0  0  0
 27 28  2  0  0  0
 27 50  1  0  0  0
 28 51  1  0  0  0
M  END
> <s_m_entry_id>
32647

> <s_m_entry_name>
dock_pv.48

> <s_m_Source_Path>
/home/csk/Desktop/cluster/DUD-E-result/cdk2

> <s_m_Source_File>
dock_pv.maegz

> <i_m_Source_File_Index>
48

> <chembl_id>
CHEMBL245925

> <chembl_pref_name>
None

> <i_lp_mmshare_version>
53161

> <i_f3d_flags>
0

> <r_lp_tautomer_probability>
1

> <s_lp_Force_Field>
OPLS_2005

> <r_lp_Energy>
32.431191

> <b_lp_Chiralities_Consistent>
1

> <s_lp_Variant>
CHEMBL301_lig497-1

> <s_i_glide_gridfile>
glide-grid_1h00

> <i_i_glide_lignum>
689

> <i_i_glide_rotatable_bonds>
6

> <r_i_docking_score>
-8.57104959372029

> <r_i_glide_ligand_efficiency>
-0.306108914061439

> <r_i_glide_ligand_efficiency_sa>
-0.929526951599342

> <r_i_glide_ligand_efficiency_ln>
-1.97844990318189

> <r_i_glide_gscore>
-8.57104959372029

> <r_i_glide_lipo>
-2.39442161620435

> <r_i_glide_hbond>
-0.429507007946595

> <r_i_glide_metal>
0

> <r_i_glide_rewards>
-3.10770026068545

> <r_i_glide_evdw>
-35.1833152770996

> <r_i_glide_ecoul>
-8.50464248657227

> <r_i_glide_erotb>
0.430901788879513

> <r_i_glide_esite>
-0.0354603609225795

> <r_i_glide_emodel>
-61.5095456622524

> <r_i_glide_energy>
-43.6879577636719

> <r_i_glide_einternal>
9.17891979217529

> <i_i_glide_confnum>
35

> <i_i_glide_posenum>
6

> <r_i_glide_eff_state_penalty>
0

> <s_user_duplicate_titles>
CHEMBL301_lig497

> <s_m_subgroup_title>
dock_pv

> <s_m_subgroupid>
dock_pv

> <b_m_subgroup_collapsed>
1

$$$$
CHEMBL301_lig1109
                    3D
 Schrodinger Suite 2021-1.
 55 59  0  0  1  0            999 V2000
    4.2133   28.2841    5.7831 C   0  0  0  0  0  0
    3.6579   28.6989    6.9943 C   0  0  0  0  0  0
    3.9097   27.9631    8.1562 C   0  0  0  0  0  0
    4.6780   26.8054    8.0878 C   0  0  0  0  0  0
    5.2237   26.3878    6.8769 C   0  0  0  0  0  0
    4.9902   27.1194    5.7139 C   0  0  0  0  0  0
    5.6189   26.6697    4.5425 N   0  0  0  0  0  0
    0.1745   29.7993    9.4075 C   0  0  0  0  0  0
    1.2581   31.4922    7.3985 N   0  0  0  0  0  0
    1.7593   30.2733    7.7345 C   0  0  0  0  0  0
    1.2853   29.4518    8.6996 N   0  0  0  0  0  0
    2.8575   29.8519    6.9763 N   0  0  0  0  0  0
    0.2198   31.8520    8.1649 C   0  0  0  0  0  0
   -0.4043   31.0611    9.1625 C   0  0  0  0  0  0
   -1.4481   31.7422    9.7345 N   0  0  0  0  0  0
   -1.4277   32.9119    9.1520 C   0  0  0  0  0  0
   -0.4416   33.0515    8.2019 N   0  0  0  0  0  0
   -0.2989   28.8037   10.4288 C   0  0  0  0  0  0
   -1.6136   28.8159   10.9138 C   0  0  0  0  0  0
   -2.0539   27.8639   11.8296 C   0  0  0  0  0  0
   -1.1852   26.8667   12.2887 C   0  0  0  0  0  0
    0.1249   26.8526   11.8249 C   0  0  0  0  0  0
    0.5646   27.8074   10.9147 C   0  0  0  0  0  0
   -1.5296   25.8682   13.1805 O   0  0  0  0  0  0
    5.3000   26.9475    3.2602 C   0  0  0  0  0  0
    6.2810   26.6669    2.3619 N   0  0  0  0  0  0
    4.2218   27.4471    2.9275 O   0  0  0  0  0  0
   -2.8503   25.8298   13.7144 C   0  0  0  0  0  0
    6.1583   27.0197    0.9425 C   0  0  0  0  0  0
    7.3048   26.2485    0.2930 C   0  0  0  0  0  0
    8.3723   26.2190    1.3709 C   0  0  0  0  0  0
    7.5800   26.0348    2.6655 C   0  0  0  0  0  0
    4.0451   28.8844    4.9031 H   0  0  0  0  0  0
    3.5104   28.2755    9.1084 H   0  0  0  0  0  0
    4.8558   26.2235    8.9745 H   0  0  0  0  0  0
    5.8279   25.4917    6.8525 H   0  0  0  0  0  0
    6.4625   26.1375    4.6878 H   0  0  0  0  0  0
    3.2241   30.5788    6.3749 H   0  0  0  0  0  0
   -2.0882   33.7380    9.3747 H   0  0  0  0  0  0
   -0.2688   33.8983    7.6646 H   0  0  0  0  0  0
   -2.3270   29.5516   10.5752 H   0  0  0  0  0  0
   -3.0755   27.9259   12.1752 H   0  0  0  0  0  0
    0.8159   26.1013   12.1781 H   0  0  0  0  0  0
    1.5917   27.7633   10.5858 H   0  0  0  0  0  0
   -2.9819   24.9042   14.2731 H   0  0  0  0  0  0
   -3.0235   26.6532   14.4029 H   0  0  0  0  0  0
   -3.6136   25.8519   12.9374 H   0  0  0  0  0  0
    6.3118   28.0934    0.8232 H   0  0  0  0  0  0
    5.2043   26.7091    0.5162 H   0  0  0  0  0  0
    7.6409   26.6986   -0.6425 H   0  0  0  0  0  0
    6.9783   25.2324    0.0599 H   0  0  0  0  0  0
    9.1222   25.4389    1.2217 H   0  0  0  0  0  0
    8.9078   27.1702    1.3909 H   0  0  0  0  0  0
    7.4400   24.9683    2.8573 H   0  0  0  0  0  0
    8.1025   26.5221    3.4898 H   0  0  0  0  0  0
  1  6  1  0  0  0
  1  2  2  0  0  0
  1 33  1  0  0  0
  2  3  1  0  0  0
  2 12  1  0  0  0
  3  4  2  0  0  0
  3 34  1  0  0  0
  4  5  1  0  0  0
  4 35  1  0  0  0
  5  6  2  0  0  0
  5 36  1  0  0  0
  6  7  1  0  0  0
  7 25  1  0  0  0
  7 37  1  0  0  0
  8 14  2  0  0  0
  8 18  1  0  0  0
  8 11  1  0  0  0
  9 13  2  0  0  0
  9 10  1  0  0  0
 10 11  2  0  0  0
 10 12  1  0  0  0
 12 38  1  0  0  0
 13 17  1  0  0  0
 13 14  1  0  0  0
 14 15  1  0  0  0
 15 16  2  0  0  0
 16 17  1  0  0  0
 16 39  1  0  0  0
 17 40  1  0  0  0
 18 19  2  0  0  0
 18 23  1  0  0  0
 19 20  1  0  0  0
 19 41  1  0  0  0
 20 21  2  0  0  0
 20 42  1  0  0  0
 21 22  1  0  0  0
 21 24  1  0  0  0
 22 23  2  0  0  0
 22 43  1  0  0  0
 23 44  1  0  0  0
 24 28  1  0  0  0
 25 26  1  0  0  0
 25 27  2  0  0  0
 26 29  1  0  0  0
 26 32  1  0  0  0
 28 45  1  0  0  0
 28 46  1  0  0  0
 28 47  1  0  0  0
 29 30  1  0  0  0
 29 48  1  0  0  0
 29 49  1  0  0  0
 30 31  1  0  0  0
 30 50  1  0  0  0
 30 51  1  0  0  0
 31 32  1  0  0  0
 31 52  1  0  0  0
 31 53  1  0  0  0
 32 54  1  0  0  0
 32 55  1  0  0  0
M  END
> <s_m_entry_id>
32648

> <s_m_entry_name>
dock_pv.49

> <s_m_Source_Path>
/home/csk/Desktop/cluster/DUD-E-result/cdk2

> <s_m_Source_File>
dock_pv.maegz

> <i_m_Source_File_Index>
49

> <chembl_id>
CHEMBL1933347

> <chembl_pref_name>
None

> <i_lp_mmshare_version>
53161

> <i_f3d_flags>
0

> <r_lp_tautomer_probability>
1

> <s_lp_Force_Field>
OPLS_2005

> <r_lp_Energy>
61.285049

> <b_lp_Chiralities_Consistent>
1

> <s_lp_Variant>
CHEMBL301_lig1109-1

> <s_i_glide_gridfile>
glide-grid_1h00

> <i_i_glide_lignum>
1516

> <i_i_glide_rotatable_bonds>
7

> <r_i_docking_score>
-8.5571117903378

> <r_i_glide_ligand_efficiency>
-0.267409743448056

> <r_i_glide_ligand_efficiency_sa>
-0.84897301513121

> <r_i_glide_ligand_efficiency_ln>
-1.91617058791431

> <r_i_glide_gscore>
-8.5571117903378

> <r_i_glide_lipo>
-1.9926631197671

> <r_i_glide_hbond>
-0.56653307453502

> <r_i_glide_metal>
0

> <r_i_glide_rewards>
-3.11627213323193

> <r_i_glide_evdw>
-42.5019340515137

> <r_i_glide_ecoul>
-9.07113742828369

> <r_i_glide_erotb>
0.646450163466899

> <r_i_glide_esite>
-0.0423263094524127

> <r_i_glide_emodel>
-75.3864249179236

> <r_i_glide_energy>
-51.5730714797974

> <r_i_glide_einternal>
2.74420237541199

> <i_i_glide_confnum>
23

> <i_i_glide_posenum>
315

> <r_i_glide_eff_state_penalty>
0

> <s_user_duplicate_titles>
CHEMBL301_lig1109

> <s_m_subgroup_title>
dock_pv

> <s_m_subgroupid>
dock_pv

> <b_m_subgroup_collapsed>
1

$$$$
CHEMBL301_lig1090
                    3D
 Schrodinger Suite 2021-1.
 54 57  0  0  1  0            999 V2000
   -1.0136   31.8913    8.9921 C   0  0  0  0  0  0
   -0.2862   32.7620    8.1760 C   0  0  0  0  0  0
    0.8551   32.4372    7.5103 N   0  0  0  0  0  0
   -0.5476   30.5845    9.2069 C   0  0  0  0  0  0
   -1.3401   29.7045    9.9558 N   0  0  0  0  0  0
   -0.7821   29.1009   11.1497 C   0  0  0  0  0  0
    0.7104   30.2547    8.6437 C   0  0  0  0  0  0
    1.2912   31.2092    7.7756 C   0  0  0  0  0  0
    2.4562   30.6396    7.3427 N   0  0  0  0  0  0
    2.5671   29.4235    7.9666 C   0  0  0  0  0  0
    1.5679   29.1880    8.7957 N   0  0  0  0  0  0
    3.6580   28.4537    7.6408 C   0  0  0  0  0  0
    4.0516   27.4781    8.5579 C   0  0  0  0  0  0
    4.9541   26.4899    8.1742 C   0  0  0  0  0  0
    5.5150   26.4808    6.9017 C   0  0  0  0  0  0
    5.1411   27.4749    5.9901 C   0  0  0  0  0  0
    4.2228   28.4537    6.3593 C   0  0  0  0  0  0
    6.4141   25.4678    6.6323 O   0  0  0  0  0  0
    7.0395   25.4181    5.3539 C   0  0  0  0  0  0
   -2.5979   32.5280    9.8407 Br  0  0  0  0  0  0
   -1.7719   28.1178   11.8036 C   0  0  0  0  0  0
   -1.1910   27.3569   13.0069 C   0  0  0  0  0  0
    0.0580   26.6804   12.6721 N   0  0  0  0  0  0
    0.1624   25.5607   11.9429 C   0  0  0  0  0  0
    1.5779   25.2494   11.4282 C   0  0  2  0  0  0
   -0.7997   24.8520   11.6400 O   0  0  0  0  0  0
    1.6174   25.0215    9.9044 C   0  0  0  0  0  0
    2.6238   23.9018   10.1851 C   0  0  1  0  0  0
    2.0281   23.7896   11.5999 C   0  0  0  0  0  0
    2.5992   22.7499    9.3761 O   0  0  0  0  0  0
   -0.6430   33.7706    8.0186 H   0  0  0  0  0  0
   -2.2519   30.1027   10.1363 H   0  0  0  0  0  0
   -0.4648   29.8709   11.8554 H   0  0  0  0  0  0
    0.1477   28.5908   10.8975 H   0  0  0  0  0  0
    3.1611   31.0110    6.7140 H   0  0  0  0  0  0
    3.6352   27.4578    9.5549 H   0  0  0  0  0  0
    5.2219   25.7064    8.8634 H   0  0  0  0  0  0
    5.5552   27.5067    4.9940 H   0  0  0  0  0  0
    3.9334   29.1939    5.6278 H   0  0  0  0  0  0
    7.7134   24.5626    5.3160 H   0  0  0  0  0  0
    6.3082   25.2962    4.5530 H   0  0  0  0  0  0
    7.6344   26.3124    5.1636 H   0  0  0  0  0  0
   -2.1096   27.3930   11.0611 H   0  0  0  0  0  0
   -2.6715   28.6516   12.1154 H   0  0  0  0  0  0
   -1.9211   26.6644   13.4311 H   0  0  0  0  0  0
   -0.9470   28.0859   13.7759 H   0  0  0  0  0  0
    0.9200   27.1420   12.9461 H   0  0  0  0  0  0
    2.3197   25.9740   11.7753 H   0  0  0  0  0  0
    1.9932   25.8557    9.3170 H   0  0  0  0  0  0
    0.6991   24.6486    9.4453 H   0  0  0  0  0  0
    3.6563   24.2555   10.1500 H   0  0  0  0  0  0
    1.2299   23.0441   11.6474 H   0  0  0  0  0  0
    2.7397   23.6142   12.4062 H   0  0  0  0  0  0
    2.2764   23.0095    8.4972 H   0  0  0  0  0  0
  1  2  2  0  0  0
  1  4  1  0  0  0
  1 20  1  0  0  0
  2  3  1  0  0  0
  2 31  1  0  0  0
  3  8  2  0  0  0
  4  7  2  0  0  0
  4  5  1  0  0  0
  5  6  1  0  0  0
  5 32  1  0  0  0
  6 21  1  0  0  0
  6 33  1  0  0  0
  6 34  1  0  0  0
  7  8  1  0  0  0
  7 11  1  0  0  0
  8  9  1  0  0  0
  9 10  1  0  0  0
  9 35  1  0  0  0
 10 11  2  0  0  0
 10 12  1  0  0  0
 12 17  1  0  0  0
 12 13  2  0  0  0
 13 14  1  0  0  0
 13 36  1  0  0  0
 14 15  2  0  0  0
 14 37  1  0  0  0
 15 16  1  0  0  0
 15 18  1  0  0  0
 16 17  2  0  0  0
 16 38  1  0  0  0
 17 39  1  0  0  0
 18 19  1  0  0  0
 19 40  1  0  0  0
 19 41  1  0  0  0
 19 42  1  0  0  0
 21 22  1  0  0  0
 21 43  1  0  0  0
 21 44  1  0  0  0
 22 23  1  0  0  0
 22 45  1  0  0  0
 22 46  1  0  0  0
 23 24  1  0  0  0
 23 47  1  0  0  0
 24 25  1  0  0  0
 24 26  2  0  0  0
 25 27  1  0  0  0
 25 29  1  0  0  0
 25 48  1  0  0  0
 27 28  1  0  0  0
 27 49  1  0  0  0
 27 50  1  0  0  0
 28 29  1  0  0  0
 28 30  1  0  0  0
 28 51  1  0  0  0
 29 52  1  0  0  0
 29 53  1  0  0  0
 30 54  1  0  0  0
M  END
> <s_m_entry_id>
32649

> <s_m_entry_name>
dock_pv.50

> <s_m_Source_Path>
/home/csk/Desktop/cluster/DUD-E-result/cdk2

> <s_m_Source_File>
dock_pv.maegz

> <i_m_Source_File_Index>
50

> <chembl_id>
CHEMBL2011935

> <chembl_pref_name>
None

> <i_lp_mmshare_version>
53161

> <i_f3d_flags>
0

> <r_lp_tautomer_probability>
1

> <s_lp_Force_Field>
OPLS_2005

> <r_lp_Energy>
17.280328

> <b_lp_Chiralities_Consistent>
1

> <s_lp_Variant>
CHEMBL301_lig1090-2

> <s_i_glide_gridfile>
glide-grid_1h00

> <i_i_glide_lignum>
1494

> <i_i_glide_rotatable_bonds>
10

> <r_i_docking_score>
-8.54194499983127

> <r_i_glide_ligand_efficiency>
-0.284731499994376

> <r_i_glide_ligand_efficiency_sa>
-0.884726971248482

> <r_i_glide_ligand_efficiency_ln>
-1.94082297590692

> <r_i_glide_gscore>
-8.54194499983127

> <r_i_glide_lipo>
-2.34891485385803

> <r_i_glide_hbond>
-0.864

> <r_i_glide_metal>
0

> <r_i_glide_rewards>
-1.91845364994431

> <r_i_glide_evdw>
-35.8863487243652

> <r_i_glide_ecoul>
-15.4026212692261

> <r_i_glide_erotb>
0.719414084716289

> <r_i_glide_esite>
-0.0252799541430511

> <r_i_glide_emodel>
-74.6029087555574

> <r_i_glide_energy>
-51.2889699935913

> <r_i_glide_einternal>
4.81172275543213

> <i_i_glide_confnum>
17

> <i_i_glide_posenum>
149

> <r_i_glide_eff_state_penalty>
0

> <s_user_duplicate_titles>
CHEMBL301_lig1090

> <s_m_subgroup_title>
dock_pv

> <s_m_subgroupid>
dock_pv

> <b_m_subgroup_collapsed>
1

$$$$
CHEMBL301_lig490
                    3D
 Schrodinger Suite 2021-1.
 51 54  0  0  1  0            999 V2000
   -0.0287   32.4272    8.1760 C   0  0  0  0  0  0
   -0.7171   31.6256    9.0878 C   0  0  0  0  0  0
   -0.2591   30.2991    9.2381 C   0  0  0  0  0  0
    0.7891   29.8520    8.4897 N   0  0  0  0  0  0
    1.3751   30.6916    7.5942 C   0  0  0  0  0  0
    0.9979   31.9791    7.4029 N   0  0  0  0  0  0
    2.4580   30.2520    6.8086 N   0  0  0  0  0  0
   -0.7719   29.2866   10.2335 C   0  0  0  0  0  0
   -2.0844   28.2554   11.7760 N   0  0  0  0  0  0
   -1.9544   29.3430   10.9569 C   0  0  0  0  0  0
   -1.0075   27.4196   11.6126 C   0  0  0  0  0  0
   -0.1362   28.0510   10.6662 C   0  0  0  0  0  0
    1.0751   27.3986   10.3623 C   0  0  0  0  0  0
    1.3637   26.1687   10.9500 C   0  0  0  0  0  0
    0.4799   25.5747   11.8450 C   0  0  0  0  0  0
   -0.7188   26.1867   12.2080 C   0  0  0  0  0  0
   -1.9957   32.3476   10.0021 Cl  0  0  0  0  0  0
    3.1446   28.9762    7.0256 C   0  0  2  0  0  0
    4.2559   29.1570    8.0621 C   0  0  0  0  0  0
    4.9698   27.8125    8.2839 C   0  0  0  0  0  0
    5.5045   27.2152    6.9671 C   0  0  0  0  0  0
    4.4579   27.1805    5.9358 N   0  0  1  0  0  0
    3.8026   28.4804    5.7127 C   0  0  0  0  0  0
    4.8122   26.4324    4.7176 C   0  0  0  0  0  0
    4.4580   24.9334    4.8815 C   0  0  0  0  0  0
    4.0581   24.2843    3.7760 N   0  0  0  0  0  0
    4.5544   24.3632    5.9723 O   0  0  0  0  0  0
    3.6610   22.8832    3.7606 C   0  0  0  0  0  0
   -0.3230   33.4520    8.0312 H   0  0  0  0  0  0
    3.0213   30.9683    6.3617 H   0  0  0  0  0  0
   -2.8645   28.1487   12.4134 H   0  0  0  0  0  0
   -2.7420   30.0812   10.9759 H   0  0  0  0  0  0
    1.7876   27.8340    9.6803 H   0  0  0  0  0  0
    2.2955   25.6750   10.7118 H   0  0  0  0  0  0
    0.7399   24.6211   12.2803 H   0  0  0  0  0  0
   -1.3906   25.7239   12.9154 H   0  0  0  0  0  0
    2.4580   28.2520    7.4467 H   0  0  0  0  0  0
    3.7820   29.4750    8.9760 H   0  0  0  0  0  0
    4.9713   29.9288    7.7760 H   0  0  0  0  0  0
    4.3150   27.0899    8.7744 H   0  0  0  0  0  0
    5.7974   27.9420    8.9761 H   0  0  0  0  0  0
    5.8478   26.1993    7.1646 H   0  0  0  0  0  0
    6.3703   27.7574    6.5951 H   0  0  0  0  0  0
    4.5014   29.1967    5.2770 H   0  0  0  0  0  0
    3.0086   28.3453    4.9788 H   0  0  0  0  0  0
    5.8759   26.5285    4.4936 H   0  0  0  0  0  0
    4.2820   26.8254    3.8477 H   0  0  0  0  0  0
    4.0610   24.7398    2.8668 H   0  0  0  0  0  0
    3.2580   22.6279    2.7803 H   0  0  0  0  0  0
    2.8945   22.6818    4.5112 H   0  0  0  0  0  0
    4.5190   22.2392    3.9551 H   0  0  0  0  0  0
  1  2  2  0  0  0
  1  6  1  0  0  0
  1 29  1  0  0  0
  2 17  1  0  0  0
  2  3  1  0  0  0
  3  4  2  0  0  0
  3  8  1  0  0  0
  4  5  1  0  0  0
  5  7  1  0  0  0
  5  6  2  0  0  0
  7 18  1  0  0  0
  7 30  1  0  0  0
  8 12  1  0  0  0
  8 10  2  0  0  0
  9 11  1  0  0  0
  9 10  1  0  0  0
  9 31  1  0  0  0
 10 32  1  0  0  0
 11 16  1  0  0  0
 11 12  2  0  0  0
 12 13  1  0  0  0
 13 14  2  0  0  0
 13 33  1  0  0  0
 14 15  1  0  0  0
 14 34  1  0  0  0
 15 16  2  0  0  0
 15 35  1  0  0  0
 16 36  1  0  0  0
 18 19  1  0  0  0
 18 23  1  0  0  0
 18 37  1  0  0  0
 19 20  1  0  0  0
 19 38  1  0  0  0
 19 39  1  0  0  0
 20 21  1  0  0  0
 20 40  1  0  0  0
 20 41  1  0  0  0
 21 22  1  0  0  0
 21 42  1  0  0  0
 21 43  1  0  0  0
 22 23  1  0  0  0
 22 24  1  0  0  0
 23 44  1  0  0  0
 23 45  1  0  0  0
 24 25  1  0  0  0
 24 46  1  0  0  0
 24 47  1  0  0  0
 25 26  1  0  0  0
 25 27  2  0  0  0
 26 28  1  0  0  0
 26 48  1  0  0  0
 28 49  1  0  0  0
 28 50  1  0  0  0
 28 51  1  0  0  0
M  END
> <s_m_entry_id>
32650

> <s_m_entry_name>
dock_pv.51

> <s_m_Source_Path>
/home/csk/Desktop/cluster/DUD-E-result/cdk2

> <s_m_Source_File>
dock_pv.maegz

> <i_m_Source_File_Index>
51

> <chembl_id>
CHEMBL392615

> <chembl_pref_name>
None

> <i_lp_mmshare_version>
53161

> <i_f3d_flags>
0

> <r_lp_tautomer_probability>
0.999999987636

> <s_lp_Force_Field>
OPLS_2005

> <r_lp_Energy>
14.194452

> <b_lp_Chiralities_Consistent>
1

> <s_lp_Variant>
CHEMBL301_lig490-1

> <s_i_glide_gridfile>
glide-grid_1h00

> <i_i_glide_lignum>
681

> <i_i_glide_rotatable_bonds>
6

> <r_i_docking_score>
-8.53073285557729

> <r_i_glide_ligand_efficiency>
-0.304669030556332

> <r_i_glide_ligand_efficiency_sa>
-0.925154617231805

> <r_i_glide_ligand_efficiency_ln>
-1.96914361626762

> <r_i_glide_gscore>
-8.53073285557729

> <r_i_glide_lipo>
-3.11609230724449

> <r_i_glide_hbond>
-0.457066925737245

> <r_i_glide_metal>
0

> <r_i_glide_rewards>
-2.30560469410331

> <r_i_glide_evdw>
-41.5579376220703

> <r_i_glide_ecoul>
-7.25296497344971

> <r_i_glide_erotb>
0.61557398411359

> <r_i_glide_esite>
-0.101701285484873

> <r_i_glide_emodel>
-70.4540696286453

> <r_i_glide_energy>
-48.81090259552

> <r_i_glide_einternal>
4.26981544494629

> <i_i_glide_confnum>
17

> <i_i_glide_posenum>
84

> <r_i_glide_eff_state_penalty>
0

> <s_user_duplicate_titles>
CHEMBL301_lig490,410903

> <s_m_subgroup_title>
dock_pv

> <s_m_subgroupid>
dock_pv

> <b_m_subgroup_collapsed>
1

$$$$
CHEMBL301_lig233
                    3D
 Schrodinger Suite 2021-1.
 45 48  0  0  1  0            999 V2000
   -1.8363   29.9753   10.4669 C   0  0  0  0  0  0
   -2.3818   31.2273   10.1754 C   0  0  0  0  0  0
   -1.7413   32.0795    9.2766 C   0  0  0  0  0  0
   -0.6336   29.5612    9.8632 C   0  0  0  0  0  0
   -0.0004   30.4192    8.9512 C   0  0  0  0  0  0
   -0.5593   31.6545    8.6755 C   0  0  0  0  0  0
    0.2374   32.3170    7.7761 N   0  0  0  0  0  0
    1.2579   31.5574    7.3685 C   0  0  0  0  0  0
    1.2328   30.3373    8.1767 C   0  0  0  0  0  0
    2.0578   31.8519    6.4868 O   0  0  0  0  0  0
    2.1217   29.4178    8.2094 N   0  0  0  0  0  0
    3.2578   29.4533    7.3756 N   0  0  0  0  0  0
    4.0578   28.3502    7.0881 C   0  0  0  0  0  0
    4.4579   28.1433    5.7688 C   0  0  0  0  0  0
    5.2601   27.0518    5.4491 C   0  0  0  0  0  0
    5.7075   26.2032    6.4628 C   0  0  0  0  0  0
    5.3033   26.4056    7.7806 C   0  0  0  0  0  0
    4.4654   27.4710    8.0913 C   0  0  0  0  0  0
    6.8562   24.8880    6.0969 S   0  0  0  0  0  0
    8.3963   25.5082    6.6201 N   0  0  0  0  0  0
    6.5257   23.7610    6.9756 O   0  0  0  0  0  0
    6.9276   24.7254    4.6424 O   0  0  0  0  0  0
   -0.0245   28.3410   10.0904 O   0  0  0  0  0  0
   -0.5160   27.4545   11.0195 C   0  0  0  0  0  0
   -0.4686   27.7451   12.3871 C   0  0  0  0  0  0
   -0.9711   26.8277   13.3070 C   0  0  0  0  0  0
   -1.5037   25.6215   12.8562 C   0  0  0  0  0  0
   -1.5399   25.3242   11.4947 C   0  0  0  0  0  0
   -1.0392   26.2411   10.5755 C   0  0  0  0  0  0
   -2.3550   29.3380   11.1695 H   0  0  0  0  0  0
   -3.3009   31.5375   10.6513 H   0  0  0  0  0  0
   -2.1675   33.0495    9.0640 H   0  0  0  0  0  0
    0.0579   33.2413    7.4089 H   0  0  0  0  0  0
    3.2665   30.2393    6.7297 H   0  0  0  0  0  0
    4.1542   28.8281    4.9905 H   0  0  0  0  0  0
    5.5797   26.9065    4.4256 H   0  0  0  0  0  0
    5.6443   25.7573    8.5754 H   0  0  0  0  0  0
    4.1637   27.6300    9.1176 H   0  0  0  0  0  0
    9.0147   24.7826    6.9841 H   0  0  0  0  0  0
    8.8607   26.0495    5.8872 H   0  0  0  0  0  0
   -0.0438   28.6785   12.7284 H   0  0  0  0  0  0
   -0.9501   27.0513   14.3631 H   0  0  0  0  0  0
   -1.8946   24.9113   13.5694 H   0  0  0  0  0  0
   -1.9411   24.3824   11.1538 H   0  0  0  0  0  0
   -1.0597   26.0128    9.5184 H   0  0  0  0  0  0
  1  2  2  0  0  0
  1  4  1  0  0  0
  1 30  1  0  0  0
  2  3  1  0  0  0
  2 31  1  0  0  0
  3  6  2  0  0  0
  3 32  1  0  0  0
  4  5  2  0  0  0
  4 23  1  0  0  0
  5  9  1  0  0  0
  5  6  1  0  0  0
  6  7  1  0  0  0
  7  8  1  0  0  0
  7 33  1  0  0  0
  8  9  1  0  0  0
  8 10  2  0  0  0
  9 11  2  0  0  0
 11 12  1  0  0  0
 12 13  1  0  0  0
 12 34  1  0  0  0
 13 14  2  0  0  0
 13 18  1  0  0  0
 14 15  1  0  0  0
 14 35  1  0  0  0
 15 16  2  0  0  0
 15 36  1  0  0  0
 16 17  1  0  0  0
 16 19  1  0  0  0
 17 18  2  0  0  0
 17 37  1  0  0  0
 18 38  1  0  0  0
 19 20  1  0  0  0
 19 21  2  0  0  0
 19 22  2  0  0  0
 20 39  1  0  0  0
 20 40  1  0  0  0
 23 24  1  0  0  0
 24 25  2  0  0  0
 24 29  1  0  0  0
 25 26  1  0  0  0
 25 41  1  0  0  0
 26 27  2  0  0  0
 26 42  1  0  0  0
 27 28  1  0  0  0
 27 43  1  0  0  0
 28 29  2  0  0  0
 28 44  1  0  0  0
 29 45  1  0  0  0
M  END
> <s_m_entry_id>
32651

> <s_m_entry_name>
dock_pv.52

> <s_m_Source_Path>
/home/csk/Desktop/cluster/DUD-E-result/cdk2

> <s_m_Source_File>
dock_pv.maegz

> <i_m_Source_File_Index>
52

> <chembl_id>
CHEMBL409104

> <chembl_pref_name>
None

> <i_lp_mmshare_version>
53161

> <i_f3d_flags>
0

> <r_lp_tautomer_probability>
1

> <s_lp_Force_Field>
OPLS_2005

> <r_lp_Energy>
49.271049

> <b_lp_Chiralities_Consistent>
1

> <s_lp_Variant>
CHEMBL301_lig233-1

> <s_i_glide_gridfile>
glide-grid_1h00

> <i_i_glide_lignum>
375

> <i_i_glide_rotatable_bonds>
5

> <r_i_docking_score>
-8.49699732861397

> <r_i_glide_ligand_efficiency>
-0.29299990788324

> <r_i_glide_ligand_efficiency_sa>
-0.900188545903683

> <r_i_glide_ligand_efficiency_ln>
-1.9455969229912

> <r_i_glide_gscore>
-8.49699732861397

> <r_i_glide_lipo>
-2.79386673084349

> <r_i_glide_hbond>
-0.585037021327951

> <r_i_glide_metal>
0

> <r_i_glide_rewards>
-2.23871570859804

> <r_i_glide_evdw>
-45.4199905395508

> <r_i_glide_ecoul>
-6.21532773971558

> <r_i_glide_erotb>
0.330348661777943

> <r_i_glide_esite>
-0.00642784168755656

> <r_i_glide_emodel>
-74.7712860875678

> <r_i_glide_energy>
-51.6353182792664

> <r_i_glide_einternal>
5.01418781280518

> <i_i_glide_confnum>
3

> <i_i_glide_posenum>
124

> <r_i_glide_eff_state_penalty>
0

> <s_user_duplicate_titles>
CHEMBL301_lig233,440761,136968

> <s_m_subgroup_title>
dock_pv

> <s_m_subgroupid>
dock_pv

> <b_m_subgroup_collapsed>
1

$$$$
CHEMBL301_lig1466
                    3D
 Schrodinger Suite 2021-1.
 48 50  0  0  1  0            999 V2000
    5.4832   24.2662    4.8297 C   0  0  0  0  0  0
    5.6865   24.5771    6.6760 S   0  0  0  0  0  0
    7.1169   24.6930    6.9753 O   0  0  0  0  0  0
    4.8579   23.5911    7.3762 O   0  0  0  0  0  0
    4.9654   26.1895    6.9749 C   0  0  0  0  0  0
    4.2641   26.4439    8.1574 C   0  0  0  0  0  0
    3.6582   27.6847    8.3540 C   0  0  0  0  0  0
    3.6848   28.6468    7.3367 C   0  0  0  0  0  0
    2.9529   29.8448    7.3759 N   0  0  0  0  0  0
    1.7746   30.2215    8.0268 C   0  0  0  0  0  0
    1.2312   31.3864    7.6013 N   0  0  0  0  0  0
    0.0569   31.7515    8.1759 C   0  0  0  0  0  0
   -0.6255   30.9433    9.0908 C   0  0  0  0  0  0
    0.0290   29.7708    9.4901 C   0  0  0  0  0  0
   -0.5477   28.9388   10.4314 O   0  0  0  0  0  0
    0.2837   28.1450   11.2869 C   0  0  0  0  0  0
   -0.4387   28.0037   12.6432 C   0  0  0  0  0  0
   -1.7122   27.1387   12.5445 C   0  0  0  0  0  0
   -1.4183   25.7602   11.9186 C   0  0  0  0  0  0
   -0.6916   25.8826   10.5655 C   0  0  0  0  0  0
    0.5770   26.7495   10.6888 C   0  0  0  0  0  0
    1.2366   29.4161    8.9750 N   0  0  0  0  0  0
   -1.9716   31.3557    9.6683 C   0  0  0  0  0  0
   -2.0018   31.1246   10.9758 F   0  0  0  0  0  0
   -2.2057   32.6524    9.4766 F   0  0  0  0  0  0
   -2.9421   30.6580    9.0786 F   0  0  0  0  0  0
    4.4219   28.3928    6.1789 C   0  0  0  0  0  0
    5.0721   27.1790    6.0013 C   0  0  0  0  0  0
    5.7933   23.2439    4.6232 H   0  0  0  0  0  0
    4.4359   24.3947    4.5589 H   0  0  0  0  0  0
    6.1145   24.9557    4.2725 H   0  0  0  0  0  0
    4.1586   25.6758    8.9085 H   0  0  0  0  0  0
    3.1335   27.8603    9.2780 H   0  0  0  0  0  0
    3.2990   30.5398    6.7239 H   0  0  0  0  0  0
   -0.3408   32.7025    7.8507 H   0  0  0  0  0  0
    1.2331   28.6512   11.4811 H   0  0  0  0  0  0
   -0.6547   28.9857   13.0663 H   0  0  0  0  0  0
    0.2327   27.5151   13.3497 H   0  0  0  0  0  0
   -2.4590   27.6632   11.9452 H   0  0  0  0  0  0
   -2.1558   27.0153   13.5330 H   0  0  0  0  0  0
   -2.3418   25.1973   11.7936 H   0  0  0  0  0  0
   -0.8039   25.1775   12.6059 H   0  0  0  0  0  0
   -1.3636   26.3212    9.8260 H   0  0  0  0  0  0
   -0.4325   24.8927   10.1895 H   0  0  0  0  0  0
    1.2748   26.2328   11.3490 H   0  0  0  0  0  0
    1.0964   26.8340    9.7377 H   0  0  0  0  0  0
    4.4640   29.1095    5.3760 H   0  0  0  0  0  0
    5.6278   27.0132    5.0906 H   0  0  0  0  0  0
  1  2  1  0  0  0
  1 29  1  0  0  0
  1 30  1  0  0  0
  1 31  1  0  0  0
  2  3  2  0  0  0
  2  4  2  0  0  0
  2  5  1  0  0  0
  5  6  2  0  0  0
  5 28  1  0  0  0
  6  7  1  0  0  0
  6 32  1  0  0  0
  7  8  2  0  0  0
  7 33  1  0  0  0
  8  9  1  0  0  0
  8 27  1  0  0  0
  9 10  1  0  0  0
  9 34  1  0  0  0
 10 11  2  0  0  0
 10 22  1  0  0  0
 11 12  1  0  0  0
 12 13  2  0  0  0
 12 35  1  0  0  0
 13 14  1  0  0  0
 13 23  1  0  0  0
 14 15  1  0  0  0
 14 22  2  0  0  0
 15 16  1  0  0  0
 16 17  1  0  0  0
 16 21  1  0  0  0
 16 36  1  0  0  0
 17 18  1  0  0  0
 17 37  1  0  0  0
 17 38  1  0  0  0
 18 19  1  0  0  0
 18 39  1  0  0  0
 18 40  1  0  0  0
 19 20  1  0  0  0
 19 41  1  0  0  0
 19 42  1  0  0  0
 20 21  1  0  0  0
 20 43  1  0  0  0
 20 44  1  0  0  0
 21 45  1  0  0  0
 21 46  1  0  0  0
 23 24  1  0  0  0
 23 25  1  0  0  0
 23 26  1  0  0  0
 27 28  2  0  0  0
 27 47  1  0  0  0
 28 48  1  0  0  0
M  END
> <s_m_entry_id>
32652

> <s_m_entry_name>
dock_pv.53

> <s_m_Source_Path>
/home/csk/Desktop/cluster/DUD-E-result/cdk2

> <s_m_Source_File>
dock_pv.maegz

> <i_m_Source_File_Index>
53

> <chembl_id>
CHEMBL3644031

> <chembl_pref_name>
None

> <i_lp_mmshare_version>
53161

> <i_f3d_flags>
0

> <r_lp_tautomer_probability>
0.999999917912647

> <s_lp_Force_Field>
OPLS_2005

> <r_lp_Energy>
5.851668

> <b_lp_Chiralities_Consistent>
1

> <s_lp_Variant>
CHEMBL301_lig1466-1

> <s_i_glide_gridfile>
glide-grid_1h00

> <i_i_glide_lignum>
1979

> <i_i_glide_rotatable_bonds>
6

> <r_i_docking_score>
-8.49529767118513

> <r_i_glide_ligand_efficiency>
-0.303403488256612

> <r_i_glide_ligand_efficiency_sa>
-0.921311685445301

> <r_i_glide_ligand_efficiency_ln>
-1.96096413528768

> <r_i_glide_gscore>
-8.49529767118513

> <r_i_glide_lipo>
-2.68252520040689

> <r_i_glide_hbond>
-0.317167532756642

> <r_i_glide_metal>
0

> <r_i_glide_rewards>
-2.91148421796713

> <r_i_glide_evdw>
-40.7664337158203

> <r_i_glide_ecoul>
-6.17346906661987

> <r_i_glide_erotb>
0.457674600728025

> <r_i_glide_esite>
-0.077453274998493

> <r_i_glide_emodel>
-66.2768086911175

> <r_i_glide_energy>
-46.9399027824402

> <r_i_glide_einternal>
8.9329776763916

> <i_i_glide_confnum>
35

> <i_i_glide_posenum>
180

> <r_i_glide_eff_state_penalty>
0

> <s_user_duplicate_titles>
CHEMBL301_lig1466

> <s_m_subgroup_title>
dock_pv

> <s_m_subgroupid>
dock_pv

> <b_m_subgroup_collapsed>
1

$$$$
CHEMBL301_lig207
                    3D
 Schrodinger Suite 2021-1.
 43 45  0  0  1  0            999 V2000
   -1.8332   29.9740   10.5107 C   0  0  0  0  0  0
   -2.3966   31.2053   10.1757 C   0  0  0  0  0  0
   -1.7619   32.0348    9.2569 C   0  0  0  0  0  0
   -0.6281   29.5408    9.9309 C   0  0  0  0  0  0
   -0.0009   30.3769    8.9789 C   0  0  0  0  0  0
   -0.5729   31.6036    8.6764 C   0  0  0  0  0  0
    0.2162   32.2719    7.7777 N   0  0  0  0  0  0
    1.2504   31.5317    7.3759 C   0  0  0  0  0  0
    1.2349   30.3080    8.1919 C   0  0  0  0  0  0
    2.0577   31.8520    6.5108 O   0  0  0  0  0  0
    2.1372   29.4021    8.2174 N   0  0  0  0  0  0
    3.2579   29.4521    7.3723 N   0  0  0  0  0  0
    4.0612   28.3517    7.0807 C   0  0  0  0  0  0
    4.4879   27.4841    8.0869 C   0  0  0  0  0  0
    5.3348   26.4257    7.7759 C   0  0  0  0  0  0
    5.7384   26.2220    6.4586 C   0  0  0  0  0  0
    5.2743   27.0575    5.4416 C   0  0  0  0  0  0
    4.4540   28.1362    5.7593 C   0  0  0  0  0  0
    6.9111   24.9253    6.0995 S   0  0  0  0  0  0
    8.4376   25.5680    6.6398 N   0  0  0  0  0  0
    6.5903   23.7938    6.9756 O   0  0  0  0  0  0
    6.9949   24.7670    4.6452 O   0  0  0  0  0  0
   -0.0538   28.1917   10.3897 C   0  0  0  0  0  0
   -0.9723   27.0092   10.0282 C   0  0  0  0  0  0
    0.3043   28.1975   11.8888 C   0  0  0  0  0  0
   -2.3369   29.3615   11.2452 H   0  0  0  0  0  0
   -3.3185   31.5203   10.6436 H   0  0  0  0  0  0
   -2.1939   32.9948    9.0145 H   0  0  0  0  0  0
    0.0318   33.1978    7.4160 H   0  0  0  0  0  0
    3.2347   30.2280    6.7136 H   0  0  0  0  0  0
    4.1921   27.6456    9.1139 H   0  0  0  0  0  0
    5.6922   25.7839    8.5695 H   0  0  0  0  0  0
    5.5894   26.9087    4.4185 H   0  0  0  0  0  0
    4.1308   28.8082    4.9778 H   0  0  0  0  0  0
    9.0272   24.8596    7.0800 H   0  0  0  0  0  0
    8.9372   26.0768    5.9056 H   0  0  0  0  0  0
    0.8801   28.0097    9.8647 H   0  0  0  0  0  0
   -1.2163   27.0138    8.9666 H   0  0  0  0  0  0
   -1.9086   27.0341   10.5873 H   0  0  0  0  0  0
   -0.4888   26.0559   10.2455 H   0  0  0  0  0  0
    0.9443   29.0429   12.1416 H   0  0  0  0  0  0
   -0.5831   28.2583   12.5199 H   0  0  0  0  0  0
    0.8426   27.2908   12.1678 H   0  0  0  0  0  0
  1  2  2  0  0  0
  1  4  1  0  0  0
  1 26  1  0  0  0
  2  3  1  0  0  0
  2 27  1  0  0  0
  3  6  2  0  0  0
  3 28  1  0  0  0
  4  5  2  0  0  0
  4 23  1  0  0  0
  5  9  1  0  0  0
  5  6  1  0  0  0
  6  7  1  0  0  0
  7  8  1  0  0  0
  7 29  1  0  0  0
  8  9  1  0  0  0
  8 10  2  0  0  0
  9 11  2  0  0  0
 11 12  1  0  0  0
 12 13  1  0  0  0
 12 30  1  0  0  0
 13 14  2  0  0  0
 13 18  1  0  0  0
 14 15  1  0  0  0
 14 31  1  0  0  0
 15 16  2  0  0  0
 15 32  1  0  0  0
 16 17  1  0  0  0
 16 19  1  0  0  0
 17 18  2  0  0  0
 17 33  1  0  0  0
 18 34  1  0  0  0
 19 20  1  0  0  0
 19 21  2  0  0  0
 19 22  2  0  0  0
 20 35  1  0  0  0
 20 36  1  0  0  0
 23 24  1  0  0  0
 23 25  1  0  0  0
 23 37  1  0  0  0
 24 38  1  0  0  0
 24 39  1  0  0  0
 24 40  1  0  0  0
 25 41  1  0  0  0
 25 42  1  0  0  0
 25 43  1  0  0  0
M  END
> <s_m_entry_id>
32653

> <s_m_entry_name>
dock_pv.54

> <s_m_Source_Path>
/home/csk/Desktop/cluster/DUD-E-result/cdk2

> <s_m_Source_File>
dock_pv.maegz

> <i_m_Source_File_Index>
54

> <chembl_id>
CHEMBL411426

> <chembl_pref_name>
None

> <i_lp_mmshare_version>
53161

> <i_f3d_flags>
0

> <r_lp_tautomer_probability>
1

> <s_lp_Force_Field>
OPLS_2005

> <r_lp_Energy>
47.308407

> <b_lp_Chiralities_Consistent>
1

> <s_lp_Variant>
CHEMBL301_lig207-1

> <s_i_glide_gridfile>
glide-grid_1h00

> <i_i_glide_lignum>
349

> <i_i_glide_rotatable_bonds>
4

> <r_i_docking_score>
-8.48852535522247

> <r_i_glide_ligand_efficiency>
-0.339541014208899

> <r_i_glide_ligand_efficiency_sa>
-0.992823947332348

> <r_i_glide_ligand_efficiency_ln>
-2.01203488976537

> <r_i_glide_gscore>
-8.48852535522247

> <r_i_glide_lipo>
-2.4402133601161

> <r_i_glide_hbond>
-0.527930763625274

> <r_i_glide_metal>
0

> <r_i_glide_rewards>
-2.73387734405202

> <r_i_glide_evdw>
-38.6320762634277

> <r_i_glide_ecoul>
-7.05527591705322

> <r_i_glide_erotb>
0.20876003099262

> <r_i_glide_esite>
-0.00536871769232822

> <r_i_glide_emodel>
-66.7718953781878

> <r_i_glide_energy>
-45.687352180481

> <r_i_glide_einternal>
4.3132119178772

> <i_i_glide_confnum>
3

> <i_i_glide_posenum>
15

> <r_i_glide_eff_state_penalty>
0

> <s_user_duplicate_titles>
CHEMBL301_lig207,440881,137324

> <s_m_subgroup_title>
dock_pv

> <s_m_subgroupid>
dock_pv

> <b_m_subgroup_collapsed>
1

$$$$
CHEMBL301_lig691
                    3D
 Schrodinger Suite 2021-1.
 37 39  0  0  1  0            999 V2000
    0.5089   30.6017    8.2036 C   0  0  0  0  0  0
   -0.2096   31.7854    8.2351 C   0  0  0  0  0  0
    0.5604   32.6509    7.5002 N   0  0  0  0  0  0
    1.6582   32.0878    6.9832 N   0  0  0  0  0  0
    1.6944   30.8787    7.5000 C   0  0  0  0  0  0
    2.8557   30.1334    7.3732 N   0  0  0  0  0  0
    3.2227   29.0603    8.1029 C   0  0  0  0  0  0
    4.6163   28.4998    7.7981 C   0  0  0  0  0  0
    2.5320   28.5315    8.9738 O   0  0  0  0  0  0
   -1.5137   32.2011    8.8892 C   0  0  0  0  0  0
   -2.5821   31.1754    9.1873 C   0  0  0  0  0  0
   -1.8057   31.8157   10.3190 C   0  0  0  0  0  0
    4.5840   27.5136    6.6363 C   0  0  0  0  0  0
    4.5182   27.9781    5.3188 C   0  0  0  0  0  0
    4.4586   27.0773    4.2563 C   0  0  0  0  0  0
    4.4458   25.7074    4.5077 C   0  0  0  0  0  0
    4.4947   25.2178    5.8138 C   0  0  0  0  0  0
    4.5702   26.1334    6.8788 C   0  0  0  0  0  0
    4.4582   23.8448    5.9634 O   0  0  0  0  0  0
    4.4960   23.2923    7.2719 C   0  0  0  0  0  0
    0.2568   29.6805    8.7077 H   0  0  0  0  0  0
    0.3186   33.6189    7.3128 H   0  0  0  0  0  0
    3.5569   30.5389    6.7592 H   0  0  0  0  0  0
    5.0104   28.0237    8.6951 H   0  0  0  0  0  0
    5.2994   29.3166    7.5588 H   0  0  0  0  0  0
   -1.8675   33.1822    8.5798 H   0  0  0  0  0  0
   -3.6258   31.4538    9.0333 H   0  0  0  0  0  0
   -2.3970   30.1240    8.9761 H   0  0  0  0  0  0
   -1.0746   31.2136   10.8616 H   0  0  0  0  0  0
   -2.3182   32.5293   10.9654 H   0  0  0  0  0  0
    4.5271   29.0396    5.1127 H   0  0  0  0  0  0
    4.4135   27.4368    3.2401 H   0  0  0  0  0  0
    4.3915   25.0173    3.6771 H   0  0  0  0  0  0
    4.6052   25.7935    7.9015 H   0  0  0  0  0  0
    4.4386   22.2058    7.2065 H   0  0  0  0  0  0
    5.4304   23.5434    7.7752 H   0  0  0  0  0  0
    3.6583   23.6335    7.8828 H   0  0  0  0  0  0
  1  5  1  0  0  0
  1  2  2  0  0  0
  1 21  1  0  0  0
  2 10  1  0  0  0
  2  3  1  0  0  0
  3  4  1  0  0  0
  3 22  1  0  0  0
  4  5  2  0  0  0
  5  6  1  0  0  0
  6  7  1  0  0  0
  6 23  1  0  0  0
  7  8  1  0  0  0
  7  9  2  0  0  0
  8 13  1  0  0  0
  8 24  1  0  0  0
  8 25  1  0  0  0
 10 11  1  0  0  0
 10 12  1  0  0  0
 10 26  1  0  0  0
 11 12  1  0  0  0
 11 27  1  0  0  0
 11 28  1  0  0  0
 12 29  1  0  0  0
 12 30  1  0  0  0
 13 14  2  0  0  0
 13 18  1  0  0  0
 14 15  1  0  0  0
 14 31  1  0  0  0
 15 16  2  0  0  0
 15 32  1  0  0  0
 16 17  1  0  0  0
 16 33  1  0  0  0
 17 18  2  0  0  0
 17 19  1  0  0  0
 18 34  1  0  0  0
 19 20  1  0  0  0
 20 35  1  0  0  0
 20 36  1  0  0  0
 20 37  1  0  0  0
M  END
> <s_m_entry_id>
32654

> <s_m_entry_name>
dock_pv.55

> <s_m_Source_Path>
/home/csk/Desktop/cluster/DUD-E-result/cdk2

> <s_m_Source_File>
dock_pv.maegz

> <i_m_Source_File_Index>
55

> <chembl_id>
CHEMBL114917

> <chembl_pref_name>
None

> <i_lp_mmshare_version>
53161

> <i_f3d_flags>
0

> <r_lp_tautomer_probability>
0.5

> <s_lp_Force_Field>
OPLS_2005

> <r_lp_Energy>
17.937109

> <b_lp_Chiralities_Consistent>
1

> <s_lp_Variant>
CHEMBL301_lig691-1

> <s_i_glide_gridfile>
glide-grid_1h00

> <i_i_glide_lignum>
966

> <i_i_glide_rotatable_bonds>
6

> <r_i_docking_score>
-8.48081306232201

> <r_i_glide_ligand_efficiency>
-0.424040653116101

> <r_i_glide_ligand_efficiency_sa>
-1.15102341782137

> <r_i_glide_ligand_efficiency_ln>
-2.12246779356385

> <r_i_glide_gscore>
-8.48081306232201

> <r_i_glide_lipo>
-2.77686451359395

> <r_i_glide_hbond>
-0.864

> <r_i_glide_metal>
0

> <r_i_glide_rewards>
-3.18345170549077

> <r_i_glide_evdw>
-29.7373313903809

> <r_i_glide_ecoul>
-6.80537748336792

> <r_i_glide_erotb>
0.851176348786939

> <r_i_glide_esite>
0

> <r_i_glide_emodel>
-52.6848919049991

> <r_i_glide_energy>
-36.5427088737488

> <r_i_glide_einternal>
5.25526285171509

> <i_i_glide_confnum>
4

> <i_i_glide_posenum>
378

> <r_i_glide_eff_state_penalty>
0

> <s_user_duplicate_titles>
CHEMBL301_lig691,187203

> <s_m_subgroup_title>
dock_pv

> <s_m_subgroupid>
dock_pv

> <b_m_subgroup_collapsed>
1

$$$$
CHEMBL301_lig165
                    3D
 Schrodinger Suite 2021-1.
 41 44  0  0  1  0            999 V2000
   -1.8485   29.8290   10.4300 C   0  0  0  0  0  0
   -2.4289   31.0617   10.1227 C   0  0  0  0  0  0
   -1.7955   31.9325    9.2381 C   0  0  0  0  0  0
   -0.6239   29.4502    9.8608 C   0  0  0  0  0  0
    0.0065   30.3268    8.9543 C   0  0  0  0  0  0
   -0.5859   31.5449    8.6657 C   0  0  0  0  0  0
    0.2001   32.2356    7.7766 N   0  0  0  0  0  0
    1.2512   31.5163    7.3760 C   0  0  0  0  0  0
    1.2462   30.2861    8.1797 C   0  0  0  0  0  0
    2.0577   31.8521    6.5167 O   0  0  0  0  0  0
    2.1530   29.3876    8.2058 N   0  0  0  0  0  0
    3.2779   29.4521    7.3749 N   0  0  0  0  0  0
    4.0777   28.3512    7.0803 C   0  0  0  0  0  0
    4.5141   27.4897    8.0880 C   0  0  0  0  0  0
    5.3621   26.4326    7.7761 C   0  0  0  0  0  0
    5.7551   26.2239    6.4560 C   0  0  0  0  0  0
    5.2786   27.0521    5.4380 C   0  0  0  0  0  0
    4.4579   28.1300    5.7571 C   0  0  0  0  0  0
    6.9307   24.9306    6.0941 S   0  0  0  0  0  0
    8.4576   25.5819    6.6213 N   0  0  0  0  0  0
    6.6214   23.8002    6.9757 O   0  0  0  0  0  0
    7.0061   24.7667    4.6400 O   0  0  0  0  0  0
   -0.0556   28.1249   10.2505 C   0  0  0  0  0  0
   -0.6800   26.8670   10.1912 C   0  0  0  0  0  0
    0.2512   25.9591   10.6591 C   0  0  0  0  0  0
    1.3425   26.7194   10.9758 N   0  0  0  0  0  0
    1.1626   28.0207   10.7392 N   0  0  0  0  0  0
   -2.3476   29.1759   11.1325 H   0  0  0  0  0  0
   -3.3668   31.3447   10.5795 H   0  0  0  0  0  0
   -2.2481   32.8867    9.0100 H   0  0  0  0  0  0
    0.0004   33.1597    7.4181 H   0  0  0  0  0  0
    3.2439   30.2232    6.7117 H   0  0  0  0  0  0
    4.2249   27.6567    9.1160 H   0  0  0  0  0  0
    5.7279   25.7946    8.5680 H   0  0  0  0  0  0
    5.5859   26.8991    4.4131 H   0  0  0  0  0  0
    4.1261   28.7987    4.9764 H   0  0  0  0  0  0
    9.0766   24.8614    6.9955 H   0  0  0  0  0  0
    8.9239   26.1253    5.8907 H   0  0  0  0  0  0
   -1.6771   26.6499    9.8423 H   0  0  0  0  0  0
    0.2401   24.8883   10.8000 H   0  0  0  0  0  0
    2.2028   26.3721   11.3790 H   0  0  0  0  0  0
  1  2  2  0  0  0
  1  4  1  0  0  0
  1 28  1  0  0  0
  2  3  1  0  0  0
  2 29  1  0  0  0
  3  6  2  0  0  0
  3 30  1  0  0  0
  4  5  2  0  0  0
  4 23  1  0  0  0
  5  9  1  0  0  0
  5  6  1  0  0  0
  6  7  1  0  0  0
  7  8  1  0  0  0
  7 31  1  0  0  0
  8  9  1  0  0  0
  8 10  2  0  0  0
  9 11  2  0  0  0
 11 12  1  0  0  0
 12 13  1  0  0  0
 12 32  1  0  0  0
 13 14  2  0  0  0
 13 18  1  0  0  0
 14 15  1  0  0  0
 14 33  1  0  0  0
 15 16  2  0  0  0
 15 34  1  0  0  0
 16 17  1  0  0  0
 16 19  1  0  0  0
 17 18  2  0  0  0
 17 35  1  0  0  0
 18 36  1  0  0  0
 19 20  1  0  0  0
 19 21  2  0  0  0
 19 22  2  0  0  0
 20 37  1  0  0  0
 20 38  1  0  0  0
 23 24  1  0  0  0
 23 27  2  0  0  0
 24 25  2  0  0  0
 24 39  1  0  0  0
 25 26  1  0  0  0
 25 40  1  0  0  0
 26 27  1  0  0  0
 26 41  1  0  0  0
M  END
> <s_m_entry_id>
32655

> <s_m_entry_name>
dock_pv.56

> <s_m_Source_Path>
/home/csk/Desktop/cluster/DUD-E-result/cdk2

> <s_m_Source_File>
dock_pv.maegz

> <i_m_Source_File_Index>
56

> <chembl_id>
CHEMBL272684

> <chembl_pref_name>
None

> <i_lp_mmshare_version>
53161

> <i_f3d_flags>
0

> <r_lp_tautomer_probability>
0.5

> <s_lp_Force_Field>
OPLS_2005

> <r_lp_Energy>
54.150204

> <b_lp_Chiralities_Consistent>
1

> <s_lp_Variant>
CHEMBL301_lig165-1

> <s_i_glide_gridfile>
glide-grid_1h00

> <i_i_glide_lignum>
305

> <i_i_glide_rotatable_bonds>
4

> <r_i_docking_score>
-8.46391651940854

> <r_i_glide_ligand_efficiency>
-0.313478389607724

> <r_i_glide_ligand_efficiency_sa>
-0.940435167789997

> <r_i_glide_ligand_efficiency_ln>
-1.97026022714895

> <r_i_glide_gscore>
-8.46391651940854

> <r_i_glide_lipo>
-2.55016505938809

> <r_i_glide_hbond>
-0.498756412083949

> <r_i_glide_metal>
0

> <r_i_glide_rewards>
-2.55420020676549

> <r_i_glide_evdw>
-42.1879692077637

> <r_i_glide_ecoul>
-7.42127561569214

> <r_i_glide_erotb>
0.398444033409083

> <r_i_glide_esite>
-0.0366490718380825

> <r_i_glide_emodel>
-71.7455788538938

> <r_i_glide_energy>
-49.6092448234558

> <r_i_glide_einternal>
4.41977214813232

> <i_i_glide_confnum>
4

> <i_i_glide_posenum>
47

> <r_i_glide_eff_state_penalty>
0

> <s_user_duplicate_titles>
CHEMBL301_lig165,CHEMBL301_lig165,440639,137414

> <s_m_subgroup_title>
dock_pv

> <s_m_subgroupid>
dock_pv

> <b_m_subgroup_collapsed>
1

$$$$
CHEMBL301_lig152
                    3D
 Schrodinger Suite 2021-1.
 39 41  0  0  1  0            999 V2000
   -2.0511   30.3906   10.6557 C   0  0  0  0  0  0
   -2.5165   31.6866   10.4285 C   0  0  0  0  0  0
   -1.8523   32.5185    9.5331 C   0  0  0  0  0  0
   -0.9112   29.9041   10.0038 C   0  0  0  0  0  0
   -0.2746   30.7358    9.0634 C   0  0  0  0  0  0
   -0.7433   32.0209    8.8585 C   0  0  0  0  0  0
    0.0579   32.6517    7.9391 N   0  0  0  0  0  0
    1.0024   31.8446    7.4492 C   0  0  0  0  0  0
    0.9040   30.6017    8.1968 C   0  0  0  0  0  0
    1.8011   32.1555    6.5761 O   0  0  0  0  0  0
    1.7994   29.6017    8.0363 C   0  0  0  0  0  0
    2.8580   29.5434    7.1533 N   0  0  0  0  0  0
    3.8459   28.5652    7.0658 C   0  0  0  0  0  0
    4.3953   27.9925    8.2114 C   0  0  0  0  0  0
    5.4089   27.0520    8.0872 C   0  0  0  0  0  0
    5.8383   26.6523    6.8237 C   0  0  0  0  0  0
    5.2579   27.1914    5.6745 C   0  0  0  0  0  0
    4.2833   28.1772    5.8000 C   0  0  0  0  0  0
    7.1975   25.5054    6.7057 S   0  0  0  0  0  0
    7.9913   25.8520    5.1942 N   0  0  0  0  0  0
    8.1351   25.8519    7.7763 O   0  0  0  0  0  0
    6.6212   24.1614    6.6106 O   0  0  0  0  0  0
   -0.4028   28.5209   10.3901 C   0  0  0  0  0  0
   -0.7421   27.5296    9.4455 O   0  0  0  0  0  0
   -2.5723   29.7761   11.3757 H   0  0  0  0  0  0
   -3.3805   32.0484   10.9726 H   0  0  0  0  0  0
   -2.2037   33.5270    9.3763 H   0  0  0  0  0  0
   -0.0497   33.6091    7.6286 H   0  0  0  0  0  0
    1.7204   28.6972    8.6200 H   0  0  0  0  0  0
    2.9105   30.2434    6.4209 H   0  0  0  0  0  0
    4.0724   28.2981    9.1959 H   0  0  0  0  0  0
    5.8759   26.6508    8.9741 H   0  0  0  0  0  0
    5.5924   26.8905    4.6912 H   0  0  0  0  0  0
    3.8602   28.6243    4.9135 H   0  0  0  0  0  0
    8.5982   26.6750    5.2567 H   0  0  0  0  0  0
    8.4770   25.0404    4.8056 H   0  0  0  0  0  0
    0.6786   28.5552   10.5289 H   0  0  0  0  0  0
   -0.8201   28.2284   11.3559 H   0  0  0  0  0  0
   -0.4470   26.6765    9.7770 H   0  0  0  0  0  0
  1  2  2  0  0  0
  1  4  1  0  0  0
  1 25  1  0  0  0
  2  3  1  0  0  0
  2 26  1  0  0  0
  3  6  2  0  0  0
  3 27  1  0  0  0
  4  5  2  0  0  0
  4 23  1  0  0  0
  5  9  1  0  0  0
  5  6  1  0  0  0
  6  7  1  0  0  0
  7  8  1  0  0  0
  7 28  1  0  0  0
  8  9  1  0  0  0
  8 10  2  0  0  0
  9 11  2  0  0  0
 11 12  1  0  0  0
 11 29  1  0  0  0
 12 13  1  0  0  0
 12 30  1  0  0  0
 13 14  2  0  0  0
 13 18  1  0  0  0
 14 15  1  0  0  0
 14 31  1  0  0  0
 15 16  2  0  0  0
 15 32  1  0  0  0
 16 17  1  0  0  0
 16 19  1  0  0  0
 17 18  2  0  0  0
 17 33  1  0  0  0
 18 34  1  0  0  0
 19 20  1  0  0  0
 19 21  2  0  0  0
 19 22  2  0  0  0
 20 35  1  0  0  0
 20 36  1  0  0  0
 23 24  1  0  0  0
 23 37  1  0  0  0
 23 38  1  0  0  0
 24 39  1  0  0  0
M  END
> <s_m_entry_id>
32656

> <s_m_entry_name>
dock_pv.57

> <s_m_Source_Path>
/home/csk/Desktop/cluster/DUD-E-result/cdk2

> <s_m_Source_File>
dock_pv.maegz

> <i_m_Source_File_Index>
57

> <chembl_id>
CHEMBL271137

> <chembl_pref_name>
None

> <i_lp_mmshare_version>
53161

> <i_f3d_flags>
0

> <r_lp_tautomer_probability>
0.499999999999422

> <s_lp_Force_Field>
OPLS_2005

> <r_lp_Energy>
39.44873

> <b_lp_Chiralities_Consistent>
1

> <s_lp_Variant>
CHEMBL301_lig152-1

> <s_i_glide_gridfile>
glide-grid_1h00

> <i_i_glide_lignum>
292

> <i_i_glide_rotatable_bonds>
5

> <r_i_docking_score>
-8.45332620756575

> <r_i_glide_ligand_efficiency>
-0.352221925315239

> <r_i_glide_ligand_efficiency_sa>
-1.01598383980122

> <r_i_glide_ligand_efficiency_ln>
-2.02326885933439

> <r_i_glide_gscore>
-8.45332620756575

> <r_i_glide_lipo>
-2.79783439798576

> <r_i_glide_hbond>
-0.66897179680917

> <r_i_glide_metal>
0

> <r_i_glide_rewards>
-1.96692379192454

> <r_i_glide_evdw>
-33.241325378418

> <r_i_glide_ecoul>
-11.0803785324097

> <r_i_glide_erotb>
0.33448055749019

> <r_i_glide_esite>
-0.0299537295541176

> <r_i_glide_emodel>
-61.3673215757184

> <r_i_glide_energy>
-44.3217039108276

> <r_i_glide_einternal>
7.39251661300659

> <i_i_glide_confnum>
9

> <i_i_glide_posenum>
13

> <r_i_glide_eff_state_penalty>
0

> <s_user_duplicate_titles>
CHEMBL301_lig152,440597,137645

> <s_m_subgroup_title>
dock_pv

> <s_m_subgroupid>
dock_pv

> <b_m_subgroup_collapsed>
1

$$$$
CHEMBL301_lig581
                    3D
 Schrodinger Suite 2021-1.
 47 49  0  0  1  0            999 V2000
   -0.0789   28.6989   12.0510 C   0  0  0  0  0  0
   -0.5549   29.8383   11.5934 N   0  0  0  0  0  0
   -1.6540   29.4895   10.9646 C   0  0  0  0  0  0
   -1.9420   28.1680   11.0404 O   0  0  0  0  0  0
   -0.9210   27.6385   11.7519 C   0  0  0  0  0  0
   -0.9436   26.1370   12.0155 C   0  0  0  0  0  0
   -2.1687   25.7995   12.8928 C   0  0  0  0  0  0
    0.3429   25.7070   12.7526 C   0  0  0  0  0  0
   -1.0427   25.3700   10.6769 C   0  0  0  0  0  0
   -2.5597   30.3438   10.0994 C   0  0  0  0  0  0
   -1.9260   32.0067    9.7233 S   0  0  0  0  0  0
   -0.5217   31.6838    8.6923 C   0  0  0  0  0  0
    0.2442   32.6520    8.0681 C   0  0  0  0  0  0
    1.2628   32.2450    7.3337 N   0  0  0  0  0  0
    1.4245   30.9457    7.3761 C   0  0  0  0  0  0
    0.2108   30.1375    8.3198 S   0  0  0  0  0  0
    2.4580   30.2934    6.7326 N   0  0  0  0  0  0
    3.1316   29.0201    7.0006 C   0  0  0  0  0  0
    3.7722   28.5030    5.6973 C   0  0  0  0  0  0
    4.6296   27.2380    5.9316 C   0  0  0  0  0  0
    5.6307   27.4520    6.9761 N   0  0  2  0  0  0
    5.0354   27.8986    8.2378 C   0  0  0  0  0  0
    4.2336   29.2039    8.0459 C   0  0  0  0  0  0
    0.8580   28.6520   12.5760 H   0  0  0  0  0  0
   -2.2313   24.7324   13.1088 H   0  0  0  0  0  0
   -3.1011   26.0893   12.4056 H   0  0  0  0  0  0
   -2.1347   26.3310   13.8451 H   0  0  0  0  0  0
    1.2344   25.9181   12.1595 H   0  0  0  0  0  0
    0.4578   26.2420   13.6969 H   0  0  0  0  0  0
    0.3435   24.6396   12.9760 H   0  0  0  0  0  0
   -0.2017   25.6012   10.0215 H   0  0  0  0  0  0
   -1.0533   24.2903   10.8307 H   0  0  0  0  0  0
   -1.9515   25.6286   10.1308 H   0  0  0  0  0  0
   -2.7763   29.8521    9.1538 H   0  0  0  0  0  0
   -3.5276   30.4716   10.5818 H   0  0  0  0  0  0
    0.0467   33.7054    8.1760 H   0  0  0  0  0  0
    3.1022   30.8799    6.2095 H   0  0  0  0  0  0
    2.4580   28.2710    7.3995 H   0  0  0  0  0  0
    2.9858   28.2525    4.9884 H   0  0  0  0  0  0
    4.3716   29.2660    5.1973 H   0  0  0  0  0  0
    4.0121   26.3821    6.2044 H   0  0  0  0  0  0
    5.1515   26.9692    5.0121 H   0  0  0  0  0  0
    6.2755   28.1577    6.6334 H   0  0  0  0  0  0
    4.3904   27.1075    8.6252 H   0  0  0  0  0  0
    5.8243   28.0379    8.9749 H   0  0  0  0  0  0
    4.9042   30.0359    7.8265 H   0  0  0  0  0  0
    3.7405   29.4520    8.9760 H   0  0  0  0  0  0
  1  2  1  0  0  0
  1  5  2  0  0  0
  1 24  1  0  0  0
  2  3  2  0  0  0
  3  4  1  0  0  0
  3 10  1  0  0  0
  4  5  1  0  0  0
  5  6  1  0  0  0
  6  7  1  0  0  0
  6  8  1  0  0  0
  6  9  1  0  0  0
  7 25  1  0  0  0
  7 26  1  0  0  0
  7 27  1  0  0  0
  8 28  1  0  0  0
  8 29  1  0  0  0
  8 30  1  0  0  0
  9 31  1  0  0  0
  9 32  1  0  0  0
  9 33  1  0  0  0
 10 11  1  0  0  0
 10 34  1  0  0  0
 10 35  1  0  0  0
 11 12  1  0  0  0
 12 13  2  0  0  0
 12 16  1  0  0  0
 13 14  1  0  0  0
 13 36  1  0  0  0
 14 15  2  0  0  0
 15 16  1  0  0  0
 15 17  1  0  0  0
 17 18  1  0  0  0
 17 37  1  0  0  0
 18 19  1  0  0  0
 18 23  1  0  0  0
 18 38  1  0  0  0
 19 20  1  0  0  0
 19 39  1  0  0  0
 19 40  1  0  0  0
 20 21  1  0  0  0
 20 41  1  0  0  0
 20 42  1  0  0  0
 21 22  1  0  0  0
 21 43  1  0  0  0
 22 23  1  0  0  0
 22 44  1  0  0  0
 22 45  1  0  0  0
 23 46  1  0  0  0
 23 47  1  0  0  0
M  END
> <s_m_entry_id>
32657

> <s_m_entry_name>
dock_pv.58

> <s_m_Source_Path>
/home/csk/Desktop/cluster/DUD-E-result/cdk2

> <s_m_Source_File>
dock_pv.maegz

> <i_m_Source_File_Index>
58

> <chembl_id>
CHEMBL509772

> <chembl_pref_name>
None

> <i_lp_mmshare_version>
53161

> <i_f3d_flags>
0

> <r_lp_tautomer_probability>
1

> <s_lp_Force_Field>
OPLS_2005

> <r_lp_Energy>
11.565849

> <b_lp_Chiralities_Consistent>
1

> <s_lp_Variant>
CHEMBL301_lig581-1

> <s_i_glide_gridfile>
glide-grid_1h00

> <i_i_glide_lignum>
818

> <i_i_glide_rotatable_bonds>
6

> <r_i_docking_score>
-8.42534906282334

> <r_i_glide_ligand_efficiency>
-0.36631952447058

> <r_i_glide_ligand_efficiency_sa>
-1.04176399862799

> <r_i_glide_ligand_efficiency_ln>
-2.03732580023216

> <r_i_glide_gscore>
-8.42534906282334

> <r_i_glide_lipo>
-3.21505570521601

> <r_i_glide_hbond>
-0.633529001685584

> <r_i_glide_metal>
0

> <r_i_glide_rewards>
-2.34932821428762

> <r_i_glide_evdw>
-35.5891342163086

> <r_i_glide_ecoul>
-6.57014513015747

> <r_i_glide_erotb>
0.537542338704924

> <r_i_glide_esite>
0

> <r_i_glide_emodel>
-62.4514187984028

> <r_i_glide_energy>
-42.1592793464661

> <r_i_glide_einternal>
3.71074032783508

> <i_i_glide_confnum>
141

> <i_i_glide_posenum>
333

> <r_i_glide_eff_state_penalty>
0

> <s_user_duplicate_titles>
CHEMBL301_lig581,494790

> <s_m_subgroup_title>
dock_pv

> <s_m_subgroupid>
dock_pv

> <b_m_subgroup_collapsed>
1

$$$$
CHEMBL301_lig511
                    3D
 Schrodinger Suite 2021-1.
 50 54  0  0  1  0            999 V2000
   -1.4755   28.3090   10.6046 N   0  0  0  0  0  0
    4.4646   25.1045    7.8743 C   0  0  0  0  0  0
    4.4767   26.4911    7.9745 C   0  0  0  0  0  0
    4.4621   27.2964    6.8351 C   0  0  0  0  0  0
    4.4596   26.7042    5.5702 C   0  0  0  0  0  0
    4.4440   28.8157    6.9592 C   0  0  0  0  0  0
    3.1782   29.3607    7.6441 C   0  0  0  0  0  0
    2.9160   29.0075    8.7928 O   0  0  0  0  0  0
    2.4580   30.2530    6.9319 N   0  0  0  0  0  0
    1.3923   30.9986    7.4003 C   0  0  0  0  0  0
    0.2497   32.7617    7.7770 N   0  0  0  0  0  0
    1.2611   32.2516    7.0548 N   0  0  0  0  0  0
   -0.3540   31.8082    8.5760 C   0  0  0  0  0  0
    0.3698   30.6167    8.3362 C   0  0  0  0  0  0
   -0.0084   29.4519    9.0130 C   0  0  0  0  0  0
   -1.0787   29.4734    9.9105 C   0  0  0  0  0  0
   -1.7615   30.6736   10.1352 C   0  0  0  0  0  0
   -1.4287   31.8618    9.4729 C   0  0  0  0  0  0
   -1.2027   26.9878   10.0299 C   0  0  0  0  0  0
    0.1556   26.4713   10.5475 C   0  0  0  0  0  0
    0.5444   27.2869   11.7915 C   0  0  0  0  0  0
   -1.0349   28.1429   12.3104 S   0  0  0  0  0  0
   -0.7408   29.4332   12.9441 O   0  0  0  0  0  0
   -1.8382   27.1182   12.9880 O   0  0  0  0  0  0
    4.4605   24.4791    6.6069 C   0  0  0  0  0  0
    4.4577   25.2942    5.4347 C   0  0  0  0  0  0
    4.4467   24.6686    4.1666 C   0  0  0  0  0  0
    4.4329   23.2806    4.0630 C   0  0  0  0  0  0
    4.4396   22.4862    5.2043 C   0  0  0  0  0  0
    4.4575   23.0684    6.4691 C   0  0  0  0  0  0
    4.4577   24.5043    8.7708 H   0  0  0  0  0  0
    4.4839   26.9423    8.9568 H   0  0  0  0  0  0
    4.4531   27.3143    4.6785 H   0  0  0  0  0  0
    5.3085   29.1362    7.5411 H   0  0  0  0  0  0
    4.5674   29.2606    5.9705 H   0  0  0  0  0  0
    2.9271   30.6201    6.1145 H   0  0  0  0  0  0
    0.0100   33.7413    7.6751 H   0  0  0  0  0  0
    0.5507   28.5480    8.8656 H   0  0  0  0  0  0
   -2.5770   30.6867   10.8474 H   0  0  0  0  0  0
   -1.9745   32.7750    9.6608 H   0  0  0  0  0  0
   -2.0099   26.2660   10.1642 H   0  0  0  0  0  0
   -1.1410   27.0506    8.9426 H   0  0  0  0  0  0
    0.0761   25.4081   10.7804 H   0  0  0  0  0  0
    0.9310   26.5417    9.7818 H   0  0  0  0  0  0
    0.8578   26.6506   12.6147 H   0  0  0  0  0  0
    1.3113   28.0384   11.6018 H   0  0  0  0  0  0
    4.4429   25.2735    3.2702 H   0  0  0  0  0  0
    4.4155   22.8237    3.0837 H   0  0  0  0  0  0
    4.4286   21.4108    5.1067 H   0  0  0  0  0  0
    4.4531   22.4470    7.3523 H   0  0  0  0  0  0
  1 16  1  0  0  0
  1 19  1  0  0  0
  1 22  1  0  0  0
  2  3  2  0  0  0
  2 25  1  0  0  0
  2 31  1  0  0  0
  3  4  1  0  0  0
  3 32  1  0  0  0
  4  5  2  0  0  0
  4  6  1  0  0  0
  5 26  1  0  0  0
  5 33  1  0  0  0
  6  7  1  0  0  0
  6 34  1  0  0  0
  6 35  1  0  0  0
  7  8  2  0  0  0
  7  9  1  0  0  0
  9 10  1  0  0  0
  9 36  1  0  0  0
 10 14  1  0  0  0
 10 12  2  0  0  0
 11 13  1  0  0  0
 11 12  1  0  0  0
 11 37  1  0  0  0
 13 18  1  0  0  0
 13 14  2  0  0  0
 14 15  1  0  0  0
 15 16  2  0  0  0
 15 38  1  0  0  0
 16 17  1  0  0  0
 17 18  2  0  0  0
 17 39  1  0  0  0
 18 40  1  0  0  0
 19 20  1  0  0  0
 19 41  1  0  0  0
 19 42  1  0  0  0
 20 21  1  0  0  0
 20 43  1  0  0  0
 20 44  1  0  0  0
 21 22  1  0  0  0
 21 45  1  0  0  0
 21 46  1  0  0  0
 22 23  2  0  0  0
 22 24  2  0  0  0
 25 26  1  0  0  0
 25 30  2  0  0  0
 26 27  2  0  0  0
 27 28  1  0  0  0
 27 47  1  0  0  0
 28 29  2  0  0  0
 28 48  1  0  0  0
 29 30  1  0  0  0
 29 49  1  0  0  0
 30 50  1  0  0  0
M  END
> <s_m_entry_id>
32658

> <s_m_entry_name>
dock_pv.59

> <s_m_Source_Path>
/home/csk/Desktop/cluster/DUD-E-result/cdk2

> <s_m_Source_File>
dock_pv.maegz

> <i_m_Source_File_Index>
59

> <chembl_id>
CHEMBL254979

> <chembl_pref_name>
None

> <i_lp_mmshare_version>
53161

> <i_f3d_flags>
0

> <r_lp_tautomer_probability>
0.980392156862745

> <s_lp_Force_Field>
OPLS_2005

> <r_lp_Energy>
25.222795

> <b_lp_Chiralities_Consistent>
1

> <s_lp_Variant>
CHEMBL301_lig511-1

> <s_i_glide_gridfile>
glide-grid_1h00

> <i_i_glide_lignum>
706

> <i_i_glide_rotatable_bonds>
5

> <r_i_docking_score>
-8.41967281781828

> <r_i_glide_ligand_efficiency>
-0.280655760593943

> <r_i_glide_ligand_efficiency_sa>
-0.872062701312017

> <r_i_glide_ligand_efficiency_ln>
-1.91304140389144

> <r_i_glide_gscore>
-8.41967281781828

> <r_i_glide_lipo>
-2.94023647134506

> <r_i_glide_hbond>
-0.598286428292122

> <r_i_glide_metal>
0

> <r_i_glide_rewards>
-1.81774161817038

> <r_i_glide_evdw>
-44.256721496582

> <r_i_glide_ecoul>
-7.48493432998657

> <r_i_glide_erotb>
0.313447648796753

> <r_i_glide_esite>
-0.0412797244803913

> <r_i_glide_emodel>
-72.6047245592575

> <r_i_glide_energy>
-51.7416558265686

> <r_i_glide_einternal>
8.02479457855225

> <i_i_glide_confnum>
6

> <i_i_glide_posenum>
59

> <r_i_glide_eff_state_penalty>
0

> <s_user_duplicate_titles>
CHEMBL301_lig511,424753

> <s_m_subgroup_title>
dock_pv

> <s_m_subgroupid>
dock_pv

> <b_m_subgroup_collapsed>
1

$$$$
CHEMBL301_lig1437
                    3D
 Schrodinger Suite 2021-1.
 49 51  0  0  1  0            999 V2000
   -1.5408   27.6670   12.7912 C   0  0  0  0  0  0
   -0.1503   27.5830   12.1416 C   0  0  1  0  0  0
    0.4578   26.3714   12.5503 O   0  0  0  0  0  0
   -0.1300   27.7089   10.5952 C   0  0  1  0  0  0
   -0.9657   26.6375    9.8652 C   0  0  0  0  0  0
   -0.6592   29.0028   10.2594 O   0  0  0  0  0  0
   -0.0271   29.8477    9.3587 C   0  0  0  0  0  0
    1.1487   29.4519    8.8019 N   0  0  0  0  0  0
    1.7184   30.2534    7.8724 C   0  0  0  0  0  0
    2.8908   29.8503    7.2269 N   0  0  0  0  0  0
    3.6582   28.6700    7.2474 C   0  0  0  0  0  0
    4.3962   28.3724    6.1003 C   0  0  0  0  0  0
    5.0579   27.1574    5.9783 C   0  0  0  0  0  0
    4.9610   26.2158    6.9993 C   0  0  0  0  0  0
    4.2672   26.5209    8.1727 C   0  0  0  0  0  0
    3.6575   27.7656    8.3148 C   0  0  0  0  0  0
    5.6752   24.5918    6.7732 S   0  0  0  0  0  0
    7.1107   24.7285    7.0367 O   0  0  0  0  0  0
    4.8575   23.6572    7.5551 O   0  0  0  0  0  0
    5.4415   24.1995    4.9300 C   0  0  0  0  0  0
    5.1667   22.7615    4.5633 C   0  0  0  0  0  0
    4.0593   23.7952    4.4815 C   0  0  0  0  0  0
    1.2221   31.4513    7.4783 N   0  0  0  0  0  0
    0.0837   31.8666    8.0972 C   0  0  0  0  0  0
   -0.6061   31.0812    9.0288 C   0  0  0  0  0  0
   -1.8839   31.5834    9.6889 C   0  0  0  0  0  0
   -1.9460   31.2021   10.9630 F   0  0  0  0  0  0
   -1.9410   32.9158    9.6610 F   0  0  0  0  0  0
   -2.9364   31.0928    9.0344 F   0  0  0  0  0  0
   -2.0629   28.5745   12.4856 H   0  0  0  0  0  0
   -1.4674   27.6941   13.8788 H   0  0  0  0  0  0
   -2.1730   26.8180   12.5323 H   0  0  0  0  0  0
    0.4552   28.3944   12.5501 H   0  0  0  0  0  0
    1.3735   26.5799   12.7890 H   0  0  0  0  0  0
    0.9101   27.5847   10.2926 H   0  0  0  0  0  0
   -0.4656   25.6691    9.8860 H   0  0  0  0  0  0
   -1.9420   26.5041   10.3214 H   0  0  0  0  0  0
   -1.1413   26.9059    8.8234 H   0  0  0  0  0  0
    3.2631   30.5420    6.5847 H   0  0  0  0  0  0
    4.4270   29.0552    5.2669 H   0  0  0  0  0  0
    5.6061   26.9453    5.0728 H   0  0  0  0  0  0
    4.1599   25.7853    8.9559 H   0  0  0  0  0  0
    3.1241   27.9775    9.2276 H   0  0  0  0  0  0
    6.0883   24.8057    4.2961 H   0  0  0  0  0  0
    5.5955   22.3710    3.6394 H   0  0  0  0  0  0
    5.1406   22.0138    5.3573 H   0  0  0  0  0  0
    3.2587   23.7691    5.2220 H   0  0  0  0  0  0
    3.7108   24.1249    3.5003 H   0  0  0  0  0  0
   -0.2788   32.8405    7.7958 H   0  0  0  0  0  0
  1  2  1  0  0  0
  1 30  1  0  0  0
  1 31  1  0  0  0
  1 32  1  0  0  0
  2  3  1  0  0  0
  2  4  1  0  0  0
  2 33  1  0  0  0
  3 34  1  0  0  0
  4  5  1  0  0  0
  4  6  1  0  0  0
  4 35  1  0  0  0
  5 36  1  0  0  0
  5 37  1  0  0  0
  5 38  1  0  0  0
  6  7  1  0  0  0
  7  8  2  0  0  0
  7 25  1  0  0  0
  8  9  1  0  0  0
  9 10  1  0  0  0
  9 23  2  0  0  0
 10 11  1  0  0  0
 10 39  1  0  0  0
 11 12  2  0  0  0
 11 16  1  0  0  0
 12 13  1  0  0  0
 12 40  1  0  0  0
 13 14  2  0  0  0
 13 41  1  0  0  0
 14 15  1  0  0  0
 14 17  1  0  0  0
 15 16  2  0  0  0
 15 42  1  0  0  0
 16 43  1  0  0  0
 17 18  2  0  0  0
 17 19  2  0  0  0
 17 20  1  0  0  0
 20 21  1  0  0  0
 20 22  1  0  0  0
 20 44  1  0  0  0
 21 22  1  0  0  0
 21 45  1  0  0  0
 21 46  1  0  0  0
 22 47  1  0  0  0
 22 48  1  0  0  0
 23 24  1  0  0  0
 24 25  2  0  0  0
 24 49  1  0  0  0
 25 26  1  0  0  0
 26 27  1  0  0  0
 26 28  1  0  0  0
 26 29  1  0  0  0
M  END
> <s_m_entry_id>
32659

> <s_m_entry_name>
dock_pv.60

> <s_m_Source_Path>
/home/csk/Desktop/cluster/DUD-E-result/cdk2

> <s_m_Source_File>
dock_pv.maegz

> <i_m_Source_File_Index>
60

> <chembl_id>
CHEMBL3644032

> <chembl_pref_name>
None

> <i_lp_mmshare_version>
53161

> <i_f3d_flags>
0

> <r_lp_tautomer_probability>
0.999999917912647

> <s_lp_Force_Field>
OPLS_2005

> <r_lp_Energy>
12.296466

> <b_lp_Chiralities_Consistent>
1

> <s_lp_Variant>
CHEMBL301_lig1437-1

> <s_i_glide_gridfile>
glide-grid_1h00

> <i_i_glide_lignum>
1950

> <i_i_glide_rotatable_bonds>
9

> <r_i_docking_score>
-8.41867910051579

> <r_i_glide_ligand_efficiency>
-0.290299279328131

> <r_i_glide_ligand_efficiency_sa>
-0.891891359363204

> <r_i_glide_ligand_efficiency_ln>
-1.92766403473562

> <r_i_glide_gscore>
-8.41867910051579

> <r_i_glide_lipo>
-2.36787290017028

> <r_i_glide_hbond>
-0.594869020784532

> <r_i_glide_metal>
0

> <r_i_glide_rewards>
-2.64766187132972

> <r_i_glide_evdw>
-37.8692474365234

> <r_i_glide_ecoul>
-10.6169347763062

> <r_i_glide_erotb>
0.748009566963726

> <r_i_glide_esite>
-0.0702822869228897

> <r_i_glide_emodel>
-69.0508523899041

> <r_i_glide_energy>
-48.4861822128296

> <r_i_glide_einternal>
10.1020164489746

> <i_i_glide_confnum>
172

> <i_i_glide_posenum>
266

> <r_i_glide_eff_state_penalty>
0

> <s_user_duplicate_titles>
CHEMBL301_lig1437

> <s_m_subgroup_title>
dock_pv

> <s_m_subgroupid>
dock_pv

> <b_m_subgroup_collapsed>
1

$$$$
CHEMBL301_lig522
                    3D
 Schrodinger Suite 2021-1.
 44 47  0  0  1  0            999 V2000
   -1.4516   27.8970   10.8586 N   0  0  0  0  0  0
    4.4549   26.0159    4.7048 C   0  0  0  0  0  0
    4.3955   24.8481    5.4640 C   0  0  0  0  0  0
    4.4620   24.9013    6.8552 C   0  0  0  0  0  0
    4.5789   26.1316    7.4949 C   0  0  0  0  0  0
    4.6182   27.3104    6.7404 C   0  0  0  0  0  0
    4.5611   27.2495    5.3434 C   0  0  0  0  0  0
    4.6672   28.6626    7.4419 C   0  0  0  0  0  0
    3.3004   29.0575    8.0219 C   0  0  0  0  0  0
    2.9134   28.4937    9.0413 O   0  0  0  0  0  0
    2.6398   30.0414    7.3757 N   0  0  0  0  0  0
    1.4598   30.6711    7.7578 C   0  0  0  0  0  0
    0.1471   32.3529    7.9886 N   0  0  0  0  0  0
    1.2580   31.9080    7.3746 N   0  0  0  0  0  0
   -0.4476   31.3700    8.7520 C   0  0  0  0  0  0
    0.3784   30.2251    8.6033 C   0  0  0  0  0  0
    0.0062   29.0463    9.2655 C   0  0  0  0  0  0
   -1.1127   29.0366   10.1027 C   0  0  0  0  0  0
   -1.8818   30.1931   10.2465 C   0  0  0  0  0  0
   -1.5891   31.3743    9.5601 C   0  0  0  0  0  0
   -1.3030   26.5698   10.2616 C   0  0  0  0  0  0
    0.0704   25.9694   10.6462 C   0  0  0  0  0  0
    0.7033   26.8360   11.7500 C   0  0  0  0  0  0
   -0.7549   27.7650   12.4738 S   0  0  0  0  0  0
   -0.3428   29.0781   12.9757 O   0  0  0  0  0  0
   -1.4801   26.8079   13.3174 O   0  0  0  0  0  0
    4.1888   23.1697    4.5915 Br  0  0  0  0  0  0
    4.3985   25.9617    3.6259 H   0  0  0  0  0  0
    4.4056   23.9935    7.4352 H   0  0  0  0  0  0
    4.6137   26.1734    8.5750 H   0  0  0  0  0  0
    4.5898   28.1545    4.7552 H   0  0  0  0  0  0
    5.3908   28.6208    8.2568 H   0  0  0  0  0  0
    5.0298   29.4276    6.7552 H   0  0  0  0  0  0
    3.1530   30.5011    6.6328 H   0  0  0  0  0  0
   -0.1581   33.3076    7.8484 H   0  0  0  0  0  0
    0.5952   28.1558    9.1486 H   0  0  0  0  0  0
   -2.7321   30.1800   10.9173 H   0  0  0  0  0  0
   -2.2019   32.2553    9.6807 H   0  0  0  0  0  0
   -2.1447   25.9016   10.4574 H   0  0  0  0  0  0
   -1.3177   26.6336    9.1723 H   0  0  0  0  0  0
   -0.0715   24.9432   10.9877 H   0  0  0  0  0  0
    0.7340   25.8975    9.7834 H   0  0  0  0  0  0
    1.1817   26.2485   12.5331 H   0  0  0  0  0  0
    1.4350   27.5548   11.3786 H   0  0  0  0  0  0
  1 18  1  0  0  0
  1 21  1  0  0  0
  1 24  1  0  0  0
  2  3  2  0  0  0
  2  7  1  0  0  0
  2 28  1  0  0  0
  3  4  1  0  0  0
  3 27  1  0  0  0
  4  5  2  0  0  0
  4 29  1  0  0  0
  5  6  1  0  0  0
  5 30  1  0  0  0
  6  8  1  0  0  0
  6  7  2  0  0  0
  7 31  1  0  0  0
  8  9  1  0  0  0
  8 32  1  0  0  0
  8 33  1  0  0  0
  9 10  2  0  0  0
  9 11  1  0  0  0
 11 12  1  0  0  0
 11 34  1  0  0  0
 12 14  2  0  0  0
 12 16  1  0  0  0
 13 15  1  0  0  0
 13 14  1  0  0  0
 13 35  1  0  0  0
 15 16  2  0  0  0
 15 20  1  0  0  0
 16 17  1  0  0  0
 17 18  2  0  0  0
 17 36  1  0  0  0
 18 19  1  0  0  0
 19 20  2  0  0  0
 19 37  1  0  0  0
 20 38  1  0  0  0
 21 22  1  0  0  0
 21 39  1  0  0  0
 21 40  1  0  0  0
 22 23  1  0  0  0
 22 41  1  0  0  0
 22 42  1  0  0  0
 23 24  1  0  0  0
 23 43  1  0  0  0
 23 44  1  0  0  0
 24 25  2  0  0  0
 24 26  2  0  0  0
M  END
> <s_m_entry_id>
32660

> <s_m_entry_name>
dock_pv.61

> <s_m_Source_Path>
/home/csk/Desktop/cluster/DUD-E-result/cdk2

> <s_m_Source_File>
dock_pv.maegz

> <i_m_Source_File_Index>
61

> <chembl_id>
CHEMBL402370

> <chembl_pref_name>
None

> <i_lp_mmshare_version>
53161

> <i_f3d_flags>
0

> <r_lp_tautomer_probability>
0.980392156862745

> <s_lp_Force_Field>
OPLS_2005

> <r_lp_Energy>
20.271882

> <b_lp_Chiralities_Consistent>
1

> <s_lp_Variant>
CHEMBL301_lig522-1

> <s_i_glide_gridfile>
glide-grid_1h00

> <i_i_glide_lignum>
728

> <i_i_glide_rotatable_bonds>
5

> <r_i_docking_score>
-8.41095195457577

> <r_i_glide_ligand_efficiency>
-0.311516739058362

> <r_i_glide_ligand_efficiency_sa>
-0.934550216148378

> <r_i_glide_ligand_efficiency_ln>
-1.95793094964498

> <r_i_glide_gscore>
-8.41095195457577

> <r_i_glide_lipo>
-2.92340065788762

> <r_i_glide_hbond>
-0.316893683785162

> <r_i_glide_metal>
0

> <r_i_glide_rewards>
-2.33104935081077

> <r_i_glide_evdw>
-44.9762306213379

> <r_i_glide_ecoul>
-6.50416135787964

> <r_i_glide_erotb>
0.397045593626921

> <r_i_glide_esite>
-0.0122181209703033

> <r_i_glide_emodel>
-72.4070875092535

> <r_i_glide_energy>
-51.4803919792175

> <r_i_glide_einternal>
9.24416446685791

> <i_i_glide_confnum>
24

> <i_i_glide_posenum>
308

> <r_i_glide_eff_state_penalty>
0

> <s_user_duplicate_titles>
CHEMBL301_lig522,424701

> <s_m_subgroup_title>
dock_pv

> <s_m_subgroupid>
dock_pv

> <b_m_subgroup_collapsed>
1

$$$$
CHEMBL301_lig1147
                    3D
 Schrodinger Suite 2021-1.
 58 61  0  0  1  0            999 V2000
    3.5206   28.5623    8.2002 C   0  0  0  0  0  0
    4.3024   27.4263    8.3681 C   0  0  0  0  0  0
    4.8545   26.7594    7.2719 C   0  0  0  0  0  0
    4.6279   27.2574    5.9739 C   0  0  0  0  0  0
    3.8492   28.4165    5.8212 C   0  0  0  0  0  0
    3.2607   29.0541    6.9210 C   0  0  0  0  0  0
    2.4583   30.2018    6.7301 N   0  0  0  0  0  0
    1.4053   30.7070    7.5070 C   0  0  0  0  0  0
    1.0990   32.0237    7.3761 N   0  0  0  0  0  0
    0.0590   32.4810    8.1328 C   0  0  0  0  0  0
   -0.6819   31.6507    8.9768 C   0  0  0  0  0  0
   -0.2772   30.3108    9.0732 C   0  0  0  0  0  0
    0.7650   29.8521    8.3328 N   0  0  0  0  0  0
   -0.9188   29.3053    9.9763 C   0  0  0  0  0  0
   -0.3290   28.0518   10.2428 C   0  0  0  0  0  0
   -0.9731   27.1133   11.0664 C   0  0  0  0  0  0
   -2.1694   27.4185   11.6447 N   0  0  0  0  0  0
   -2.7431   28.6160   11.3764 C   0  0  0  0  0  0
   -2.1583   29.5763   10.5667 C   0  0  0  0  0  0
   -0.4298   25.7321   11.3425 C   0  0  0  0  0  0
   -1.0749   24.8716   12.2483 C   0  0  0  0  0  0
   -0.6096   23.5827   12.4874 C   0  0  0  0  0  0
    0.5259   23.1115   11.8334 C   0  0  0  0  0  0
    1.1930   23.9536   10.9344 C   0  0  0  0  0  0
    0.7157   25.2410   10.6922 C   0  0  0  0  0  0
    0.9013   21.7910   12.1451 N   0  0  0  0  0  0
    1.9647   21.0724   11.7404 C   0  0  0  0  0  0
    1.9663   19.8681   12.3274 N   0  0  0  0  0  0
    2.8574   21.4532   10.9799 O   0  0  0  0  0  0
    3.1660   19.0579   12.4733 C   0  0  0  0  0  0
    5.2925   26.4655    4.4833 S   0  0  0  0  0  0
    4.1070   25.2539    4.0161 N   0  0  2  0  0  0
    5.2729   27.4602    3.4076 O   0  0  0  0  0  0
    6.5402   25.7700    4.8189 O   0  0  0  0  0  0
    4.0573   23.9804    4.7597 C   0  0  0  0  0  0
    5.7574   25.3202    7.5971 Cl  0  0  0  0  0  0
    3.1138   29.0518    9.0718 H   0  0  0  0  0  0
    4.4591   27.0490    9.3676 H   0  0  0  0  0  0
    3.6760   28.8102    4.8333 H   0  0  0  0  0  0
    2.9468   30.9122    6.1962 H   0  0  0  0  0  0
   -0.1857   33.5287    8.0281 H   0  0  0  0  0  0
   -1.4992   32.0631    9.5532 H   0  0  0  0  0  0
    0.6242   27.8181    9.7977 H   0  0  0  0  0  0
   -3.7101   28.7910   11.8163 H   0  0  0  0  0  0
   -2.6922   30.4987   10.3984 H   0  0  0  0  0  0
   -1.9584   25.1912   12.7796 H   0  0  0  0  0  0
   -1.1466   22.9599   13.1896 H   0  0  0  0  0  0
    2.0654   23.6365   10.3851 H   0  0  0  0  0  0
    1.2559   25.8407    9.9794 H   0  0  0  0  0  0
    0.2725   21.3222   12.7802 H   0  0  0  0  0  0
    1.0975   19.4681   12.6570 H   0  0  0  0  0  0
    3.0650   18.4114   13.3442 H   0  0  0  0  0  0
    4.0584   19.6733   12.6101 H   0  0  0  0  0  0
    3.3099   18.4417   11.5850 H   0  0  0  0  0  0
    4.0361   25.1360    2.9951 H   0  0  0  0  0  0
    3.2666   23.3589    4.3373 H   0  0  0  0  0  0
    5.0077   23.4532    4.6684 H   0  0  0  0  0  0
    3.8157   24.1673    5.8070 H   0  0  0  0  0  0
  1  6  1  0  0  0
  1  2  2  0  0  0
  1 37  1  0  0  0
  2  3  1  0  0  0
  2 38  1  0  0  0
  3  4  2  0  0  0
  3 36  1  0  0  0
  4  5  1  0  0  0
  4 31  1  0  0  0
  5  6  2  0  0  0
  5 39  1  0  0  0
  6  7  1  0  0  0
  7  8  1  0  0  0
  7 40  1  0  0  0
  8  9  2  0  0  0
  8 13  1  0  0  0
  9 10  1  0  0  0
 10 11  2  0  0  0
 10 41  1  0  0  0
 11 12  1  0  0  0
 11 42  1  0  0  0
 12 14  1  0  0  0
 12 13  2  0  0  0
 14 19  1  0  0  0
 14 15  2  0  0  0
 15 16  1  0  0  0
 15 43  1  0  0  0
 16 20  1  0  0  0
 16 17  2  0  0  0
 17 18  1  0  0  0
 18 19  2  0  0  0
 18 44  1  0  0  0
 19 45  1  0  0  0
 20 21  2  0  0  0
 20 25  1  0  0  0
 21 22  1  0  0  0
 21 46  1  0  0  0
 22 23  2  0  0  0
 22 47  1  0  0  0
 23 24  1  0  0  0
 23 26  1  0  0  0
 24 25  2  0  0  0
 24 48  1  0  0  0
 25 49  1  0  0  0
 26 27  1  0  0  0
 26 50  1  0  0  0
 27 28  1  0  0  0
 27 29  2  0  0  0
 28 30  1  0  0  0
 28 51  1  0  0  0
 30 52  1  0  0  0
 30 53  1  0  0  0
 30 54  1  0  0  0
 31 32  1  0  0  0
 31 33  2  0  0  0
 31 34  2  0  0  0
 32 35  1  0  0  0
 32 55  1  0  0  0
 35 56  1  0  0  0
 35 57  1  0  0  0
 35 58  1  0  0  0
M  END
> <s_m_entry_id>
32661

> <s_m_entry_name>
dock_pv.62

> <s_m_Source_Path>
/home/csk/Desktop/cluster/DUD-E-result/cdk2

> <s_m_Source_File>
dock_pv.maegz

> <i_m_Source_File_Index>
62

> <chembl_id>
CHEMBL2158864

> <chembl_pref_name>
None

> <i_lp_mmshare_version>
53161

> <i_f3d_flags>
0

> <r_lp_tautomer_probability>
0.999999987636

> <s_lp_Force_Field>
OPLS_2005

> <r_lp_Energy>
23.807358

> <b_lp_Chiralities_Consistent>
1

> <s_lp_Variant>
CHEMBL301_lig1147-1

> <s_i_glide_gridfile>
glide-grid_1h00

> <i_i_glide_lignum>
1559

> <i_i_glide_rotatable_bonds>
9

> <r_i_docking_score>
-8.39809410954784

> <r_i_glide_ligand_efficiency>
-0.233280391931885

> <r_i_glide_ligand_efficiency_sa>
-0.77027488183261

> <r_i_glide_ligand_efficiency_ln>
-1.8322372444209

> <r_i_glide_gscore>
-8.39809410954784

> <r_i_glide_lipo>
-3.08166299928883

> <r_i_glide_hbond>
-0.485147802521954

> <r_i_glide_metal>
0

> <r_i_glide_rewards>
-1.21456965908509

> <r_i_glide_evdw>
-47.3324241638184

> <r_i_glide_ecoul>
-10.804009437561

> <r_i_glide_erotb>
0.524512019500401

> <r_i_glide_esite>
-0.154003044327303

> <r_i_glide_emodel>
-84.1688984656153

> <r_i_glide_energy>
-58.1364336013794

> <r_i_glide_einternal>
6.89886951446533

> <i_i_glide_confnum>
11

> <i_i_glide_posenum>
205

> <r_i_glide_eff_state_penalty>
0

> <s_user_duplicate_titles>
CHEMBL301_lig1147

> <s_m_subgroup_title>
dock_pv

> <s_m_subgroupid>
dock_pv

> <b_m_subgroup_collapsed>
1

$$$$
CHEMBL301_lig1320
                    3D
 Schrodinger Suite 2021-1.
 57 59  0  0  1  0            999 V2000
    1.5217   24.0020   10.4546 C   0  0  0  0  0  0
    0.4544   24.7017   11.3204 C   0  0  0  0  0  0
    0.0748   26.1459   10.8759 C   0  0  2  0  0  0
    1.2818   26.9425   10.6176 N   0  0  0  0  0  0
    1.2747   28.0894    9.8206 C   0  0  0  0  0  0
    2.4046   28.2570    9.0999 N   0  0  0  0  0  0
    2.4679   29.3061    8.2398 C   0  0  0  0  0  0
    3.6214   29.4519    7.4597 N   0  0  0  0  0  0
    4.7393   28.5051    7.4626 C   0  0  0  0  0  0
    4.5841   27.4268    6.3886 C   0  0  0  0  0  0
    4.5388   27.8951    5.1098 N   0  0  0  0  0  0
    4.4540   27.0004    4.0950 C   0  0  0  0  0  0
    4.4143   25.6239    4.3029 C   0  0  0  0  0  0
    4.4658   25.1480    5.6133 C   0  0  0  0  0  0
    4.5572   26.0487    6.6827 C   0  0  0  0  0  0
    4.6124   25.5141    8.1049 C   0  0  0  0  0  0
    1.4053   30.2346    8.1765 C   0  0  0  0  0  0
    1.1920   31.3905    7.4677 N   0  0  0  0  0  0
    0.1163   31.9012    8.0243 C   0  0  0  0  0  0
   -0.4854   31.1024    8.9802 N   0  0  0  0  0  0
   -1.6658   31.3990    9.8132 C   0  0  0  0  0  0
   -2.8958   30.6386    9.2925 C   0  0  0  0  0  0
   -1.9390   32.9114    9.9439 C   0  0  0  0  0  0
    0.3190   29.9793    9.0491 C   0  0  0  0  0  0
    0.1940   28.9114    9.8371 N   0  0  0  0  0  0
   -0.9485   26.8275   11.8401 C   0  0  1  0  0  0
   -2.2567   26.0495   12.0510 C   0  0  0  0  0  0
   -0.3414   27.0450   13.0945 O   0  0  0  0  0  0
    1.6379   22.9564   10.7380 H   0  0  0  0  0  0
    1.2497   24.0264    9.3996 H   0  0  0  0  0  0
    2.4967   24.4804   10.5556 H   0  0  0  0  0  0
    0.7949   24.7051   12.3574 H   0  0  0  0  0  0
   -0.4375   24.0800   11.3043 H   0  0  0  0  0  0
   -0.4329   26.0488    9.9126 H   0  0  0  0  0  0
    2.1356   26.4122   10.5341 H   0  0  0  0  0  0
    3.7190   30.2783    6.8761 H   0  0  0  0  0  0
    5.6567   29.0566    7.2587 H   0  0  0  0  0  0
    4.8743   28.0682    8.4526 H   0  0  0  0  0  0
    4.4209   27.4039    3.0934 H   0  0  0  0  0  0
    4.3445   24.9426    3.4660 H   0  0  0  0  0  0
    4.4333   24.0839    5.7940 H   0  0  0  0  0  0
    4.4512   24.4364    8.1430 H   0  0  0  0  0  0
    5.5779   25.7426    8.5564 H   0  0  0  0  0  0
    3.8416   25.9787    8.7179 H   0  0  0  0  0  0
   -0.3071   32.8639    7.7783 H   0  0  0  0  0  0
   -1.4388   31.0341   10.8181 H   0  0  0  0  0  0
   -3.7778   30.8710    9.8905 H   0  0  0  0  0  0
   -2.7447   29.5612    9.3626 H   0  0  0  0  0  0
   -3.1223   30.9027    8.2582 H   0  0  0  0  0  0
   -2.8082   33.0957   10.5762 H   0  0  0  0  0  0
   -1.1040   33.4390   10.4025 H   0  0  0  0  0  0
   -2.1396   33.3726    8.9783 H   0  0  0  0  0  0
   -1.2364   27.8120   11.4757 H   0  0  0  0  0  0
   -2.7451   25.8532   11.0959 H   0  0  0  0  0  0
   -2.0991   25.0921   12.5445 H   0  0  0  0  0  0
   -2.9562   26.6240   12.6609 H   0  0  0  0  0  0
    0.5647   27.3407   12.9291 H   0  0  0  0  0  0
  1  2  1  0  0  0
  1 29  1  0  0  0
  1 30  1  0  0  0
  1 31  1  0  0  0
  2  3  1  0  0  0
  2 32  1  0  0  0
  2 33  1  0  0  0
  3  4  1  0  0  0
  3 26  1  0  0  0
  3 34  1  0  0  0
  4  5  1  0  0  0
  4 35  1  0  0  0
  5  6  2  0  0  0
  5 25  1  0  0  0
  6  7  1  0  0  0
  7  8  1  0  0  0
  7 17  2  0  0  0
  8  9  1  0  0  0
  8 36  1  0  0  0
  9 10  1  0  0  0
  9 37  1  0  0  0
  9 38  1  0  0  0
 10 11  2  0  0  0
 10 15  1  0  0  0
 11 12  1  0  0  0
 12 13  2  0  0  0
 12 39  1  0  0  0
 13 14  1  0  0  0
 13 40  1  0  0  0
 14 15  2  0  0  0
 14 41  1  0  0  0
 15 16  1  0  0  0
 16 42  1  0  0  0
 16 43  1  0  0  0
 16 44  1  0  0  0
 17 18  1  0  0  0
 17 24  1  0  0  0
 18 19  2  0  0  0
 19 20  1  0  0  0
 19 45  1  0  0  0
 20 21  1  0  0  0
 20 24  1  0  0  0
 21 22  1  0  0  0
 21 23  1  0  0  0
 21 46  1  0  0  0
 22 47  1  0  0  0
 22 48  1  0  0  0
 22 49  1  0  0  0
 23 50  1  0  0  0
 23 51  1  0  0  0
 23 52  1  0  0  0
 24 25  2  0  0  0
 26 27  1  0  0  0
 26 28  1  0  0  0
 26 53  1  0  0  0
 27 54  1  0  0  0
 27 55  1  0  0  0
 27 56  1  0  0  0
 28 57  1  0  0  0
M  END
> <s_m_entry_id>
32662

> <s_m_entry_name>
dock_pv.63

> <s_m_Source_Path>
/home/csk/Desktop/cluster/DUD-E-result/cdk2

> <s_m_Source_File>
dock_pv.maegz

> <i_m_Source_File_Index>
63

> <chembl_id>
CHEMBL3655774

> <chembl_pref_name>
None

> <i_lp_mmshare_version>
53161

> <i_f3d_flags>
0

> <r_lp_tautomer_probability>
1

> <s_lp_Force_Field>
OPLS_2005

> <r_lp_Energy>
14.686012

> <b_lp_Chiralities_Consistent>
1

> <s_lp_Variant>
CHEMBL301_lig1320-1

> <s_i_glide_gridfile>
glide-grid_1h00

> <i_i_glide_lignum>
1737

> <i_i_glide_rotatable_bonds>
9

> <r_i_docking_score>
-8.39778801695574

> <r_i_glide_ligand_efficiency>
-0.299921000605562

> <r_i_glide_ligand_efficiency_sa>
-0.910736801861177

> <r_i_glide_ligand_efficiency_ln>
-1.93845604408369

> <r_i_glide_gscore>
-8.39778801695574

> <r_i_glide_lipo>
-2.76156204021746

> <r_i_glide_hbond>
-0.505130062677428

> <r_i_glide_metal>
0

> <r_i_glide_rewards>
-3.04992336225816

> <r_i_glide_evdw>
-42.4216156005859

> <r_i_glide_ecoul>
-4.97331142425537

> <r_i_glide_erotb>
0.792820110583749

> <r_i_glide_esite>
-0.0069151687188421

> <r_i_glide_emodel>
-66.929376968322

> <r_i_glide_energy>
-47.3949270248413

> <r_i_glide_einternal>
5.88414812088013

> <i_i_glide_confnum>
5

> <i_i_glide_posenum>
361

> <r_i_glide_eff_state_penalty>
0

> <s_user_duplicate_titles>
CHEMBL301_lig1320

> <s_m_subgroup_title>
dock_pv

> <s_m_subgroupid>
dock_pv

> <b_m_subgroup_collapsed>
1

$$$$
CHEMBL301_lig1380
                    3D
 Schrodinger Suite 2021-1.
 43 44  0  0  1  0            999 V2000
   -1.1391   29.4016   13.2854 C   0  0  0  0  0  0
   -1.0378   28.0809   12.5058 C   0  0  1  0  0  0
   -2.3095   27.4562   12.5331 O   0  0  0  0  0  0
   -0.5062   28.3022   11.0639 C   0  0  1  0  0  0
   -0.2313   26.9949   10.2982 C   0  0  0  0  0  0
   -1.5283   29.4498   10.0919 S   0  0  0  0  0  0
   -0.4784   30.4611    9.0941 C   0  0  0  0  0  0
    0.5920   29.8879    8.4734 N   0  0  0  0  0  0
    1.3342   30.6974    7.6634 C   0  0  0  0  0  0
    2.4538   30.2044    6.9775 N   0  0  0  0  0  0
    3.2578   29.0674    7.1199 C   0  0  0  0  0  0
    3.4104   28.4071    8.3384 C   0  0  0  0  0  0
    4.2811   27.3265    8.4263 C   0  0  0  0  0  0
    5.0138   26.9134    7.3087 C   0  0  0  0  0  0
    4.8550   27.5758    6.0924 C   0  0  0  0  0  0
    3.9832   28.6525    6.0018 C   0  0  0  0  0  0
    6.1274   25.5116    7.4285 S   0  0  1  0  0  0
    7.0605   25.8908    8.5760 N   0  0  0  0  0  0
    5.3451   24.2734    7.3747 O   0  0  0  0  0  0
    7.3083   25.5919    5.9664 C   0  0  0  0  0  0
    1.0866   32.0154    7.4409 N   0  0  0  0  0  0
    0.0628   32.5718    8.1446 C   0  0  0  0  0  0
   -0.7661   31.8261    8.9751 C   0  0  0  0  0  0
   -2.2042   32.6781    9.8956 Br  0  0  0  0  0  0
   -0.1514   29.8503   13.3764 H   0  0  0  0  0  0
   -1.5419   29.2623   14.2857 H   0  0  0  0  0  0
   -1.7687   30.1334   12.7818 H   0  0  0  0  0  0
   -0.3482   27.4250   13.0399 H   0  0  0  0  0  0
   -2.8930   27.9986   13.0856 H   0  0  0  0  0  0
    0.4638   28.7959   11.1676 H   0  0  0  0  0  0
    0.2829   26.2600   10.9195 H   0  0  0  0  0  0
   -1.1543   26.5424    9.9302 H   0  0  0  0  0  0
    0.4014   27.1934    9.4359 H   0  0  0  0  0  0
    2.9265   30.9124    6.4282 H   0  0  0  0  0  0
    2.8736   28.7326    9.2172 H   0  0  0  0  0  0
    4.3855   26.8260    9.3742 H   0  0  0  0  0  0
    5.4080   27.2772    5.2151 H   0  0  0  0  0  0
    3.8929   29.1742    5.0588 H   0  0  0  0  0  0
    6.5680   25.8960    9.4719 H   0  0  0  0  0  0
    7.7595   26.5828    5.9244 H   0  0  0  0  0  0
    8.0805   24.8380    6.1081 H   0  0  0  0  0  0
    6.7565   25.3840    5.0522 H   0  0  0  0  0  0
   -0.1056   33.6297    8.0056 H   0  0  0  0  0  0
  1  2  1  0  0  0
  1 25  1  0  0  0
  1 26  1  0  0  0
  1 27  1  0  0  0
  2  3  1  0  0  0
  2  4  1  0  0  0
  2 28  1  0  0  0
  3 29  1  0  0  0
  4  5  1  0  0  0
  4  6  1  0  0  0
  4 30  1  0  0  0
  5 31  1  0  0  0
  5 32  1  0  0  0
  5 33  1  0  0  0
  6  7  1  0  0  0
  7  8  2  0  0  0
  7 23  1  0  0  0
  8  9  1  0  0  0
  9 10  1  0  0  0
  9 21  2  0  0  0
 10 11  1  0  0  0
 10 34  1  0  0  0
 11 12  2  0  0  0
 11 16  1  0  0  0
 12 13  1  0  0  0
 12 35  1  0  0  0
 13 14  2  0  0  0
 13 36  1  0  0  0
 14 15  1  0  0  0
 14 17  1  0  0  0
 15 16  2  0  0  0
 15 37  1  0  0  0
 16 38  1  0  0  0
 17 18  2  0  0  0
 17 19  2  0  0  0
 17 20  1  0  0  0
 18 39  1  0  0  0
 20 40  1  0  0  0
 20 41  1  0  0  0
 20 42  1  0  0  0
 21 22  1  0  0  0
 22 23  2  0  0  0
 22 43  1  0  0  0
 23 24  1  0  0  0
M  END
> <s_m_entry_id>
32663

> <s_m_entry_name>
dock_pv.64

> <s_m_Source_Path>
/home/csk/Desktop/cluster/DUD-E-result/cdk2

> <s_m_Source_File>
dock_pv.maegz

> <i_m_Source_File_Index>
64

> <chembl_id>
CHEMBL3648102

> <chembl_pref_name>
None

> <i_lp_mmshare_version>
53161

> <i_f3d_flags>
0

> <r_lp_tautomer_probability>
0.999999987636

> <s_lp_Force_Field>
OPLS_2005

> <r_lp_Energy>
2.110887

> <b_lp_Chiralities_Consistent>
1

> <s_lp_Variant>
CHEMBL301_lig1380-8

> <s_i_glide_gridfile>
glide-grid_1h00

> <i_i_glide_lignum>
1859

> <i_i_glide_rotatable_bonds>
7

> <r_i_docking_score>
-8.38828272406928

> <r_i_glide_ligand_efficiency>
-0.349511780169553

> <r_i_glide_ligand_efficiency_sa>
-1.00816642846583

> <r_i_glide_ligand_efficiency_ln>
-2.00770096908271

> <r_i_glide_gscore>
-8.38828272406928

> <r_i_glide_lipo>
-2.7675184767088

> <r_i_glide_hbond>
-0.526200887763226

> <r_i_glide_metal>
0

> <r_i_glide_rewards>
-1.96276661617805

> <r_i_glide_evdw>
-37.1024475097656

> <r_i_glide_ecoul>
-12.0739707946777

> <r_i_glide_erotb>
0.534421251270742

> <r_i_glide_esite>
0

> <r_i_glide_emodel>
-71.6086715157078

> <r_i_glide_energy>
-49.1764183044434

> <r_i_glide_einternal>
4.97523260116577

> <i_i_glide_confnum>
95

> <i_i_glide_posenum>
10

> <r_i_glide_eff_state_penalty>
0

> <s_user_duplicate_titles>
CHEMBL301_lig1380

> <s_m_subgroup_title>
dock_pv

> <s_m_subgroupid>
dock_pv

> <b_m_subgroup_collapsed>
1

$$$$
CHEMBL301_lig239
                    3D
 Schrodinger Suite 2021-1.
 38 40  0  0  1  0            999 V2000
   -2.4698   29.9681   10.3254 C   0  0  0  0  0  0
   -3.0110   31.2456   10.1715 C   0  0  0  0  0  0
   -2.3101   32.2375    9.4949 C   0  0  0  0  0  0
   -1.2103   29.6737    9.7763 C   0  0  0  0  0  0
   -0.5329   30.6515    9.0462 C   0  0  0  0  0  0
   -1.0827   31.9141    8.9313 C   0  0  0  0  0  0
   -0.2536   32.6961    8.1766 N   0  0  0  0  0  0
    0.7993   32.0070    7.7302 C   0  0  0  0  0  0
    0.7205   30.6589    8.3147 C   0  0  0  0  0  0
    1.6590   32.4449    6.9760 O   0  0  0  0  0  0
    1.5929   29.7291    8.2213 N   0  0  0  0  0  0
    2.7140   29.8518    7.3773 N   0  0  0  0  0  0
    3.6605   28.8432    7.2003 C   0  0  0  0  0  0
    4.0361   28.4585    5.9109 C   0  0  0  0  0  0
    4.9856   27.4567    5.7261 C   0  0  0  0  0  0
    5.6088   26.8899    6.8381 C   0  0  0  0  0  0
    5.2425   27.2786    8.1235 C   0  0  0  0  0  0
    4.2563   28.2399    8.3070 C   0  0  0  0  0  0
    6.9316   25.7087    6.6316 S   0  0  0  0  0  0
    7.8122   26.2511    5.2320 N   0  0  0  0  0  0
    7.8318   25.8518    7.7800 O   0  0  0  0  0  0
    6.3319   24.4108    6.3104 O   0  0  0  0  0  0
   -3.2506   29.0517   10.9820 O   0  0  0  0  0  0
   -2.5972   28.0603   11.7702 C   0  0  0  0  0  0
   -3.9823   31.4692   10.5865 H   0  0  0  0  0  0
   -2.7394   33.2217    9.3980 H   0  0  0  0  0  0
   -0.7877   28.6855    9.8698 H   0  0  0  0  0  0
   -0.4133   33.6626    7.9270 H   0  0  0  0  0  0
    2.6915   30.6513    6.7528 H   0  0  0  0  0  0
    3.5888   28.9309    5.0501 H   0  0  0  0  0  0
    5.2726   27.1634    4.7263 H   0  0  0  0  0  0
    5.7358   26.8438    8.9759 H   0  0  0  0  0  0
    3.9790   28.5363    9.3080 H   0  0  0  0  0  0
    8.0606   27.2460    5.3459 H   0  0  0  0  0  0
    8.6797   25.7280    5.1026 H   0  0  0  0  0  0
   -3.3457   27.4766   12.3057 H   0  0  0  0  0  0
   -1.9359   28.5130   12.5109 H   0  0  0  0  0  0
   -2.0250   27.3602   11.1606 H   0  0  0  0  0  0
  1  2  2  0  0  0
  1  4  1  0  0  0
  1 23  1  0  0  0
  2  3  1  0  0  0
  2 25  1  0  0  0
  3  6  2  0  0  0
  3 26  1  0  0  0
  4  5  2  0  0  0
  4 27  1  0  0  0
  5  9  1  0  0  0
  5  6  1  0  0  0
  6  7  1  0  0  0
  7  8  1  0  0  0
  7 28  1  0  0  0
  8  9  1  0  0  0
  8 10  2  0  0  0
  9 11  2  0  0  0
 11 12  1  0  0  0
 12 13  1  0  0  0
 12 29  1  0  0  0
 13 14  2  0  0  0
 13 18  1  0  0  0
 14 15  1  0  0  0
 14 30  1  0  0  0
 15 16  2  0  0  0
 15 31  1  0  0  0
 16 17  1  0  0  0
 16 19  1  0  0  0
 17 18  2  0  0  0
 17 32  1  0  0  0
 18 33  1  0  0  0
 19 20  1  0  0  0
 19 21  2  0  0  0
 19 22  2  0  0  0
 20 34  1  0  0  0
 20 35  1  0  0  0
 23 24  1  0  0  0
 24 36  1  0  0  0
 24 37  1  0  0  0
 24 38  1  0  0  0
M  END
> <s_m_entry_id>
32664

> <s_m_entry_name>
dock_pv.65

> <s_m_Source_Path>
/home/csk/Desktop/cluster/DUD-E-result/cdk2

> <s_m_Source_File>
dock_pv.maegz

> <i_m_Source_File_Index>
65

> <chembl_id>
CHEMBL260103

> <chembl_pref_name>
None

> <i_lp_mmshare_version>
53161

> <i_f3d_flags>
0

> <r_lp_tautomer_probability>
1

> <s_lp_Force_Field>
OPLS_2005

> <r_lp_Energy>
47.644383

> <b_lp_Chiralities_Consistent>
1

> <s_lp_Variant>
CHEMBL301_lig239-1

> <s_i_glide_gridfile>
glide-grid_1h00

> <i_i_glide_lignum>
381

> <i_i_glide_rotatable_bonds>
4

> <r_i_docking_score>
-8.38592707186913

> <r_i_glide_ligand_efficiency>
-0.349413627994547

> <r_i_glide_ligand_efficiency_sa>
-1.00788330860167

> <r_i_glide_ligand_efficiency_ln>
-2.00713715341737

> <r_i_glide_gscore>
-8.38592707186913

> <r_i_glide_lipo>
-2.15487309652624

> <r_i_glide_hbond>
-0.740674411286683

> <r_i_glide_metal>
0

> <r_i_glide_rewards>
-2.18153823432818

> <r_i_glide_evdw>
-32.5115432739258

> <r_i_glide_ecoul>
-12.3311491012573

> <r_i_glide_erotb>
0.221858735241645

> <r_i_glide_esite>
-0.055450536084785

> <r_i_glide_emodel>
-62.3838161695352

> <r_i_glide_energy>
-44.8426923751831

> <r_i_glide_einternal>
9.42769432067871

> <i_i_glide_confnum>
1

> <i_i_glide_posenum>
84

> <r_i_glide_eff_state_penalty>
0

> <s_user_duplicate_titles>
CHEMBL301_lig239,441040,137412

> <s_m_subgroup_title>
dock_pv

> <s_m_subgroupid>
dock_pv

> <b_m_subgroup_collapsed>
1

$$$$
CHEMBL301_lig323
                    3D
 Schrodinger Suite 2021-1.
 38 41  0  0  1  0            999 V2000
    1.2478   30.3292    8.1993 C   0  0  0  0  0  0
    0.0202   30.3861    8.9761 C   0  0  0  0  0  0
    1.2579   31.5250    7.3760 C   0  0  0  0  0  0
    0.2046   32.2544    7.7763 N   0  0  0  0  0  0
    6.8138   24.7264    6.0506 S   0  0  0  0  0  0
   -0.5892   31.5872    8.6866 C   0  0  0  0  0  0
    2.2271   29.4054    8.1759 C   0  0  0  0  0  0
   -0.5952   29.5342    9.9051 C   0  0  0  0  0  0
   -2.3404   28.9943   11.3754 N   0  0  0  0  0  0
   -0.1001   27.9636   10.5358 S   0  0  0  0  0  0
   -1.5556   27.9629   11.4953 C   0  0  0  0  0  0
   -1.8322   29.9049   10.5034 C   0  0  0  0  0  0
    5.7598   26.1060    6.4724 C   0  0  0  0  0  0
    3.3636   29.3913    7.4029 N   0  0  0  0  0  0
    6.7150   24.5149    4.6040 O   0  0  0  0  0  0
    6.5181   23.6373    6.9872 O   0  0  0  0  0  0
    2.0580   31.8526    6.5082 O   0  0  0  0  0  0
   -1.7945   31.9780    9.2665 C   0  0  0  0  0  0
   -2.4362   31.1333   10.1767 C   0  0  0  0  0  0
    5.2691   26.2371    7.7726 C   0  0  0  0  0  0
    5.4324   27.0453    5.4940 C   0  0  0  0  0  0
    4.1595   28.2796    7.1238 C   0  0  0  0  0  0
    8.5294   25.3859    6.4332 C   0  0  0  0  0  0
    4.6481   28.1432    5.8268 C   0  0  0  0  0  0
    4.4629   27.3235    8.0977 C   0  0  0  0  0  0
    0.0140   33.1747    7.4049 H   0  0  0  0  0  0
    2.1598   28.5428    8.8221 H   0  0  0  0  0  0
   -1.7827   27.1374   12.1542 H   0  0  0  0  0  0
    3.4653   30.1413    6.7244 H   0  0  0  0  0  0
   -2.2433   32.9296    9.0187 H   0  0  0  0  0  0
   -3.3684   31.4240   10.6408 H   0  0  0  0  0  0
    5.5165   25.5120    8.5358 H   0  0  0  0  0  0
    5.8132   26.9450    4.4870 H   0  0  0  0  0  0
    9.2550   24.6026    6.2226 H   0  0  0  0  0  0
    8.5664   25.6685    7.4827 H   0  0  0  0  0  0
    8.7195   26.2517    5.8002 H   0  0  0  0  0  0
    4.4210   28.8831    5.0720 H   0  0  0  0  0  0
    4.1041   27.4253    9.1114 H   0  0  0  0  0  0
  1  2  1  0  0  0
  1  3  1  0  0  0
  1  7  2  0  0  0
  2  6  2  0  0  0
  2  8  1  0  0  0
  3  4  1  0  0  0
  3 17  2  0  0  0
  4  6  1  0  0  0
  4 26  1  0  0  0
  5 13  1  0  0  0
  5 15  2  0  0  0
  5 16  2  0  0  0
  5 23  1  0  0  0
  6 18  1  0  0  0
  7 14  1  0  0  0
  7 27  1  0  0  0
  8 10  1  0  0  0
  8 12  2  0  0  0
  9 12  1  0  0  0
  9 11  2  0  0  0
 10 11  1  0  0  0
 11 28  1  0  0  0
 12 19  1  0  0  0
 13 20  2  0  0  0
 13 21  1  0  0  0
 14 22  1  0  0  0
 14 29  1  0  0  0
 18 19  2  0  0  0
 18 30  1  0  0  0
 19 31  1  0  0  0
 20 25  1  0  0  0
 20 32  1  0  0  0
 21 24  2  0  0  0
 21 33  1  0  0  0
 22 24  1  0  0  0
 22 25  2  0  0  0
 23 34  1  0  0  0
 23 35  1  0  0  0
 23 36  1  0  0  0
 24 37  1  0  0  0
 25 38  1  0  0  0
M  END
> <s_m_entry_id>
32665

> <s_m_entry_name>
dock_pv.66

> <s_m_Source_Path>
/home/csk/Desktop/cluster/DUD-E-result/cdk2

> <s_m_Source_File>
dock_pv.maegz

> <i_m_Source_File_Index>
66

> <chembl_id>
CHEMBL1964260

> <chembl_pref_name>
None

> <i_lp_mmshare_version>
53161

> <i_f3d_flags>
0

> <r_lp_tautomer_probability>
0.499999999999422

> <s_lp_Force_Field>
OPLS_2005

> <r_lp_Energy>
33.021344

> <b_lp_Chiralities_Consistent>
1

> <s_lp_Variant>
CHEMBL301_lig323-1

> <s_i_glide_gridfile>
glide-grid_1h00

> <i_i_glide_lignum>
500

> <i_i_glide_rotatable_bonds>
3

> <r_i_docking_score>
-8.37163522996393

> <r_i_glide_ligand_efficiency>
-0.334865409198557

> <r_i_glide_ligand_efficiency_sa>
-0.979152395359901

> <r_i_glide_ligand_efficiency_ln>
-1.98432842716471

> <r_i_glide_gscore>
-8.37163522996393

> <r_i_glide_lipo>
-2.61369070127128

> <r_i_glide_hbond>
-0.594107551586737

> <r_i_glide_metal>
0

> <r_i_glide_rewards>
-2.29812731331653

> <r_i_glide_evdw>
-39.4993553161621

> <r_i_glide_ecoul>
-7.17455911636353

> <r_i_glide_erotb>
0.195879323527585

> <r_i_glide_esite>
-0.0104373540543314

> <r_i_glide_emodel>
-66.2244656712944

> <r_i_glide_energy>
-46.6739144325256

> <r_i_glide_einternal>
7.23219442367554

> <i_i_glide_confnum>
5

> <i_i_glide_posenum>
4

> <r_i_glide_eff_state_penalty>
0

> <s_user_duplicate_titles>
CHEMBL301_lig323,227148

> <s_m_subgroup_title>
dock_pv

> <s_m_subgroupid>
dock_pv

> <b_m_subgroup_collapsed>
1

$$$$
CHEMBL301_lig668
                    3D
 Schrodinger Suite 2021-1.
 33 35  0  0  1  0            999 V2000
    0.2508   30.6397    8.4067 C   0  0  0  0  0  0
   -0.4507   31.8225    8.5559 C   0  0  0  0  0  0
    0.2731   32.7090    7.7983 N   0  0  0  0  0  0
    1.3467   32.1781    7.2071 N   0  0  0  0  0  0
    1.3821   30.9358    7.6243 C   0  0  0  0  0  0
    2.4539   30.1277    7.2885 N   0  0  0  0  0  0
    2.8582   29.0539    8.0019 C   0  0  0  0  0  0
    4.0088   28.2654    7.4273 C   0  0  0  0  0  0
    2.3487   28.7003    9.0685 O   0  0  0  0  0  0
   -1.7205   32.1861    9.2922 C   0  0  0  0  0  0
    4.2760   28.2435    6.0507 C   0  0  0  0  0  0
    5.2579   27.3961    5.5442 C   0  0  0  0  0  0
    6.0037   26.5827    6.4085 C   0  0  0  0  0  0
    5.7369   26.6059    7.7763 C   0  0  0  0  0  0
    4.7583   27.4519    8.2789 C   0  0  0  0  0  0
   -2.8728   31.2081    9.3171 C   0  0  0  0  0  0
   -2.0756   31.4741   10.5741 C   0  0  0  0  0  0
    7.0768   25.6744    5.8827 C   0  0  0  0  0  0
    7.8452   26.2520    4.9207 O   0  0  0  0  0  0
    7.2742   24.5492    6.3386 O   0  0  0  0  0  0
    0.0045   29.6912    8.8598 H   0  0  0  0  0  0
    0.0295   33.6829    7.6614 H   0  0  0  0  0  0
    3.1059   30.5030    6.6115 H   0  0  0  0  0  0
   -1.9768   33.2453    9.2441 H   0  0  0  0  0  0
    3.7065   28.8455    5.3573 H   0  0  0  0  0  0
    5.4336   27.3813    4.4773 H   0  0  0  0  0  0
    6.2853   25.9790    8.4675 H   0  0  0  0  0  0
    4.5680   27.4497    9.3445 H   0  0  0  0  0  0
   -3.8934   31.5834    9.2588 H   0  0  0  0  0  0
   -2.7594   30.2521    8.8093 H   0  0  0  0  0  0
   -1.4083   30.7002   10.9555 H   0  0  0  0  0  0
   -2.5424   32.0468   11.3757 H   0  0  0  0  0  0
    7.7055   27.2098    4.9418 H   0  0  0  0  0  0
  1  5  1  0  0  0
  1  2  2  0  0  0
  1 21  1  0  0  0
  2 10  1  0  0  0
  2  3  1  0  0  0
  3  4  1  0  0  0
  3 22  1  0  0  0
  4  5  2  0  0  0
  5  6  1  0  0  0
  6  7  1  0  0  0
  6 23  1  0  0  0
  7  8  1  0  0  0
  7  9  2  0  0  0
  8 11  2  0  0  0
  8 15  1  0  0  0
 10 16  1  0  0  0
 10 17  1  0  0  0
 10 24  1  0  0  0
 11 12  1  0  0  0
 11 25  1  0  0  0
 12 13  2  0  0  0
 12 26  1  0  0  0
 13 14  1  0  0  0
 13 18  1  0  0  0
 14 15  2  0  0  0
 14 27  1  0  0  0
 15 28  1  0  0  0
 16 17  1  0  0  0
 16 29  1  0  0  0
 16 30  1  0  0  0
 17 31  1  0  0  0
 17 32  1  0  0  0
 18 19  1  0  0  0
 18 20  2  0  0  0
 19 33  1  0  0  0
M  END
> <s_m_entry_id>
32666

> <s_m_entry_name>
dock_pv.67

> <s_m_Source_Path>
/home/csk/Desktop/cluster/DUD-E-result/cdk2

> <s_m_Source_File>
dock_pv.maegz

> <i_m_Source_File_Index>
67

> <chembl_id>
CHEMBL324186

> <chembl_pref_name>
None

> <i_lp_mmshare_version>
53161

> <i_f3d_flags>
0

> <r_lp_tautomer_probability>
0.5

> <s_lp_Force_Field>
OPLS_2005

> <r_lp_Energy>
16.225746

> <b_lp_Chiralities_Consistent>
1

> <s_lp_Variant>
CHEMBL301_lig668-1

> <s_i_glide_gridfile>
glide-grid_1h00

> <i_i_glide_lignum>
920

> <i_i_glide_rotatable_bonds>
6

> <r_i_docking_score>
-8.36953341902291

> <r_i_glide_ligand_efficiency>
-0.418476670951145

> <r_i_glide_ligand_efficiency_sa>
-1.13592044662947

> <r_i_glide_ligand_efficiency_ln>
-2.09461816909436

> <r_i_glide_gscore>
-8.36953341902291

> <r_i_glide_lipo>
-2.18029762999783

> <r_i_glide_hbond>
-0.663341851382686

> <r_i_glide_metal>
0

> <r_i_glide_rewards>
-3.11743303567512

> <r_i_glide_evdw>
-30.2554340362549

> <r_i_glide_ecoul>
-11.5449771881104

> <r_i_glide_erotb>
0.85141019446459

> <r_i_glide_esite>
-0.0153528164025671

> <r_i_glide_emodel>
-57.1267774037564

> <r_i_glide_energy>
-41.8004112243652

> <r_i_glide_einternal>
6.20444107055664

> <i_i_glide_confnum>
23

> <i_i_glide_posenum>
293

> <r_i_glide_eff_state_penalty>
0

> <s_user_duplicate_titles>
CHEMBL301_lig668,186823

> <s_m_subgroup_title>
dock_pv

> <s_m_subgroupid>
dock_pv

> <b_m_subgroup_collapsed>
1

$$$$
CHEMBL301_lig692
                    3D
 Schrodinger Suite 2021-1.
 37 39  0  0  1  0            999 V2000
    0.5125   30.5778    8.1958 C   0  0  0  0  0  0
   -0.2084   31.7614    8.2280 C   0  0  0  0  0  0
    0.5649   32.6274    7.4994 N   0  0  0  0  0  0
    1.6580   32.0631    6.9761 N   0  0  0  0  0  0
    1.6962   30.8550    7.4930 C   0  0  0  0  0  0
    2.8570   30.1102    7.3656 N   0  0  0  0  0  0
    3.2290   29.0563    8.1206 C   0  0  0  0  0  0
    4.6430   28.5184    7.8599 C   0  0  0  0  0  0
    2.5287   28.5191    8.9773 O   0  0  0  0  0  0
   -1.5083   32.1774    8.8837 C   0  0  0  0  0  0
   -2.5822   31.1599    9.1879 C   0  0  0  0  0  0
   -1.7945   31.7925   10.3153 C   0  0  0  0  0  0
    4.6174   27.3363    6.8998 C   0  0  0  0  0  0
    4.5401   26.0305    7.3943 C   0  0  0  0  0  0
    4.4577   24.9550    6.5135 C   0  0  0  0  0  0
    4.4541   25.1751    5.1279 C   0  0  0  0  0  0
    4.5399   26.4810    4.6432 C   0  0  0  0  0  0
    4.6190   27.5585    5.5211 C   0  0  0  0  0  0
    4.3585   24.1823    4.1724 O   0  0  0  0  0  0
    4.3473   22.8051    4.5384 C   0  0  0  0  0  0
    4.3178   22.0886    3.4147 F   0  0  0  0  0  0
    5.4526   22.4617    5.2060 F   0  0  0  0  0  0
    3.2597   22.4908    5.2449 F   0  0  0  0  0  0
    0.2575   29.6582    8.7002 H   0  0  0  0  0  0
    0.3227   33.5963    7.3189 H   0  0  0  0  0  0
    3.5605   30.5170    6.7565 H   0  0  0  0  0  0
    5.2771   29.3064    7.4511 H   0  0  0  0  0  0
    5.0937   28.2267    8.8112 H   0  0  0  0  0  0
   -1.8578   33.1620    8.5768 H   0  0  0  0  0  0
   -2.4059   30.1085    8.9762 H   0  0  0  0  0  0
   -3.6254   31.4458    9.0399 H   0  0  0  0  0  0
   -2.2989   32.5076   10.9646 H   0  0  0  0  0  0
   -1.0637   31.1855   10.8521 H   0  0  0  0  0  0
    4.5237   25.8550    8.4616 H   0  0  0  0  0  0
    4.3809   23.9609    6.9264 H   0  0  0  0  0  0
    4.5371   26.6528    3.5759 H   0  0  0  0  0  0
    4.6717   28.5641    5.1274 H   0  0  0  0  0  0
  1  5  1  0  0  0
  1  2  2  0  0  0
  1 24  1  0  0  0
  2  3  1  0  0  0
  2 10  1  0  0  0
  3  4  1  0  0  0
  3 25  1  0  0  0
  4  5  2  0  0  0
  5  6  1  0  0  0
  6  7  1  0  0  0
  6 26  1  0  0  0
  7  8  1  0  0  0
  7  9  2  0  0  0
  8 13  1  0  0  0
  8 27  1  0  0  0
  8 28  1  0  0  0
 10 12  1  0  0  0
 10 11  1  0  0  0
 10 29  1  0  0  0
 11 12  1  0  0  0
 11 30  1  0  0  0
 11 31  1  0  0  0
 12 32  1  0  0  0
 12 33  1  0  0  0
 13 14  2  0  0  0
 13 18  1  0  0  0
 14 15  1  0  0  0
 14 34  1  0  0  0
 15 16  2  0  0  0
 15 35  1  0  0  0
 16 17  1  0  0  0
 16 19  1  0  0  0
 17 18  2  0  0  0
 17 36  1  0  0  0
 18 37  1  0  0  0
 19 20  1  0  0  0
 20 21  1  0  0  0
 20 22  1  0  0  0
 20 23  1  0  0  0
M  END
> <s_m_entry_id>
32667

> <s_m_entry_name>
dock_pv.68

> <s_m_Source_Path>
/home/csk/Desktop/cluster/DUD-E-result/cdk2

> <s_m_Source_File>
dock_pv.maegz

> <i_m_Source_File_Index>
68

> <chembl_id>
CHEMBL115994

> <chembl_pref_name>
None

> <i_lp_mmshare_version>
53161

> <i_f3d_flags>
0

> <r_lp_tautomer_probability>
0.5

> <s_lp_Force_Field>
OPLS_2005

> <r_lp_Energy>
15.128555

> <b_lp_Chiralities_Consistent>
1

> <s_lp_Variant>
CHEMBL301_lig692-1

> <s_i_glide_gridfile>
glide-grid_1h00

> <i_i_glide_lignum>
968

> <i_i_glide_rotatable_bonds>
7

> <r_i_docking_score>
-8.35721565559648

> <r_i_glide_ligand_efficiency>
-0.363357202417238

> <r_i_glide_ligand_efficiency_sa>
-1.03333954876562

> <r_i_glide_ligand_efficiency_ln>
-2.02085052456513

> <r_i_glide_gscore>
-8.35721565559648

> <r_i_glide_lipo>
-2.76718609127227

> <r_i_glide_hbond>
-0.863719385070238

> <r_i_glide_metal>
0

> <r_i_glide_rewards>
-2.86756873865164

> <r_i_glide_evdw>
-30.6340141296387

> <r_i_glide_ecoul>
-6.82875537872314

> <r_i_glide_erotb>
0.743822755784207

> <r_i_glide_esite>
-0.0465501830961339

> <r_i_glide_emodel>
-53.658670825308

> <r_i_glide_energy>
-37.4627695083618

> <r_i_glide_einternal>
5.09749555587769

> <i_i_glide_confnum>
2

> <i_i_glide_posenum>
213

> <r_i_glide_eff_state_penalty>
0

> <s_user_duplicate_titles>
CHEMBL301_lig692,186955

> <s_m_subgroup_title>
dock_pv

> <s_m_subgroupid>
dock_pv

> <b_m_subgroup_collapsed>
1

$$$$
CHEMBL301_lig339
                    3D
 Schrodinger Suite 2021-1.
 40 43  0  0  1  0            999 V2000
    1.3496   30.2570    8.1981 C   0  0  0  0  0  0
    0.1535   30.2432    9.0230 C   0  0  0  0  0  0
    1.2580   31.4517    7.3760 C   0  0  0  0  0  0
    8.2806   24.9864    6.0052 S   0  0  0  0  0  0
    0.1552   32.0946    7.7916 N   0  0  0  0  0  0
   -0.5471   31.3958    8.7515 C   0  0  0  0  0  0
    2.3838   29.3940    8.1639 C   0  0  0  0  0  0
   -0.3516   29.3668    9.9942 C   0  0  0  0  0  0
   -1.9426   28.7630   11.6047 N   0  0  0  0  0  0
    0.2681   27.8295   10.5966 S   0  0  0  0  0  0
   -1.1054   27.7692   11.6672 C   0  0  0  0  0  0
   -1.5555   29.6819   10.6812 C   0  0  0  0  0  0
    8.9185   23.7468    5.5569 O   0  0  0  0  0  0
    8.4626   25.4686    7.3764 O   0  0  0  0  0  0
    3.5076   29.4238    7.3760 N   0  0  0  0  0  0
    2.0263   31.8520    6.5074 O   0  0  0  0  0  0
   -1.7305   31.7280    9.4092 C   0  0  0  0  0  0
    6.4290   24.8430    5.6569 C   0  0  0  0  0  0
    8.8107   26.2520    4.9347 N   0  0  0  0  0  0
   -2.2453   30.8724   10.3890 C   0  0  0  0  0  0
    4.2306   28.2969    6.9784 C   0  0  0  0  0  0
    5.6454   26.0629    6.1137 C   0  0  0  0  0  0
    4.5686   28.1683    5.6323 C   0  0  0  0  0  0
    4.6012   27.3102    7.8952 C   0  0  0  0  0  0
    5.3127   26.1972    7.4627 C   0  0  0  0  0  0
    5.2587   27.0414    5.1947 C   0  0  0  0  0  0
   -0.1143   32.9933    7.4191 H   0  0  0  0  0  0
    2.3825   28.5414    8.8264 H   0  0  0  0  0  0
   -1.2384   26.9401   12.3466 H   0  0  0  0  0  0
    3.5315   30.1652    6.6808 H   0  0  0  0  0  0
   -2.2480   32.6501    9.1847 H   0  0  0  0  0  0
    6.3098   24.6552    4.5899 H   0  0  0  0  0  0
    6.0803   23.9544    6.1815 H   0  0  0  0  0  0
    8.4307   27.1852    5.1467 H   0  0  0  0  0  0
    8.7605   26.0134    3.9423 H   0  0  0  0  0  0
   -3.1426   31.1271   10.9362 H   0  0  0  0  0  0
    4.2900   28.9338    4.9230 H   0  0  0  0  0  0
    4.3640   27.4053    8.9457 H   0  0  0  0  0  0
    5.6144   25.4513    8.1845 H   0  0  0  0  0  0
    5.5145   26.9439    4.1495 H   0  0  0  0  0  0
  1  2  1  0  0  0
  1  3  1  0  0  0
  1  7  2  0  0  0
  2  6  2  0  0  0
  2  8  1  0  0  0
  3  5  1  0  0  0
  3 16  2  0  0  0
  4 18  1  0  0  0
  4 13  2  0  0  0
  4 14  2  0  0  0
  4 19  1  0  0  0
  5  6  1  0  0  0
  5 27  1  0  0  0
  6 17  1  0  0  0
  7 15  1  0  0  0
  7 28  1  0  0  0
  8 10  1  0  0  0
  8 12  2  0  0  0
  9 12  1  0  0  0
  9 11  2  0  0  0
 10 11  1  0  0  0
 11 29  1  0  0  0
 12 20  1  0  0  0
 15 21  1  0  0  0
 15 30  1  0  0  0
 17 20  2  0  0  0
 17 31  1  0  0  0
 18 22  1  0  0  0
 18 32  1  0  0  0
 18 33  1  0  0  0
 19 34  1  0  0  0
 19 35  1  0  0  0
 20 36  1  0  0  0
 21 23  2  0  0  0
 21 24  1  0  0  0
 22 25  1  0  0  0
 22 26  2  0  0  0
 23 26  1  0  0  0
 23 37  1  0  0  0
 24 25  2  0  0  0
 24 38  1  0  0  0
 25 39  1  0  0  0
 26 40  1  0  0  0
M  END
> <s_m_entry_id>
32668

> <s_m_entry_name>
dock_pv.69

> <s_m_Source_Path>
/home/csk/Desktop/cluster/DUD-E-result/cdk2

> <s_m_Source_File>
dock_pv.maegz

> <i_m_Source_File_Index>
69

> <chembl_id>
CHEMBL1964257

> <chembl_pref_name>
None

> <i_lp_mmshare_version>
53161

> <i_f3d_flags>
0

> <r_lp_tautomer_probability>
0.499999999999422

> <s_lp_Force_Field>
OPLS_2005

> <r_lp_Energy>
36.958482

> <b_lp_Chiralities_Consistent>
1

> <s_lp_Variant>
CHEMBL301_lig339-1

> <s_i_glide_gridfile>
glide-grid_1h00

> <i_i_glide_lignum>
519

> <i_i_glide_rotatable_bonds>
4

> <r_i_docking_score>
-8.33244979955082

> <r_i_glide_ligand_efficiency>
-0.320478838444262

> <r_i_glide_ligand_efficiency_sa>
-0.94941729786779

> <r_i_glide_ligand_efficiency_ln>
-1.95684849442669

> <r_i_glide_gscore>
-8.33244979955082

> <r_i_glide_lipo>
-2.60150766363592

> <r_i_glide_hbond>
-0.812619300365639

> <r_i_glide_metal>
0

> <r_i_glide_rewards>
-1.6776977741047

> <r_i_glide_evdw>
-39.9658546447754

> <r_i_glide_ecoul>
-10.6002826690674

> <r_i_glide_erotb>
0.390981041112625

> <r_i_glide_esite>
-0.0432709699583097

> <r_i_glide_emodel>
-70.4410317923503

> <r_i_glide_energy>
-50.5661373138428

> <r_i_glide_einternal>
7.02400827407837

> <i_i_glide_confnum>
14

> <i_i_glide_posenum>
18

> <r_i_glide_eff_state_penalty>
0

> <s_user_duplicate_titles>
CHEMBL301_lig339

> <s_m_subgroup_title>
dock_pv

> <s_m_subgroupid>
dock_pv

> <b_m_subgroup_collapsed>
1

$$$$
CHEMBL301_lig1338
                    3D
 Schrodinger Suite 2021-1.
 60 62  0  0  1  0            999 V2000
   -0.7501   28.1954   12.7879 C   0  0  0  0  0  0
   -0.3412   26.7207   12.6354 C   0  0  0  0  0  0
    0.0794   26.3011   11.1981 C   0  0  1  0  0  0
    1.3149   26.9479   10.7479 N   0  0  0  0  0  0
    1.3202   28.0613    9.9092 C   0  0  0  0  0  0
    2.4571   28.2169    9.1908 N   0  0  0  0  0  0
    2.5282   29.2630    8.3224 C   0  0  0  0  0  0
    3.6897   29.4516    7.5655 N   0  0  0  0  0  0
    4.7578   28.4553    7.4897 C   0  0  0  0  0  0
    4.6153   27.5901    6.2435 C   0  0  0  0  0  0
    4.6042   26.1918    6.3219 C   0  0  0  0  0  0
    4.5135   25.4331    5.1482 C   0  0  0  0  0  0
    4.4466   26.0993    3.9211 C   0  0  0  0  0  0
    4.4564   27.4518    3.8260 N   0  0  0  0  0  0
    4.5371   28.1723    4.9755 C   0  0  0  0  0  0
    1.4579   30.1710    8.2248 C   0  0  0  0  0  0
    1.2578   31.3140    7.4930 N   0  0  0  0  0  0
    0.1586   31.8123    8.0103 C   0  0  0  0  0  0
   -0.4556   31.0241    8.9704 N   0  0  0  0  0  0
   -1.6453   31.3147    9.7902 C   0  0  0  0  0  0
   -2.8219   30.4211    9.3758 C   0  0  0  0  0  0
   -2.0364   32.7991    9.7384 C   0  0  0  0  0  0
    0.3602   29.9152    9.0787 C   0  0  0  0  0  0
    0.2306   28.8704    9.8916 N   0  0  0  0  0  0
    0.1751   24.7565   11.0165 C   0  0  2  0  0  0
   -1.1421   24.2520   10.9770 O   0  0  0  0  0  0
    1.0087   23.9497   12.0601 C   0  0  0  0  0  0
    2.4674   24.4378   12.1723 C   0  0  0  0  0  0
    1.0028   22.4313   11.7671 C   0  0  0  0  0  0
   -1.1643   28.3882   13.7759 H   0  0  0  0  0  0
    0.1018   28.8618   12.6525 H   0  0  0  0  0  0
   -1.5146   28.4745   12.0634 H   0  0  0  0  0  0
   -1.1865   26.1116   12.9557 H   0  0  0  0  0  0
    0.4578   26.5012   13.3433 H   0  0  0  0  0  0
   -0.7198   26.6326   10.5323 H   0  0  0  0  0  0
    2.1580   26.3951   10.7301 H   0  0  0  0  0  0
    3.7603   30.2700    6.9704 H   0  0  0  0  0  0
    5.6943   29.0040    7.4159 H   0  0  0  0  0  0
    4.8201   27.8418    8.3908 H   0  0  0  0  0  0
    4.6671   25.6965    7.2813 H   0  0  0  0  0  0
    4.4999   24.3546    5.1880 H   0  0  0  0  0  0
    4.3844   25.5578    2.9813 H   0  0  0  0  0  0
    4.5636   29.2466    4.8679 H   0  0  0  0  0  0
   -0.2687   32.7682    7.7377 H   0  0  0  0  0  0
   -1.3781   31.0782   10.8231 H   0  0  0  0  0  0
   -3.6776   30.5744   10.0349 H   0  0  0  0  0  0
   -3.1472   30.6397    8.3569 H   0  0  0  0  0  0
   -2.5574   29.3678    9.4375 H   0  0  0  0  0  0
   -2.8756   33.0127   10.4028 H   0  0  0  0  0  0
   -1.2140   33.4517   10.0316 H   0  0  0  0  0  0
   -2.3428   33.0527    8.7259 H   0  0  0  0  0  0
    0.5914   24.5560   10.0269 H   0  0  0  0  0  0
   -1.6251   24.5897   11.7368 H   0  0  0  0  0  0
    0.5440   24.0820   13.0380 H   0  0  0  0  0  0
    2.9582   24.4343   11.1981 H   0  0  0  0  0  0
    3.0465   23.8122   12.8507 H   0  0  0  0  0  0
    2.5307   25.4509   12.5710 H   0  0  0  0  0  0
    1.4301   22.2148   10.7858 H   0  0  0  0  0  0
    1.5772   21.8785   12.5105 H   0  0  0  0  0  0
   -0.0078   22.0205   11.7816 H   0  0  0  0  0  0
  1  2  1  0  0  0
  1 30  1  0  0  0
  1 31  1  0  0  0
  1 32  1  0  0  0
  2  3  1  0  0  0
  2 33  1  0  0  0
  2 34  1  0  0  0
  3  4  1  0  0  0
  3 25  1  0  0  0
  3 35  1  0  0  0
  4  5  1  0  0  0
  4 36  1  0  0  0
  5  6  2  0  0  0
  5 24  1  0  0  0
  6  7  1  0  0  0
  7  8  1  0  0  0
  7 16  2  0  0  0
  8  9  1  0  0  0
  8 37  1  0  0  0
  9 10  1  0  0  0
  9 38  1  0  0  0
  9 39  1  0  0  0
 10 11  2  0  0  0
 10 15  1  0  0  0
 11 12  1  0  0  0
 11 40  1  0  0  0
 12 13  2  0  0  0
 12 41  1  0  0  0
 13 14  1  0  0  0
 13 42  1  0  0  0
 14 15  2  0  0  0
 15 43  1  0  0  0
 16 17  1  0  0  0
 16 23  1  0  0  0
 17 18  2  0  0  0
 18 19  1  0  0  0
 18 44  1  0  0  0
 19 20  1  0  0  0
 19 23  1  0  0  0
 20 21  1  0  0  0
 20 22  1  0  0  0
 20 45  1  0  0  0
 21 46  1  0  0  0
 21 47  1  0  0  0
 21 48  1  0  0  0
 22 49  1  0  0  0
 22 50  1  0  0  0
 22 51  1  0  0  0
 23 24  2  0  0  0
 25 26  1  0  0  0
 25 27  1  0  0  0
 25 52  1  0  0  0
 26 53  1  0  0  0
 27 28  1  0  0  0
 27 29  1  0  0  0
 27 54  1  0  0  0
 28 55  1  0  0  0
 28 56  1  0  0  0
 28 57  1  0  0  0
 29 58  1  0  0  0
 29 59  1  0  0  0
 29 60  1  0  0  0
M  END
> <s_m_entry_id>
32669

> <s_m_entry_name>
dock_pv.70

> <s_m_Source_Path>
/home/csk/Desktop/cluster/DUD-E-result/cdk2

> <s_m_Source_File>
dock_pv.maegz

> <i_m_Source_File_Index>
70

> <chembl_id>
CHEMBL1922121

> <chembl_pref_name>
None

> <i_lp_mmshare_version>
53161

> <i_f3d_flags>
0

> <r_lp_tautomer_probability>
1

> <s_lp_Force_Field>
OPLS_2005

> <r_lp_Energy>
23.386417

> <b_lp_Chiralities_Consistent>
1

> <s_lp_Variant>
CHEMBL301_lig1338-1

> <s_i_glide_gridfile>
glide-grid_1h00

> <i_i_glide_lignum>
1768

> <i_i_glide_rotatable_bonds>
10

> <r_i_docking_score>
-8.33052748500207

> <r_i_glide_ligand_efficiency>
-0.287259568448347

> <r_i_glide_ligand_efficiency_sa>
-0.882552404492508

> <r_i_glide_ligand_efficiency_ln>
-1.90747955011508

> <r_i_glide_gscore>
-8.33052748500207

> <r_i_glide_lipo>
-2.80944677467679

> <r_i_glide_hbond>
-0.32

> <r_i_glide_metal>
0

> <r_i_glide_rewards>
-3.01706477164262

> <r_i_glide_evdw>
-42.2449645996094

> <r_i_glide_ecoul>
-5.32470655441284

> <r_i_glide_erotb>
0.74328167942956

> <r_i_glide_esite>
-0.0163434049698193

> <r_i_glide_emodel>
-66.764859747326

> <r_i_glide_energy>
-47.5696711540222

> <r_i_glide_einternal>
6.61587572097778

> <i_i_glide_confnum>
50

> <i_i_glide_posenum>
239

> <r_i_glide_eff_state_penalty>
0

> <s_user_duplicate_titles>
CHEMBL301_lig1338

> <s_m_subgroup_title>
dock_pv

> <s_m_subgroupid>
dock_pv

> <b_m_subgroup_collapsed>
1

$$$$
CHEMBL301_lig1474
                    3D
 Schrodinger Suite 2021-1.
 46 48  0  0  1  0            999 V2000
   -3.9098   30.4438    9.5650 C   0  0  0  0  0  0
   -2.5082   30.4002    9.3760 O   0  0  0  0  0  0
   -1.7165   29.6305   10.2068 C   0  0  0  0  0  0
   -2.2340   28.8596   11.2643 C   0  0  0  0  0  0
   -1.4097   28.0244   12.0112 C   0  0  0  0  0  0
   -1.9247   27.2583   12.9981 F   0  0  0  0  0  0
   -0.0547   27.9586   11.7250 C   0  0  0  0  0  0
    0.4716   28.7337   10.6987 C   0  0  0  0  0  0
   -0.3351   29.5945    9.9344 C   0  0  0  0  0  0
    0.2876   30.4276    8.8521 C   0  0  0  0  0  0
    1.3078   29.8331    8.1765 N   0  0  0  0  0  0
    1.9286   30.5155    7.1898 C   0  0  0  0  0  0
    2.8580   29.8519    6.3771 N   0  0  0  0  0  0
    3.6214   28.6782    6.5242 C   0  0  0  0  0  0
    4.0590   28.2284    7.7722 C   0  0  0  0  0  0
    4.8139   27.0589    7.8646 C   0  0  0  0  0  0
    5.1174   26.3202    6.7197 C   0  0  0  0  0  0
    4.6946   26.7613    5.4626 C   0  0  0  0  0  0
    4.9538   25.9133    4.2142 C   0  0  0  0  0  0
    6.5760   26.2729    3.3034 S   0  0  2  0  0  0
    6.4679   27.7606    2.9762 N   0  0  0  0  0  0
    6.8356   25.2397    2.2989 O   0  0  0  0  0  0
    7.9406   26.2094    4.5934 C   0  0  0  0  0  0
    3.9837   27.9632    5.3745 C   0  0  0  0  0  0
    1.6579   31.8042    6.8674 N   0  0  0  0  0  0
    0.6925   32.4209    7.5939 C   0  0  0  0  0  0
   -0.0485   31.7666    8.5759 C   0  0  0  0  0  0
   -0.9689   32.4594    9.2864 F   0  0  0  0  0  0
   -4.3420   31.0908    8.8047 H   0  0  0  0  0  0
   -4.3396   29.4524    9.4336 H   0  0  0  0  0  0
   -4.1754   30.8465   10.5438 H   0  0  0  0  0  0
   -3.2825   28.8820   11.5156 H   0  0  0  0  0  0
    0.5888   27.3068   12.2968 H   0  0  0  0  0  0
    1.5312   28.6534   10.5012 H   0  0  0  0  0  0
    3.3456   30.5146    5.7802 H   0  0  0  0  0  0
    3.8193   28.7810    8.6686 H   0  0  0  0  0  0
    5.1453   26.7145    8.8322 H   0  0  0  0  0  0
    5.6732   25.3991    6.8147 H   0  0  0  0  0  0
    4.1578   26.0389    3.4799 H   0  0  0  0  0  0
    4.9751   24.8552    4.4709 H   0  0  0  0  0  0
    7.0978   28.2916    3.5650 H   0  0  0  0  0  0
    7.5907   26.6520    5.5218 H   0  0  0  0  0  0
    8.8087   26.7500    4.2175 H   0  0  0  0  0  0
    8.2012   25.1661    4.7635 H   0  0  0  0  0  0
    3.6598   28.3103    4.4058 H   0  0  0  0  0  0
    0.4918   33.4520    7.3636 H   0  0  0  0  0  0
  1  2  1  0  0  0
  1 29  1  0  0  0
  1 30  1  0  0  0
  1 31  1  0  0  0
  2  3  1  0  0  0
  3  4  2  0  0  0
  3  9  1  0  0  0
  4  5  1  0  0  0
  4 32  1  0  0  0
  5  6  1  0  0  0
  5  7  2  0  0  0
  7  8  1  0  0  0
  7 33  1  0  0  0
  8  9  2  0  0  0
  8 34  1  0  0  0
  9 10  1  0  0  0
 10 11  2  0  0  0
 10 27  1  0  0  0
 11 12  1  0  0  0
 12 13  1  0  0  0
 12 25  2  0  0  0
 13 14  1  0  0  0
 13 35  1  0  0  0
 14 15  2  0  0  0
 14 24  1  0  0  0
 15 16  1  0  0  0
 15 36  1  0  0  0
 16 17  2  0  0  0
 16 37  1  0  0  0
 17 18  1  0  0  0
 17 38  1  0  0  0
 18 19  1  0  0  0
 18 24  2  0  0  0
 19 20  1  0  0  0
 19 39  1  0  0  0
 19 40  1  0  0  0
 20 21  2  0  0  0
 20 22  2  0  0  0
 20 23  1  0  0  0
 21 41  1  0  0  0
 23 42  1  0  0  0
 23 43  1  0  0  0
 23 44  1  0  0  0
 24 45  1  0  0  0
 25 26  1  0  0  0
 26 27  2  0  0  0
 26 46  1  0  0  0
 27 28  1  0  0  0
M  END
> <s_m_entry_id>
32670

> <s_m_entry_name>
dock_pv.71

> <s_m_Source_Path>
/home/csk/Desktop/cluster/DUD-E-result/cdk2

> <s_m_Source_File>
dock_pv.maegz

> <i_m_Source_File_Index>
71

> <chembl_id>
CHEMBL3965161

> <chembl_pref_name>
None

> <i_lp_mmshare_version>
53161

> <i_f3d_flags>
0

> <r_lp_tautomer_probability>
0.999999987636

> <s_lp_Force_Field>
OPLS_2005

> <r_lp_Energy>
16.646658

> <b_lp_Chiralities_Consistent>
1

> <s_lp_Variant>
CHEMBL301_lig1474-1

> <s_i_glide_gridfile>
glide-grid_1h00

> <i_i_glide_lignum>
1988

> <i_i_glide_rotatable_bonds>
6

> <r_i_docking_score>
-8.31209507736712

> <r_i_glide_ligand_efficiency>
-0.296860538477397

> <r_i_glide_ligand_efficiency_sa>
-0.90144343632427

> <r_i_glide_ligand_efficiency_ln>
-1.9186755975726

> <r_i_glide_gscore>
-8.31209507736712

> <r_i_glide_lipo>
-2.56609299165161

> <r_i_glide_hbond>
-0.699351505007503

> <r_i_glide_metal>
0

> <r_i_glide_rewards>
-2.57352035990112

> <r_i_glide_evdw>
-31.3996143341064

> <r_i_glide_ecoul>
-8.29629993438721

> <r_i_glide_erotb>
0.420320824590356

> <r_i_glide_esite>
-0.0790253385338435

> <r_i_glide_emodel>
-60.5127684352614

> <r_i_glide_energy>
-39.6959142684937

> <r_i_glide_einternal>
4.1138162612915

> <i_i_glide_confnum>
101

> <i_i_glide_posenum>
35

> <r_i_glide_eff_state_penalty>
0

> <s_user_duplicate_titles>
CHEMBL301_lig1474

> <s_m_subgroup_title>
dock_pv

> <s_m_subgroupid>
dock_pv

> <b_m_subgroup_collapsed>
1

$$$$
CHEMBL301_lig597
                    3D
 Schrodinger Suite 2021-1.
 57 59  0  0  1  0            999 V2000
   -1.1846   28.1018   10.8257 C   0  0  0  0  0  0
   -2.1676   29.0521   11.1404 C   0  0  0  0  0  0
   -2.1500   30.3215   10.5755 C   0  0  0  0  0  0
   -0.1678   28.4812    9.9370 C   0  0  0  0  0  0
   -0.1092   29.7688    9.3758 C   0  0  0  0  0  0
   -1.1366   30.6741    9.6838 C   0  0  0  0  0  0
   -1.1420   32.0633    9.0876 C   0  0  0  0  0  0
   -0.1658   32.2696    8.1761 N   0  0  0  0  0  0
    0.8581   31.4807    7.7759 C   0  0  0  0  0  0
    1.0234   30.2132    8.5040 C   0  0  0  0  0  0
    1.6299   31.9106    6.9157 O   0  0  0  0  0  0
   -1.9292   32.9620    9.3760 O   0  0  0  0  0  0
    2.2037   29.5410    8.4528 C   0  0  0  0  0  0
    3.3711   29.8516    7.7954 N   0  0  0  0  0  0
    4.6256   29.1224    7.8961 C   0  0  0  0  0  0
    4.8262   28.0174    6.8775 C   0  0  0  0  0  0
    4.6513   28.1903    5.5443 C   0  0  0  0  0  0
    4.8571   27.1093    4.5602 C   0  0  0  0  0  0
    5.3177   25.8353    5.1822 C   0  0  0  0  0  0
    5.4551   25.7249    6.5349 C   0  0  0  0  0  0
    5.2052   26.7885    7.3828 N   0  0  0  0  0  0
    4.6498   27.2809    3.3583 O   0  0  0  0  0  0
    5.5553   24.8633    4.2514 O   0  0  0  0  0  0
    6.0355   23.5688    4.6176 C   0  0  0  0  0  0
    4.9583   22.5204    4.2961 C   0  0  0  0  0  0
    3.6782   22.6897    5.1285 C   0  0  0  0  0  0
   -1.1826   26.6793   11.4424 C   0  0  0  0  0  0
   -2.4368   26.3870   12.3079 C   0  0  0  0  0  0
    0.0583   26.5208   12.3517 C   0  0  0  0  0  0
   -1.1380   25.6083   10.3233 C   0  0  0  0  0  0
   -2.9712   28.8296   11.8249 H   0  0  0  0  0  0
   -2.9284   31.0242   10.8436 H   0  0  0  0  0  0
    0.5933   27.7557    9.7053 H   0  0  0  0  0  0
   -0.1916   33.1760    7.7305 H   0  0  0  0  0  0
    2.3401   28.6294    9.0117 H   0  0  0  0  0  0
    3.4143   30.6631    7.1862 H   0  0  0  0  0  0
    5.4378   29.8397    7.7734 H   0  0  0  0  0  0
    4.7312   28.7293    8.9093 H   0  0  0  0  0  0
    4.3604   29.1677    5.1877 H   0  0  0  0  0  0
    5.7699   24.8270    7.0441 H   0  0  0  0  0  0
    5.2613   26.6566    8.3849 H   0  0  0  0  0  0
    6.9086   23.3757    3.9942 H   0  0  0  0  0  0
    6.3923   23.4562    5.6408 H   0  0  0  0  0  0
    4.7049   22.5865    3.2356 H   0  0  0  0  0  0
    5.3628   21.5199    4.4511 H   0  0  0  0  0  0
    2.9185   21.9612    4.8407 H   0  0  0  0  0  0
    3.8705   22.5720    6.1948 H   0  0  0  0  0  0
    3.2581   23.6835    4.9748 H   0  0  0  0  0  0
   -2.4262   25.3683   12.6987 H   0  0  0  0  0  0
   -3.3586   26.4936   11.7340 H   0  0  0  0  0  0
   -2.5025   27.0509   13.1709 H   0  0  0  0  0  0
    0.9887   26.6452   11.7956 H   0  0  0  0  0  0
    0.0601   27.2637   13.1523 H   0  0  0  0  0  0
    0.0958   25.5366   12.8192 H   0  0  0  0  0  0
   -0.1970   25.6271    9.7743 H   0  0  0  0  0  0
   -1.2401   24.5998   10.7263 H   0  0  0  0  0  0
   -1.9408   25.7493    9.6002 H   0  0  0  0  0  0
  1  2  2  0  0  0
  1  4  1  0  0  0
  1 27  1  0  0  0
  2  3  1  0  0  0
  2 31  1  0  0  0
  3  6  2  0  0  0
  3 32  1  0  0  0
  4  5  2  0  0  0
  4 33  1  0  0  0
  5 10  1  0  0  0
  5  6  1  0  0  0
  6  7  1  0  0  0
  7  8  1  0  0  0
  7 12  2  0  0  0
  8  9  1  0  0  0
  8 34  1  0  0  0
  9 10  1  0  0  0
  9 11  2  0  0  0
 10 13  2  0  0  0
 13 14  1  0  0  0
 13 35  1  0  0  0
 14 15  1  0  0  0
 14 36  1  0  0  0
 15 37  1  0  0  0
 15 38  1  0  0  0
 15 16  1  0  0  0
 16 17  2  0  0  0
 16 21  1  0  0  0
 17 39  1  0  0  0
 17 18  1  0  0  0
 18 19  1  0  0  0
 18 22  2  0  0  0
 19 20  2  0  0  0
 19 23  1  0  0  0
 20 21  1  0  0  0
 20 40  1  0  0  0
 21 41  1  0  0  0
 23 24  1  0  0  0
 24 25  1  0  0  0
 24 42  1  0  0  0
 24 43  1  0  0  0
 25 26  1  0  0  0
 25 44  1  0  0  0
 25 45  1  0  0  0
 26 46  1  0  0  0
 26 47  1  0  0  0
 26 48  1  0  0  0
 27 28  1  0  0  0
 27 29  1  0  0  0
 27 30  1  0  0  0
 28 49  1  0  0  0
 28 50  1  0  0  0
 28 51  1  0  0  0
 29 52  1  0  0  0
 29 53  1  0  0  0
 29 54  1  0  0  0
 30 55  1  0  0  0
 30 56  1  0  0  0
 30 57  1  0  0  0
M  END
> <s_m_entry_id>
32671

> <s_m_entry_name>
dock_pv.72

> <s_m_Source_Path>
/home/csk/Desktop/cluster/DUD-E-result/cdk2

> <s_m_Source_File>
dock_pv.maegz

> <i_m_Source_File_Index>
72

> <chembl_id>
CHEMBL515631

> <chembl_pref_name>
None

> <i_lp_mmshare_version>
53161

> <i_f3d_flags>
0

> <r_lp_tautomer_probability>
0.48612755077883

> <s_lp_Force_Field>
OPLS_2005

> <r_lp_Energy>
22.425842

> <b_lp_Chiralities_Consistent>
1

> <s_lp_Variant>
CHEMBL301_lig597-1

> <s_i_glide_gridfile>
glide-grid_1h00

> <i_i_glide_lignum>
835

> <i_i_glide_rotatable_bonds>
7

> <r_i_docking_score>
-8.30925191336201

> <r_i_glide_ligand_efficiency>
-0.276975063778734

> <r_i_glide_ligand_efficiency_sa>
-0.860625920536205

> <r_i_glide_ligand_efficiency_ln>
-1.88795257126685

> <r_i_glide_gscore>
-8.30925191336201

> <r_i_glide_lipo>
-2.89917417912715

> <r_i_glide_hbond>
-0.475692999772839

> <r_i_glide_metal>
0

> <r_i_glide_rewards>
-2.40459884336541

> <r_i_glide_evdw>
-45.9002265930176

> <r_i_glide_ecoul>
-5.47977352142334

> <r_i_glide_erotb>
0.587191466767766

> <r_i_glide_esite>
0

> <r_i_glide_emodel>
-73.5344912222439

> <r_i_glide_energy>
-51.3800001144409

> <r_i_glide_einternal>
8.99263858795166

> <i_i_glide_confnum>
3

> <i_i_glide_posenum>
153

> <r_i_glide_eff_state_penalty>
0

> <s_user_duplicate_titles>
CHEMBL301_lig597,CHEMBL301_lig597,498924

> <s_m_subgroup_title>
dock_pv

> <s_m_subgroupid>
dock_pv

> <b_m_subgroup_collapsed>
1

$$$$
CHEMBL301_lig222
                    3D
 Schrodinger Suite 2021-1.
 40 42  0  0  1  0            999 V2000
   -2.3757   30.2103   10.4883 C   0  0  0  0  0  0
   -2.8558   31.5193   10.4222 C   0  0  0  0  0  0
   -2.1867   32.4787    9.6765 C   0  0  0  0  0  0
   -1.2127   29.8411    9.8044 C   0  0  0  0  0  0
   -0.5569   30.8113    9.0241 C   0  0  0  0  0  0
   -1.0519   32.1027    8.9750 C   0  0  0  0  0  0
   -0.2493   32.8749    8.1784 N   0  0  0  0  0  0
    0.7793   32.1749    7.6998 C   0  0  0  0  0  0
    0.6556   30.8132    8.2233 C   0  0  0  0  0  0
    1.6580   32.6180    6.9760 O   0  0  0  0  0  0
    1.4795   29.8520    8.0797 N   0  0  0  0  0  0
    2.6019   29.9298    7.2416 N   0  0  0  0  0  0
    3.5522   28.9150    7.1184 C   0  0  0  0  0  0
    4.0190   28.5595    5.8518 C   0  0  0  0  0  0
    4.9384   27.5237    5.7072 C   0  0  0  0  0  0
    5.4365   26.8845    6.8436 C   0  0  0  0  0  0
    4.9850   27.2505    8.1076 C   0  0  0  0  0  0
    4.0330   28.2518    8.2475 C   0  0  0  0  0  0
    6.6784   25.6047    6.7251 S   0  0  0  0  0  0
    7.4892   25.8520    5.2038 N   0  0  0  0  0  0
    7.6584   25.8520    7.7879 O   0  0  0  0  0  0
    5.9613   24.3296    6.6397 O   0  0  0  0  0  0
   -0.7160   28.4057    9.9483 C   0  0  0  0  0  0
    0.4098   28.2653   10.9814 C   0  0  0  0  0  0
   -2.9015   29.4936   11.1036 H   0  0  0  0  0  0
   -3.7403   31.8000   10.9759 H   0  0  0  0  0  0
   -2.5561   33.4900    9.6589 H   0  0  0  0  0  0
   -0.3790   33.8567    7.9696 H   0  0  0  0  0  0
    2.6469   30.7524    6.6500 H   0  0  0  0  0  0
    3.6583   29.0751    4.9764 H   0  0  0  0  0  0
    5.2889   27.2513    4.7221 H   0  0  0  0  0  0
    5.3765   26.7515    8.9760 H   0  0  0  0  0  0
    3.6814   28.5216    9.2328 H   0  0  0  0  0  0
    8.3134   26.4554    5.2672 H   0  0  0  0  0  0
    7.6328   25.0033    4.6532 H   0  0  0  0  0  0
   -0.3828   28.0457    8.9759 H   0  0  0  0  0  0
   -1.5420   27.7447   10.2086 H   0  0  0  0  0  0
    0.7653   27.2363   11.0406 H   0  0  0  0  0  0
    0.0759   28.5591   11.9773 H   0  0  0  0  0  0
    1.2580   28.8927   10.7189 H   0  0  0  0  0  0
  1  2  2  0  0  0
  1  4  1  0  0  0
  1 25  1  0  0  0
  2  3  1  0  0  0
  2 26  1  0  0  0
  3  6  2  0  0  0
  3 27  1  0  0  0
  4  5  2  0  0  0
  4 23  1  0  0  0
  5  9  1  0  0  0
  5  6  1  0  0  0
  6  7  1  0  0  0
  7  8  1  0  0  0
  7 28  1  0  0  0
  8  9  1  0  0  0
  8 10  2  0  0  0
  9 11  2  0  0  0
 11 12  1  0  0  0
 12 13  1  0  0  0
 12 29  1  0  0  0
 13 14  2  0  0  0
 13 18  1  0  0  0
 14 15  1  0  0  0
 14 30  1  0  0  0
 15 16  2  0  0  0
 15 31  1  0  0  0
 16 17  1  0  0  0
 16 19  1  0  0  0
 17 18  2  0  0  0
 17 32  1  0  0  0
 18 33  1  0  0  0
 19 20  1  0  0  0
 19 21  2  0  0  0
 19 22  2  0  0  0
 20 34  1  0  0  0
 20 35  1  0  0  0
 23 24  1  0  0  0
 23 36  1  0  0  0
 23 37  1  0  0  0
 24 38  1  0  0  0
 24 39  1  0  0  0
 24 40  1  0  0  0
M  END
> <s_m_entry_id>
32672

> <s_m_entry_name>
dock_pv.73

> <s_m_Source_Path>
/home/csk/Desktop/cluster/DUD-E-result/cdk2

> <s_m_Source_File>
dock_pv.maegz

> <i_m_Source_File_Index>
73

> <chembl_id>
CHEMBL411425

> <chembl_pref_name>
None

> <i_lp_mmshare_version>
53161

> <i_f3d_flags>
0

> <r_lp_tautomer_probability>
1

> <s_lp_Force_Field>
OPLS_2005

> <r_lp_Energy>
44.651775

> <b_lp_Chiralities_Consistent>
1

> <s_lp_Variant>
CHEMBL301_lig222-1

> <s_i_glide_gridfile>
glide-grid_1h00

> <i_i_glide_lignum>
364

> <i_i_glide_rotatable_bonds>
4

> <r_i_docking_score>
-8.3060358028441

> <r_i_glide_ligand_efficiency>
-0.346084825118504

> <r_i_glide_ligand_efficiency_sa>
-0.998281379576624

> <r_i_glide_ligand_efficiency_ln>
-1.98801550676823

> <r_i_glide_gscore>
-8.3060358028441

> <r_i_glide_lipo>
-2.52845382647638

> <r_i_glide_hbond>
-0.556541550914844

> <r_i_glide_metal>
0

> <r_i_glide_rewards>
-2.29115734105937

> <r_i_glide_evdw>
-33.3551445007324

> <r_i_glide_ecoul>
-9.71695327758789

> <r_i_glide_erotb>
0.224120205084117

> <r_i_glide_esite>
-0.0287030728028101

> <r_i_glide_emodel>
-61.7014732822348

> <r_i_glide_energy>
-43.0720977783203

> <r_i_glide_einternal>
5.53197431564331

> <i_i_glide_confnum>
1

> <i_i_glide_posenum>
23

> <r_i_glide_eff_state_penalty>
0

> <s_user_duplicate_titles>
CHEMBL301_lig222,440880,137291

> <s_m_subgroup_title>
dock_pv

> <s_m_subgroupid>
dock_pv

> <b_m_subgroup_collapsed>
1

$$$$
CHEMBL301_lig1353
                    3D
 Schrodinger Suite 2021-1.
 40 41  0  0  1  0            999 V2000
   -0.4787   27.5568   13.1890 C   0  0  0  0  0  0
   -0.2340   26.8911   11.8291 C   0  0  2  0  0  0
    0.8563   26.0024   11.9769 O   0  0  0  0  0  0
    0.1045   27.8978   10.7158 C   0  0  0  0  0  0
   -1.1020   29.2343   10.4216 S   0  0  0  0  0  0
   -0.3422   30.3310    9.2566 C   0  0  0  0  0  0
    0.7224   29.8496    8.5714 N   0  0  0  0  0  0
    1.3448   30.6706    7.6904 C   0  0  0  0  0  0
    2.4580   30.2044    6.9760 N   0  0  0  0  0  0
    3.2551   29.0520    7.1025 C   0  0  0  0  0  0
    4.0212   28.6520    6.0040 C   0  0  0  0  0  0
    4.8588   27.5493    6.0857 C   0  0  0  0  0  0
    4.9175   26.8159    7.2680 C   0  0  0  0  0  0
    4.0992   27.1674    8.3433 C   0  0  0  0  0  0
    3.3107   28.3064    8.2812 C   0  0  0  0  0  0
    6.0431   25.4321    7.4194 S   0  0  1  0  0  0
    6.9526   25.8521    8.5760 N   0  0  0  0  0  0
    5.2774   24.1839    7.3760 O   0  0  0  0  0  0
    7.2441   25.5026    5.9731 C   0  0  0  0  0  0
    0.9779   31.9538    7.4466 N   0  0  0  0  0  0
   -0.0682   32.4301    8.1760 C   0  0  0  0  0  0
   -0.7810   31.6497    9.0879 C   0  0  0  0  0  0
   -2.2501   32.3971   10.0491 Br  0  0  0  0  0  0
   -1.4008   28.1399   13.1861 H   0  0  0  0  0  0
    0.3375   28.2382   13.4259 H   0  0  0  0  0  0
   -0.5574   26.8236   13.9925 H   0  0  0  0  0  0
   -1.1110   26.3079   11.5438 H   0  0  0  0  0  0
    1.5823   26.4916   12.3871 H   0  0  0  0  0  0
    1.0606   28.3727   10.9413 H   0  0  0  0  0  0
    0.2456   27.3626    9.7760 H   0  0  0  0  0  0
    2.9020   30.9067    6.3973 H   0  0  0  0  0  0
    4.0054   29.2129    5.0843 H   0  0  0  0  0  0
    5.4634   27.2907    5.2302 H   0  0  0  0  0  0
    4.0580   26.5772    9.2387 H   0  0  0  0  0  0
    2.7443   28.5809    9.1551 H   0  0  0  0  0  0
    6.4580   25.8520    9.4743 H   0  0  0  0  0  0
    7.6978   26.4931    5.9358 H   0  0  0  0  0  0
    8.0139   24.7497    6.1321 H   0  0  0  0  0  0
    6.7050   25.2911    5.0513 H   0  0  0  0  0  0
   -0.3515   33.4520    7.9979 H   0  0  0  0  0  0
  1  2  1  0  0  0
  1 24  1  0  0  0
  1 25  1  0  0  0
  1 26  1  0  0  0
  2  3  1  0  0  0
  2  4  1  0  0  0
  2 27  1  0  0  0
  3 28  1  0  0  0
  4  5  1  0  0  0
  4 29  1  0  0  0
  4 30  1  0  0  0
  5  6  1  0  0  0
  6  7  2  0  0  0
  6 22  1  0  0  0
  7  8  1  0  0  0
  8  9  1  0  0  0
  8 20  2  0  0  0
  9 10  1  0  0  0
  9 31  1  0  0  0
 10 11  2  0  0  0
 10 15  1  0  0  0
 11 12  1  0  0  0
 11 32  1  0  0  0
 12 13  2  0  0  0
 12 33  1  0  0  0
 13 14  1  0  0  0
 13 16  1  0  0  0
 14 15  2  0  0  0
 14 34  1  0  0  0
 15 35  1  0  0  0
 16 17  2  0  0  0
 16 18  2  0  0  0
 16 19  1  0  0  0
 17 36  1  0  0  0
 19 37  1  0  0  0
 19 38  1  0  0  0
 19 39  1  0  0  0
 20 21  1  0  0  0
 21 22  2  0  0  0
 21 40  1  0  0  0
 22 23  1  0  0  0
M  END
> <s_m_entry_id>
32673

> <s_m_entry_name>
dock_pv.74

> <s_m_Source_Path>
/home/csk/Desktop/cluster/DUD-E-result/cdk2

> <s_m_Source_File>
dock_pv.maegz

> <i_m_Source_File_Index>
74

> <chembl_id>
CHEMBL3648101

> <chembl_pref_name>
None

> <i_lp_mmshare_version>
53161

> <i_f3d_flags>
0

> <r_lp_tautomer_probability>
0.999999987636

> <s_lp_Force_Field>
OPLS_2005

> <r_lp_Energy>
1.343277

> <b_lp_Chiralities_Consistent>
1

> <s_lp_Variant>
CHEMBL301_lig1353-3

> <s_i_glide_gridfile>
glide-grid_1h00

> <i_i_glide_lignum>
1803

> <i_i_glide_rotatable_bonds>
7

> <r_i_docking_score>
-8.30578924631799

> <r_i_glide_ligand_efficiency>
-0.361121271579043

> <r_i_glide_ligand_efficiency_sa>
-1.02698085889229

> <r_i_glide_ligand_efficiency_ln>
-2.00841515249269

> <r_i_glide_gscore>
-8.30578924631799

> <r_i_glide_lipo>
-2.42464051928461

> <r_i_glide_hbond>
-0.658313322823663

> <r_i_glide_metal>
0

> <r_i_glide_rewards>
-1.88867210397112

> <r_i_glide_evdw>
-35.4309120178223

> <r_i_glide_ecoul>
-14.1998453140259

> <r_i_glide_erotb>
0.567359097756403

> <r_i_glide_esite>
0

> <r_i_glide_emodel>
-71.5017480311416

> <r_i_glide_energy>
-49.6307573318481

> <r_i_glide_einternal>
5.30226564407349

> <i_i_glide_confnum>
52

> <i_i_glide_posenum>
301

> <r_i_glide_eff_state_penalty>
0

> <s_user_duplicate_titles>
CHEMBL301_lig1353

> <s_m_subgroup_title>
dock_pv

> <s_m_subgroupid>
dock_pv

> <b_m_subgroup_collapsed>
1

$$$$
CHEMBL301_lig219
                    3D
 Schrodinger Suite 2021-1.
 41 43  0  0  1  0            999 V2000
   -1.9144   30.1464   10.4407 C   0  0  0  0  0  0
   -2.3929   31.4283   10.1644 C   0  0  0  0  0  0
   -1.7079   32.2527    9.2744 C   0  0  0  0  0  0
   -0.7298   29.6773    9.8422 C   0  0  0  0  0  0
   -0.0515   30.5081    8.9369 C   0  0  0  0  0  0
   -0.5495   31.7713    8.6705 C   0  0  0  0  0  0
    0.2743   32.4029    7.7761 N   0  0  0  0  0  0
    1.2563   31.5991    7.3565 C   0  0  0  0  0  0
    1.1916   30.3849    8.1771 C   0  0  0  0  0  0
    2.0574   31.8528    6.4652 O   0  0  0  0  0  0
    2.0625   29.4454    8.2177 N   0  0  0  0  0  0
    3.2245   29.4890    7.4150 N   0  0  0  0  0  0
    4.0398   28.3969    7.1215 C   0  0  0  0  0  0
    4.4476   28.2095    5.8011 C   0  0  0  0  0  0
    5.2578   27.1295    5.4668 C   0  0  0  0  0  0
    5.7036   26.2668    6.4690 C   0  0  0  0  0  0
    5.2934   26.4494    7.7876 C   0  0  0  0  0  0
    4.4530   27.5086    8.1143 C   0  0  0  0  0  0
    6.8588   24.9603    6.0882 S   0  0  0  0  0  0
    8.4022   25.5928    6.5884 N   0  0  0  0  0  0
    6.5527   23.8338    6.9759 O   0  0  0  0  0  0
    6.9065   24.7960    4.6331 O   0  0  0  0  0  0
   -0.1792   28.4297   10.0678 O   0  0  0  0  0  0
   -0.6808   27.5979   11.1136 C   0  0  0  0  0  0
   -0.3434   28.1517   12.5080 C   0  0  0  0  0  0
   -2.4760   29.5398   11.1345 H   0  0  0  0  0  0
   -3.2939   31.7806   10.6467 H   0  0  0  0  0  0
   -2.0809   33.2447    9.0688 H   0  0  0  0  0  0
    0.1192   33.3285    7.3998 H   0  0  0  0  0  0
    3.2301   30.2755    6.7683 H   0  0  0  0  0  0
    4.1359   28.8996    5.0306 H   0  0  0  0  0  0
    5.5806   26.9991    4.4432 H   0  0  0  0  0  0
    5.6371   25.7855    8.5682 H   0  0  0  0  0  0
    4.1448   27.6499    9.1404 H   0  0  0  0  0  0
    9.0014   24.8712    6.9939 H   0  0  0  0  0  0
    8.8830   26.0958    5.8367 H   0  0  0  0  0  0
   -0.2027   26.6249   10.9970 H   0  0  0  0  0  0
   -1.7507   27.4162   11.0008 H   0  0  0  0  0  0
   -0.5869   27.4288   13.2863 H   0  0  0  0  0  0
   -0.8830   29.0700   12.7361 H   0  0  0  0  0  0
    0.7220   28.3714   12.5777 H   0  0  0  0  0  0
  1  2  2  0  0  0
  1  4  1  0  0  0
  1 26  1  0  0  0
  2  3  1  0  0  0
  2 27  1  0  0  0
  3  6  2  0  0  0
  3 28  1  0  0  0
  4  5  2  0  0  0
  4 23  1  0  0  0
  5  9  1  0  0  0
  5  6  1  0  0  0
  6  7  1  0  0  0
  7  8  1  0  0  0
  7 29  1  0  0  0
  8  9  1  0  0  0
  8 10  2  0  0  0
  9 11  2  0  0  0
 11 12  1  0  0  0
 12 13  1  0  0  0
 12 30  1  0  0  0
 13 14  2  0  0  0
 13 18  1  0  0  0
 14 15  1  0  0  0
 14 31  1  0  0  0
 15 16  2  0  0  0
 15 32  1  0  0  0
 16 17  1  0  0  0
 16 19  1  0  0  0
 17 18  2  0  0  0
 17 33  1  0  0  0
 18 34  1  0  0  0
 19 20  1  0  0  0
 19 21  2  0  0  0
 19 22  2  0  0  0
 20 35  1  0  0  0
 20 36  1  0  0  0
 23 24  1  0  0  0
 24 25  1  0  0  0
 24 37  1  0  0  0
 24 38  1  0  0  0
 25 39  1  0  0  0
 25 40  1  0  0  0
 25 41  1  0  0  0
M  END
> <s_m_entry_id>
32674

> <s_m_entry_name>
dock_pv.75

> <s_m_Source_Path>
/home/csk/Desktop/cluster/DUD-E-result/cdk2

> <s_m_Source_File>
dock_pv.maegz

> <i_m_Source_File_Index>
75

> <chembl_id>
CHEMBL411696

> <chembl_pref_name>
None

> <i_lp_mmshare_version>
53161

> <i_f3d_flags>
0

> <r_lp_tautomer_probability>
1

> <s_lp_Force_Field>
OPLS_2005

> <r_lp_Energy>
45.382425

> <b_lp_Chiralities_Consistent>
1

> <s_lp_Variant>
CHEMBL301_lig219-1

> <s_i_glide_gridfile>
glide-grid_1h00

> <i_i_glide_lignum>
361

> <i_i_glide_rotatable_bonds>
5

> <r_i_docking_score>
-8.30194876848101

> <r_i_glide_ligand_efficiency>
-0.33207795073924

> <r_i_glide_ligand_efficiency_sa>
-0.971001817389072

> <r_i_glide_ligand_efficiency_ln>
-1.96781064745852

> <r_i_glide_gscore>
-8.30194876848101

> <r_i_glide_lipo>
-2.26209567860178

> <r_i_glide_hbond>
-0.63515510979003

> <r_i_glide_metal>
0

> <r_i_glide_rewards>
-2.61807607189734

> <r_i_glide_evdw>
-39.457103729248

> <r_i_glide_ecoul>
-7.46156883239746

> <r_i_glide_erotb>
0.310091375335403

> <r_i_glide_esite>
-0.00462277220523996

> <r_i_glide_emodel>
-69.3851926974887

> <r_i_glide_energy>
-46.9186725616455

> <r_i_glide_einternal>
2.97297286987305

> <i_i_glide_confnum>
1

> <i_i_glide_posenum>
37

> <r_i_glide_eff_state_penalty>
0

> <s_user_duplicate_titles>
CHEMBL301_lig219,440839,137214

> <s_m_subgroup_title>
dock_pv

> <s_m_subgroupid>
dock_pv

> <b_m_subgroup_collapsed>
1

$$$$
CHEMBL301_lig1366
                    3D
 Schrodinger Suite 2021-1.
 60 62  0  0  1  0            999 V2000
    1.5109   23.8219   10.4157 C   0  0  0  0  0  0
    0.5218   24.4946   11.3881 C   0  0  0  0  0  0
    0.2600   26.0045   11.1305 C   0  0  2  0  0  0
    1.5112   26.7214   10.8604 N   0  0  0  0  0  0
    1.5580   27.8104    9.9860 C   0  0  0  0  0  0
    2.7502   27.9811    9.3692 N   0  0  0  0  0  0
    2.8647   29.0014    8.4753 C   0  0  0  0  0  0
    4.0630   29.2032    7.7800 N   0  0  0  0  0  0
    5.1704   28.2589    7.8469 C   0  0  0  0  0  0
    4.8917   27.0464    6.9740 C   0  0  0  0  0  0
    4.7487   27.1934    5.5903 C   0  0  0  0  0  0
    4.4673   26.0618    4.8235 C   0  0  0  0  0  0
    4.2740   26.1634    3.3264 C   0  0  0  0  0  0
    4.3466   24.8192    5.3582 N   0  0  0  0  0  0
    4.4967   24.6899    6.7020 C   0  0  0  0  0  0
    4.3549   23.2866    7.2558 C   0  0  0  0  0  0
    4.7691   25.7736    7.5406 C   0  0  0  0  0  0
    1.7844   29.8649    8.2486 C   0  0  0  0  0  0
    1.6325   30.9572    7.4367 N   0  0  0  0  0  0
    0.4579   31.4198    7.7765 C   0  0  0  0  0  0
   -0.2521   30.6508    8.6880 N   0  0  0  0  0  0
   -1.6297   30.8884    9.1818 C   0  0  0  0  0  0
   -2.0592   32.3615    9.0306 C   0  0  0  0  0  0
   -1.8272   30.4496   10.6424 C   0  0  0  0  0  0
    0.6085   29.6044    8.9869 C   0  0  0  0  0  0
    0.4436   28.5727    9.8205 N   0  0  0  0  0  0
   -0.5983   26.6783   12.2466 C   0  0  1  0  0  0
   -2.0029   26.0763   12.4177 C   0  0  0  0  0  0
    0.0580   26.6397   13.4983 O   0  0  0  0  0  0
    1.5161   22.7400   10.5470 H   0  0  0  0  0  0
    1.2567   24.0309    9.3778 H   0  0  0  0  0  0
    2.5290   24.1758   10.5749 H   0  0  0  0  0  0
    0.8815   24.3464   12.4073 H   0  0  0  0  0  0
   -0.4258   23.9578   11.3319 H   0  0  0  0  0  0
   -0.3316   26.0541   10.2131 H   0  0  0  0  0  0
    2.3676   26.1913   10.9066 H   0  0  0  0  0  0
    4.1403   30.0071    7.1667 H   0  0  0  0  0  0
    6.0579   28.7585    7.4731 H   0  0  0  0  0  0
    5.3671   27.9597    8.8783 H   0  0  0  0  0  0
    4.8413   28.1654    5.1286 H   0  0  0  0  0  0
    4.1046   27.1921    3.0112 H   0  0  0  0  0  0
    5.1591   25.7916    2.8080 H   0  0  0  0  0  0
    3.4154   25.5734    3.0014 H   0  0  0  0  0  0
    3.9754   23.3075    8.2770 H   0  0  0  0  0  0
    3.6607   22.6944    6.6575 H   0  0  0  0  0  0
    5.3223   22.7844    7.2532 H   0  0  0  0  0  0
    4.8700   25.6358    8.6059 H   0  0  0  0  0  0
    0.0291   32.3257    7.3765 H   0  0  0  0  0  0
   -2.2895   30.2753    8.5707 H   0  0  0  0  0  0
   -3.0537   32.5284    9.4490 H   0  0  0  0  0  0
   -2.1156   32.6497    7.9874 H   0  0  0  0  0  0
   -1.3729   33.0401    9.5390 H   0  0  0  0  0  0
   -2.8159   30.7493   10.9850 H   0  0  0  0  0  0
   -1.7921   29.3685   10.7578 H   0  0  0  0  0  0
   -1.0876   30.8946   11.3079 H   0  0  0  0  0  0
   -0.7242   27.7347   12.0140 H   0  0  0  0  0  0
   -2.5664   26.1298   11.4870 H   0  0  0  0  0  0
   -1.9692   25.0327   12.7263 H   0  0  0  0  0  0
   -2.5731   26.6222   13.1700 H   0  0  0  0  0  0
    0.9546   26.9908   13.3773 H   0  0  0  0  0  0
  1  2  1  0  0  0
  1 30  1  0  0  0
  1 31  1  0  0  0
  1 32  1  0  0  0
  2  3  1  0  0  0
  2 33  1  0  0  0
  2 34  1  0  0  0
  3  4  1  0  0  0
  3 27  1  0  0  0
  3 35  1  0  0  0
  4  5  1  0  0  0
  4 36  1  0  0  0
  5  6  2  0  0  0
  5 26  1  0  0  0
  6  7  1  0  0  0
  7  8  1  0  0  0
  7 18  2  0  0  0
  8  9  1  0  0  0
  8 37  1  0  0  0
  9 10  1  0  0  0
  9 38  1  0  0  0
  9 39  1  0  0  0
 10 11  2  0  0  0
 10 17  1  0  0  0
 11 12  1  0  0  0
 11 40  1  0  0  0
 12 13  1  0  0  0
 12 14  2  0  0  0
 13 41  1  0  0  0
 13 42  1  0  0  0
 13 43  1  0  0  0
 14 15  1  0  0  0
 15 16  1  0  0  0
 15 17  2  0  0  0
 16 44  1  0  0  0
 16 45  1  0  0  0
 16 46  1  0  0  0
 17 47  1  0  0  0
 18 19  1  0  0  0
 18 25  1  0  0  0
 19 20  2  0  0  0
 20 21  1  0  0  0
 20 48  1  0  0  0
 21 22  1  0  0  0
 21 25  1  0  0  0
 22 23  1  0  0  0
 22 24  1  0  0  0
 22 49  1  0  0  0
 23 50  1  0  0  0
 23 51  1  0  0  0
 23 52  1  0  0  0
 24 53  1  0  0  0
 24 54  1  0  0  0
 24 55  1  0  0  0
 25 26  2  0  0  0
 27 28  1  0  0  0
 27 29  1  0  0  0
 27 56  1  0  0  0
 28 57  1  0  0  0
 28 58  1  0  0  0
 28 59  1  0  0  0
 29 60  1  0  0  0
M  END
> <s_m_entry_id>
32675

> <s_m_entry_name>
dock_pv.76

> <s_m_Source_Path>
/home/csk/Desktop/cluster/DUD-E-result/cdk2

> <s_m_Source_File>
dock_pv.maegz

> <i_m_Source_File_Index>
76

> <chembl_id>
CHEMBL3655771

> <chembl_pref_name>
None

> <i_lp_mmshare_version>
53161

> <i_f3d_flags>
0

> <r_lp_tautomer_probability>
1

> <s_lp_Force_Field>
OPLS_2005

> <r_lp_Energy>
12.400894

> <b_lp_Chiralities_Consistent>
1

> <s_lp_Variant>
CHEMBL301_lig1366-1

> <s_i_glide_gridfile>
glide-grid_1h00

> <i_i_glide_lignum>
1826

> <i_i_glide_rotatable_bonds>
9

> <r_i_docking_score>
-8.29556498583101

> <r_i_glide_ligand_efficiency>
-0.286053965028656

> <r_i_glide_ligand_efficiency_sa>
-0.878848408825242

> <r_i_glide_ligand_efficiency_ln>
-1.89947402437739

> <r_i_glide_gscore>
-8.29556498583101

> <r_i_glide_lipo>
-2.4056252790041

> <r_i_glide_hbond>
-0.608

> <r_i_glide_metal>
0

> <r_i_glide_rewards>
-2.98393525026371

> <r_i_glide_evdw>
-43.1079597473145

> <r_i_glide_ecoul>
-5.72015762329102

> <r_i_glide_erotb>
0.74328167942956

> <r_i_glide_esite>
-0.0278645051333894

> <r_i_glide_emodel>
-68.9591932140772

> <r_i_glide_energy>
-48.8281173706055

> <r_i_glide_einternal>
6.74562501907349

> <i_i_glide_confnum>
79

> <i_i_glide_posenum>
227

> <r_i_glide_eff_state_penalty>
0

> <s_user_duplicate_titles>
CHEMBL301_lig1366

> <s_m_subgroup_title>
dock_pv

> <s_m_subgroupid>
dock_pv

> <b_m_subgroup_collapsed>
1

$$$$
CHEMBL301_lig1370
                    3D
 Schrodinger Suite 2021-1.
 49 51  0  0  1  0            999 V2000
   -1.1356   24.9122   10.4353 C   0  0  0  0  0  0
   -0.8816   25.6046   11.7822 C   0  0  0  0  0  0
   -0.5715   27.1148   11.6462 C   0  0  2  0  0  0
    0.6744   27.3048   10.8963 N   0  0  0  0  0  0
    0.8854   28.3195    9.9614 C   0  0  0  0  0  0
    2.1083   28.2830    9.3761 N   0  0  0  0  0  0
    2.4066   29.2381    8.4527 C   0  0  0  0  0  0
    3.6403   29.2280    7.7805 N   0  0  0  0  0  0
    4.7538   28.3489    8.1271 C   0  0  0  0  0  0
    4.5957   26.8483    7.9936 C   0  0  0  0  0  0
    5.3820   27.6105    6.9636 C   0  0  0  0  0  0
    1.4704   30.2522    8.1762 C   0  0  0  0  0  0
    1.5208   31.3648    7.3760 N   0  0  0  0  0  0
    0.4581   32.0420    7.7362 C   0  0  0  0  0  0
   -0.4269   31.3619    8.5461 N   0  0  0  0  0  0
   -1.7233   31.8968    8.9927 C   0  0  0  0  0  0
   -1.6204   32.3701   10.4371 C   0  0  0  0  0  0
   -2.8757   30.8912    8.8213 C   0  0  0  0  0  0
    0.2438   30.1960    8.8865 C   0  0  0  0  0  0
   -0.1013   29.2319    9.7409 N   0  0  0  0  0  0
   -0.5467   27.8910   12.9974 C   0  0  1  0  0  0
   -0.7457   29.4048   12.8302 C   0  0  0  0  0  0
   -1.5421   27.4517   13.9021 O   0  0  0  0  0  0
   -1.3199   23.8521   10.5873 H   0  0  0  0  0  0
   -2.0063   25.3318    9.9300 H   0  0  0  0  0  0
   -0.2810   25.0070    9.7647 H   0  0  0  0  0  0
   -0.0645   25.1064   12.3060 H   0  0  0  0  0  0
   -1.7666   25.4503   12.4000 H   0  0  0  0  0  0
   -1.3983   27.5258   11.0634 H   0  0  0  0  0  0
    1.4465   26.6795   11.0706 H   0  0  0  0  0  0
    3.8306   29.9906    7.1408 H   0  0  0  0  0  0
    5.3858   28.7189    8.9353 H   0  0  0  0  0  0
    5.1604   26.1836    8.6408 H   0  0  0  0  0  0
    3.6198   26.4366    7.7754 H   0  0  0  0  0  0
    4.9649   27.7444    5.9643 H   0  0  0  0  0  0
    6.4579   27.4544    6.9380 H   0  0  0  0  0  0
    0.2041   33.0309    7.3764 H   0  0  0  0  0  0
   -1.9431   32.7673    8.3730 H   0  0  0  0  0  0
   -2.5087   32.9267   10.7397 H   0  0  0  0  0  0
   -0.7524   33.0156   10.5766 H   0  0  0  0  0  0
   -1.5418   31.4994   11.0832 H   0  0  0  0  0  0
   -3.8112   31.3099    9.1939 H   0  0  0  0  0  0
   -3.0405   30.6519    7.7761 H   0  0  0  0  0  0
   -2.7011   29.9646    9.3700 H   0  0  0  0  0  0
    0.4021   27.6990   13.4995 H   0  0  0  0  0  0
    0.1119   29.8645   12.3396 H   0  0  0  0  0  0
   -1.6342   29.6093   12.2330 H   0  0  0  0  0  0
   -0.8841   29.9177   13.7760 H   0  0  0  0  0  0
   -2.3520   27.9703   13.7759 H   0  0  0  0  0  0
  1  2  1  0  0  0
  1 24  1  0  0  0
  1 25  1  0  0  0
  1 26  1  0  0  0
  2  3  1  0  0  0
  2 27  1  0  0  0
  2 28  1  0  0  0
  3  4  1  0  0  0
  3 21  1  0  0  0
  3 29  1  0  0  0
  4  5  1  0  0  0
  4 30  1  0  0  0
  5  6  2  0  0  0
  5 20  1  0  0  0
  6  7  1  0  0  0
  7  8  1  0  0  0
  7 12  2  0  0  0
  8  9  1  0  0  0
  8 31  1  0  0  0
  9 10  1  0  0  0
  9 11  1  0  0  0
  9 32  1  0  0  0
 10 11  1  0  0  0
 10 33  1  0  0  0
 10 34  1  0  0  0
 11 35  1  0  0  0
 11 36  1  0  0  0
 12 13  1  0  0  0
 12 19  1  0  0  0
 13 14  2  0  0  0
 14 15  1  0  0  0
 14 37  1  0  0  0
 15 16  1  0  0  0
 15 19  1  0  0  0
 16 17  1  0  0  0
 16 18  1  0  0  0
 16 38  1  0  0  0
 17 39  1  0  0  0
 17 40  1  0  0  0
 17 41  1  0  0  0
 18 42  1  0  0  0
 18 43  1  0  0  0
 18 44  1  0  0  0
 19 20  2  0  0  0
 21 22  1  0  0  0
 21 23  1  0  0  0
 21 45  1  0  0  0
 22 46  1  0  0  0
 22 47  1  0  0  0
 22 48  1  0  0  0
 23 49  1  0  0  0
M  END
> <s_m_entry_id>
32676

> <s_m_entry_name>
dock_pv.77

> <s_m_Source_Path>
/home/csk/Desktop/cluster/DUD-E-result/cdk2

> <s_m_Source_File>
dock_pv.maegz

> <i_m_Source_File_Index>
77

> <chembl_id>
CHEMBL3655767

> <chembl_pref_name>
None

> <i_lp_mmshare_version>
53161

> <i_f3d_flags>
0

> <r_lp_tautomer_probability>
1

> <s_lp_Force_Field>
OPLS_2005

> <r_lp_Energy>
21.668087

> <b_lp_Chiralities_Consistent>
1

> <s_lp_Variant>
CHEMBL301_lig1370-1

> <s_i_glide_gridfile>
glide-grid_1h00

> <i_i_glide_lignum>
1833

> <i_i_glide_rotatable_bonds>
8

> <r_i_docking_score>
-8.28823187243414

> <r_i_glide_ligand_efficiency>
-0.360357907497137

> <r_i_glide_ligand_efficiency_sa>
-1.02480995298842

> <r_i_glide_ligand_efficiency_ln>
-2.00416962028611

> <r_i_glide_gscore>
-8.28823187243414

> <r_i_glide_lipo>
-2.75945490505323

> <r_i_glide_hbond>
-0.429912207709225

> <r_i_glide_metal>
0

> <r_i_glide_rewards>
-3.45742480704444

> <r_i_glide_evdw>
-35.5411758422852

> <r_i_glide_ecoul>
-5.22556686401367

> <r_i_glide_erotb>
0.919453869089058

> <r_i_glide_esite>
0

> <r_i_glide_emodel>
-53.9544928768435

> <r_i_glide_energy>
-40.7667427062988

> <r_i_glide_einternal>
8.17107582092285

> <i_i_glide_confnum>
44

> <i_i_glide_posenum>
5

> <r_i_glide_eff_state_penalty>
0

> <s_user_duplicate_titles>
CHEMBL301_lig1370

> <s_m_subgroup_title>
dock_pv

> <s_m_subgroupid>
dock_pv

> <b_m_subgroup_collapsed>
1

$$$$
CHEMBL301_lig1355
                    3D
 Schrodinger Suite 2021-1.
 49 50  0  0  1  0            999 V2000
   -1.1205   29.4383   13.1493 C   0  0  0  0  0  0
    0.1126   29.0503   12.3278 C   0  0  0  0  0  0
   -0.1900   28.1717   11.0947 C   0  0  2  0  0  0
   -1.3200   29.0802    9.9844 S   0  0  0  0  0  0
   -0.3997   30.2949    9.0910 C   0  0  0  0  0  0
    0.7086   29.8520    8.4595 N   0  0  0  0  0  0
    1.3588   30.7151    7.6470 C   0  0  0  0  0  0
    2.4580   30.2520    6.9210 N   0  0  0  0  0  0
    3.2726   29.1207    7.0685 C   0  0  0  0  0  0
    3.5222   28.5355    8.3107 C   0  0  0  0  0  0
    4.4433   27.4984    8.4113 C   0  0  0  0  0  0
    5.1306   27.0529    7.2803 C   0  0  0  0  0  0
    4.8581   27.6165    6.0335 C   0  0  0  0  0  0
    3.9359   28.6520    5.9343 C   0  0  0  0  0  0
    6.3738   25.7735    7.4571 S   0  0  2  0  0  0
    5.5361   24.4994    7.3750 N   0  0  0  0  0  0
    7.2582   26.1159    8.5757 O   0  0  0  0  0  0
    7.3695   25.6856    5.8635 C   0  0  0  0  0  0
    1.0130   32.0144    7.4551 N   0  0  0  0  0  0
   -0.0507   32.4663    8.1759 C   0  0  0  0  0  0
   -0.8155   31.6304    8.9959 C   0  0  0  0  0  0
   -2.3421   32.3130    9.9130 Br  0  0  0  0  0  0
   -0.5895   26.6778   11.3879 C   0  0  0  0  0  0
   -2.0190   26.4717   11.9444 C   0  0  0  0  0  0
   -0.3999   25.8060   10.1315 C   0  0  0  0  0  0
    0.2814   26.1219   12.3575 O   0  0  0  0  0  0
   -0.8754   30.2570   13.7970 H   0  0  0  0  0  0
   -1.9420   29.7912   12.5316 H   0  0  0  0  0  0
   -1.4813   28.6296   13.7765 H   0  0  0  0  0  0
    0.8470   28.5757   12.9745 H   0  0  0  0  0  0
    0.5920   29.9698   11.9869 H   0  0  0  0  0  0
    0.7561   28.1248   10.5525 H   0  0  0  0  0  0
    2.9216   30.9660    6.3726 H   0  0  0  0  0  0
    3.0336   28.8957    9.2032 H   0  0  0  0  0  0
    4.6255   27.0540    9.3758 H   0  0  0  0  0  0
    5.3766   27.2909    5.1456 H   0  0  0  0  0  0
    3.7660   29.1152    4.9759 H   0  0  0  0  0  0
    6.1022   23.6807    7.2176 H   0  0  0  0  0  0
    6.7121   25.4272    5.0337 H   0  0  0  0  0  0
    7.8412   26.6516    5.6894 H   0  0  0  0  0  0
    8.1392   24.9243    5.9776 H   0  0  0  0  0  0
   -0.3134   33.5067    8.0455 H   0  0  0  0  0  0
   -2.7693   27.0181   11.3760 H   0  0  0  0  0  0
   -2.1151   26.7803   12.9822 H   0  0  0  0  0  0
   -2.3087   25.4204   11.9243 H   0  0  0  0  0  0
   -1.0491   26.1350    9.3192 H   0  0  0  0  0  0
    0.6303   25.8437    9.7761 H   0  0  0  0  0  0
   -0.6304   24.7570   10.3256 H   0  0  0  0  0  0
    1.1665   26.4762   12.2232 H   0  0  0  0  0  0
  1  2  1  0  0  0
  1 27  1  0  0  0
  1 28  1  0  0  0
  1 29  1  0  0  0
  2  3  1  0  0  0
  2 30  1  0  0  0
  2 31  1  0  0  0
  3  4  1  0  0  0
  3 23  1  0  0  0
  3 32  1  0  0  0
  4  5  1  0  0  0
  5  6  2  0  0  0
  5 21  1  0  0  0
  6  7  1  0  0  0
  7  8  1  0  0  0
  7 19  2  0  0  0
  8  9  1  0  0  0
  8 33  1  0  0  0
  9 10  2  0  0  0
  9 14  1  0  0  0
 10 11  1  0  0  0
 10 34  1  0  0  0
 11 12  2  0  0  0
 11 35  1  0  0  0
 12 13  1  0  0  0
 12 15  1  0  0  0
 13 14  2  0  0  0
 13 36  1  0  0  0
 14 37  1  0  0  0
 15 16  2  0  0  0
 15 17  2  0  0  0
 15 18  1  0  0  0
 16 38  1  0  0  0
 18 39  1  0  0  0
 18 40  1  0  0  0
 18 41  1  0  0  0
 19 20  1  0  0  0
 20 21  2  0  0  0
 20 42  1  0  0  0
 21 22  1  0  0  0
 23 24  1  0  0  0
 23 25  1  0  0  0
 23 26  1  0  0  0
 24 43  1  0  0  0
 24 44  1  0  0  0
 24 45  1  0  0  0
 25 46  1  0  0  0
 25 47  1  0  0  0
 25 48  1  0  0  0
 26 49  1  0  0  0
M  END
> <s_m_entry_id>
32677

> <s_m_entry_name>
dock_pv.78

> <s_m_Source_Path>
/home/csk/Desktop/cluster/DUD-E-result/cdk2

> <s_m_Source_File>
dock_pv.maegz

> <i_m_Source_File_Index>
78

> <chembl_id>
CHEMBL3648105

> <chembl_pref_name>
None

> <i_lp_mmshare_version>
53161

> <i_f3d_flags>
0

> <r_lp_tautomer_probability>
0.999999987636

> <s_lp_Force_Field>
OPLS_2005

> <r_lp_Energy>
2.58694

> <b_lp_Chiralities_Consistent>
1

> <s_lp_Variant>
CHEMBL301_lig1355-1

> <s_i_glide_gridfile>
glide-grid_1h00

> <i_i_glide_lignum>
1806

> <i_i_glide_rotatable_bonds>
8

> <r_i_docking_score>
-8.28495355459654

> <r_i_glide_ligand_efficiency>
-0.318652059792175

> <r_i_glide_ligand_efficiency_sa>
-0.944005473299007

> <r_i_glide_ligand_efficiency_ln>
-1.94569415714706

> <r_i_glide_gscore>
-8.28495355459654

> <r_i_glide_lipo>
-3.22890265855956

> <r_i_glide_hbond>
-0.442496249971898

> <r_i_glide_metal>
0

> <r_i_glide_rewards>
-1.65543731500534

> <r_i_glide_evdw>
-41.3856658935547

> <r_i_glide_ecoul>
-9.10306644439697

> <r_i_glide_erotb>
0.476625930277535

> <r_i_glide_esite>
0

> <r_i_glide_emodel>
-71.5308174112728

> <r_i_glide_energy>
-50.4887323379517

> <r_i_glide_einternal>
7.09517812728882

> <i_i_glide_confnum>
11

> <i_i_glide_posenum>
130

> <r_i_glide_eff_state_penalty>
0

> <s_user_duplicate_titles>
CHEMBL301_lig1355

> <s_m_subgroup_title>
dock_pv

> <s_m_subgroupid>
dock_pv

> <b_m_subgroup_collapsed>
1

$$$$
CHEMBL301_lig347
                    3D
 Schrodinger Suite 2021-1.
 42 45  0  0  1  0            999 V2000
    6.6366   24.7213    5.7858 S   0  0  0  0  0  0
    1.2536   30.3468    8.2049 C   0  0  0  0  0  0
    0.0221   30.4036    8.9757 C   0  0  0  0  0  0
    1.2578   31.5364    7.3759 C   0  0  0  0  0  0
    8.0927   25.4498    5.1176 N   0  0  0  0  0  0
    0.2083   32.2707    7.7764 N   0  0  0  0  0  0
   -0.5859   31.6056    8.6856 C   0  0  0  0  0  0
    2.2441   29.4335    8.1838 C   0  0  0  0  0  0
   -0.5947   29.5551    9.9057 C   0  0  0  0  0  0
    9.2635   25.8463    5.8385 C   0  0  0  0  0  0
   -2.3413   29.0237   11.3757 N   0  0  0  0  0  0
    5.6447   26.1119    6.3087 C   0  0  0  0  0  0
   -0.1035   27.9851   10.5391 S   0  0  0  0  0  0
   -1.5587   27.9914   11.4991 C   0  0  0  0  0  0
   -1.8311   29.9301   10.5027 C   0  0  0  0  0  0
    5.9120   24.1142    4.6656 O   0  0  0  0  0  0
    6.9725   23.9325    6.9762 O   0  0  0  0  0  0
    3.3824   29.4391    7.4121 N   0  0  0  0  0  0
    9.6134   25.4518    6.9753 N   0  0  0  0  0  0
    2.0578   31.8522    6.5026 O   0  0  0  0  0  0
   -1.7900   32.0012    9.2653 C   0  0  0  0  0  0
   -2.4329   31.1589   10.1764 C   0  0  0  0  0  0
    5.2703   26.2612    7.6456 C   0  0  0  0  0  0
    5.2585   27.0536    5.3548 C   0  0  0  0  0  0
   10.0583   26.7649    5.1366 N   0  0  0  0  0  0
    4.1440   28.3188    7.0749 C   0  0  0  0  0  0
    4.5289   28.1709    5.7441 C   0  0  0  0  0  0
    4.5086   27.3623    8.0268 C   0  0  0  0  0  0
    7.9560   25.8964    4.2111 H   0  0  0  0  0  0
    0.0164   33.1890    7.4003 H   0  0  0  0  0  0
    2.1909   28.5689    8.8294 H   0  0  0  0  0  0
   -1.7871   27.1686   12.1608 H   0  0  0  0  0  0
    3.4750   30.2042    6.7482 H   0  0  0  0  0  0
   10.4928   25.8623    7.2515 H   0  0  0  0  0  0
   -2.2364   32.9545    9.0194 H   0  0  0  0  0  0
   -3.3644   31.4517   10.6402 H   0  0  0  0  0  0
    5.5683   25.5382    8.3921 H   0  0  0  0  0  0
    5.5461   26.9349    4.3201 H   0  0  0  0  0  0
   10.8747   27.1225    5.6154 H   0  0  0  0  0  0
    9.5623   27.5358    4.7132 H   0  0  0  0  0  0
    4.2513   28.9107    5.0067 H   0  0  0  0  0  0
    4.2315   27.4751    9.0654 H   0  0  0  0  0  0
  1  5  1  0  0  0
  1 12  1  0  0  0
  1 16  2  0  0  0
  1 17  2  0  0  0
  2  8  2  0  0  0
  2  3  1  0  0  0
  2  4  1  0  0  0
  3  7  2  0  0  0
  3  9  1  0  0  0
  4  6  1  0  0  0
  4 20  2  0  0  0
  5 10  1  0  0  0
  5 29  1  0  0  0
  6  7  1  0  0  0
  6 30  1  0  0  0
  7 21  1  0  0  0
  8 18  1  0  0  0
  8 31  1  0  0  0
  9 13  1  0  0  0
  9 15  2  0  0  0
 10 19  2  0  0  0
 10 25  1  0  0  0
 11 15  1  0  0  0
 11 14  2  0  0  0
 12 23  2  0  0  0
 12 24  1  0  0  0
 13 14  1  0  0  0
 14 32  1  0  0  0
 15 22  1  0  0  0
 18 26  1  0  0  0
 18 33  1  0  0  0
 19 34  1  0  0  0
 21 22  2  0  0  0
 21 35  1  0  0  0
 22 36  1  0  0  0
 23 28  1  0  0  0
 23 37  1  0  0  0
 24 27  2  0  0  0
 24 38  1  0  0  0
 25 39  1  0  0  0
 25 40  1  0  0  0
 26 27  1  0  0  0
 26 28  2  0  0  0
 27 41  1  0  0  0
 28 42  1  0  0  0
M  END
> <s_m_entry_id>
32678

> <s_m_entry_name>
dock_pv.79

> <s_m_Source_Path>
/home/csk/Desktop/cluster/DUD-E-result/cdk2

> <s_m_Source_File>
dock_pv.maegz

> <i_m_Source_File_Index>
79

> <chembl_id>
CHEMBL1964255

> <chembl_pref_name>
None

> <i_lp_mmshare_version>
53161

> <i_f3d_flags>
0

> <r_lp_tautomer_probability>
0.499999999999422

> <s_lp_Force_Field>
OPLS_2005

> <r_lp_Energy>
41.307479

> <b_lp_Chiralities_Consistent>
1

> <s_lp_Variant>
CHEMBL301_lig347-1

> <s_i_glide_gridfile>
glide-grid_1h00

> <i_i_glide_lignum>
527

> <i_i_glide_rotatable_bonds>
5

> <r_i_docking_score>
-8.2845157578856

> <r_i_glide_ligand_efficiency>
-0.295875562781629

> <r_i_glide_ligand_efficiency_sa>
-0.898452469992256

> <r_i_glide_ligand_efficiency_ln>
-1.91230948087226

> <r_i_glide_gscore>
-8.2845157578856

> <r_i_glide_lipo>
-2.69804566595646

> <r_i_glide_hbond>
-0.84380431928542

> <r_i_glide_metal>
0

> <r_i_glide_rewards>
-1.09752558264589

> <r_i_glide_evdw>
-44.5061111450195

> <r_i_glide_ecoul>
-12.0002107620239

> <r_i_glide_erotb>
0.402154882946907

> <r_i_glide_esite>
-0.0219579013901758

> <r_i_glide_emodel>
-76.3893376298908

> <r_i_glide_energy>
-56.5063219070435

> <r_i_glide_einternal>
8.71557807922363

> <i_i_glide_confnum>
38

> <i_i_glide_posenum>
390

> <r_i_glide_eff_state_penalty>
0

> <s_user_duplicate_titles>
CHEMBL301_lig347,226558

> <s_m_subgroup_title>
dock_pv

> <s_m_subgroupid>
dock_pv

> <b_m_subgroup_collapsed>
1

$$$$
CHEMBL301_lig229
                    3D
 Schrodinger Suite 2021-1.
 39 42  0  0  1  0            999 V2000
    1.6817   31.0601    7.0262 O   0  0  0  0  0  0
    2.0903   30.1728    7.7760 C   0  0  0  0  0  0
    3.3680   29.7463    7.6186 N   0  0  0  0  0  0
    3.8905   28.6311    8.1960 C   0  0  0  0  0  0
    3.2344   27.8533    9.0696 C   0  0  0  0  0  0
    1.8732   28.2627    9.4488 C   0  0  0  0  0  0
    1.0890   27.5014   10.3126 C   0  0  0  0  0  0
    1.3104   29.4480    8.8945 C   0  0  0  0  0  0
   -0.0008   29.9014    9.3067 C   0  0  0  0  0  0
   -0.5995   31.1294    8.9010 C   0  0  0  0  0  0
   -1.8562   31.5018    9.3454 C   0  0  0  0  0  0
   -2.3428   32.6922    8.9783 F   0  0  0  0  0  0
   -2.5969   30.6835   10.1773 C   0  0  0  0  0  0
   -2.0632   29.4854   10.6230 C   0  0  0  0  0  0
   -0.7630   29.0888   10.2053 C   0  0  0  0  0  0
   -0.2051   27.8823   10.6813 C   0  0  0  0  0  0
   -0.8120   26.9788   11.5103 N   0  0  0  0  0  0
    0.0818   26.0309   11.6590 C   0  0  0  0  0  0
    1.2534   26.3051   10.9758 N   0  0  0  0  0  0
   -0.1647   24.7750   12.5039 C   0  0  0  0  0  0
   -1.4600   24.0743   12.0361 C   0  0  0  0  0  0
   -0.3421   25.1885   13.9829 C   0  0  0  0  0  0
    1.0048   23.7666   12.3656 C   0  0  0  0  0  0
    3.8911   30.2676    6.9230 H   0  0  0  0  0  0
    4.8937   28.4294    7.8442 H   0  0  0  0  0  0
    3.6962   26.9731    9.4918 H   0  0  0  0  0  0
   -0.0813   31.8360    8.2764 H   0  0  0  0  0  0
   -3.5713   31.0007   10.5142 H   0  0  0  0  0  0
   -2.6274   28.8707   11.3109 H   0  0  0  0  0  0
    2.0599   25.6991   10.9847 H   0  0  0  0  0  0
   -1.6264   23.1353   12.5670 H   0  0  0  0  0  0
   -1.4168   23.8515   10.9723 H   0  0  0  0  0  0
   -2.3400   24.7017   12.1883 H   0  0  0  0  0  0
    0.4502   25.8553   14.3184 H   0  0  0  0  0  0
   -1.2763   25.7354   14.1310 H   0  0  0  0  0  0
   -0.3599   24.3257   14.6492 H   0  0  0  0  0  0
    1.9690   24.2228   12.5760 H   0  0  0  0  0  0
    0.8921   22.9163   13.0367 H   0  0  0  0  0  0
    1.0626   23.3671   11.3513 H   0  0  0  0  0  0
  1  2  2  0  0  0
  2  3  1  0  0  0
  2  8  1  0  0  0
  3  4  1  0  0  0
  3 24  1  0  0  0
  4  5  2  0  0  0
  4 25  1  0  0  0
  5  6  1  0  0  0
  5 26  1  0  0  0
  6  7  2  0  0  0
  6  8  1  0  0  0
  7 16  1  0  0  0
  7 19  1  0  0  0
  8  9  2  0  0  0
  9 10  1  0  0  0
  9 15  1  0  0  0
 10 11  2  0  0  0
 10 27  1  0  0  0
 11 12  1  0  0  0
 11 13  1  0  0  0
 13 14  2  0  0  0
 13 28  1  0  0  0
 14 15  1  0  0  0
 14 29  1  0  0  0
 15 16  2  0  0  0
 16 17  1  0  0  0
 17 18  2  0  0  0
 18 19  1  0  0  0
 18 20  1  0  0  0
 19 30  1  0  0  0
 20 21  1  0  0  0
 20 22  1  0  0  0
 20 23  1  0  0  0
 21 31  1  0  0  0
 21 32  1  0  0  0
 21 33  1  0  0  0
 22 34  1  0  0  0
 22 35  1  0  0  0
 22 36  1  0  0  0
 23 37  1  0  0  0
 23 38  1  0  0  0
 23 39  1  0  0  0
M  END
> <s_m_entry_id>
32679

> <s_m_entry_name>
dock_pv.80

> <s_m_Source_Path>
/home/csk/Desktop/cluster/DUD-E-result/cdk2

> <s_m_Source_File>
dock_pv.maegz

> <i_m_Source_File_Index>
80

> <chembl_id>
CHEMBL21156

> <chembl_pref_name>
None

> <i_lp_mmshare_version>
53161

> <i_f3d_flags>
0

> <r_lp_tautomer_probability>
1

> <s_lp_Force_Field>
OPLS_2005

> <r_lp_Energy>
36.761165

> <b_lp_Chiralities_Consistent>
1

> <s_lp_Variant>
CHEMBL301_lig229-1

> <s_i_glide_gridfile>
glide-grid_1h00

> <i_i_glide_lignum>
371

> <i_i_glide_rotatable_bonds>
1

> <r_i_docking_score>
-8.28142909207031

> <r_i_glide_ligand_efficiency>
-0.36006213443784

> <r_i_glide_ligand_efficiency_sa>
-1.02396881375243

> <r_i_glide_ligand_efficiency_ln>
-2.00252464630994

> <r_i_glide_gscore>
-8.28142909207031

> <r_i_glide_lipo>
-2.71535147697767

> <r_i_glide_hbond>
-0.32

> <r_i_glide_metal>
0

> <r_i_glide_rewards>
-2.74639703809024

> <r_i_glide_evdw>
-34.1426429748535

> <r_i_glide_ecoul>
-5.22927093505859

> <r_i_glide_erotb>
0

> <r_i_glide_esite>
-0.00815778800094227

> <r_i_glide_emodel>
-57.3723356353476

> <r_i_glide_energy>
-39.3719139099121

> <r_i_glide_einternal>
0.624384522438049

> <i_i_glide_confnum>
1

> <i_i_glide_posenum>
172

> <r_i_glide_eff_state_penalty>
0

> <s_user_duplicate_titles>
CHEMBL301_lig229

> <s_m_subgroup_title>
dock_pv

> <s_m_subgroupid>
dock_pv

> <b_m_subgroup_collapsed>
1

$$$$
CHEMBL301_lig488
                    3D
 Schrodinger Suite 2021-1.
 51 54  0  0  1  0            999 V2000
    0.4581   32.0336    7.7760 C   0  0  0  0  0  0
   -0.3783   31.3554    8.6621 C   0  0  0  0  0  0
    0.0587   30.0937    9.1288 C   0  0  0  0  0  0
    1.2343   29.5709    8.6726 N   0  0  0  0  0  0
    1.9643   30.2926    7.7807 C   0  0  0  0  0  0
    1.6163   31.5116    7.3073 N   0  0  0  0  0  0
   -0.6192   29.2379   10.1773 C   0  0  0  0  0  0
   -2.0784   28.5403   11.7761 N   0  0  0  0  0  0
   -1.7635   29.5432   10.9032 C   0  0  0  0  0  0
   -1.1585   27.5279   11.6749 C   0  0  0  0  0  0
   -0.2004   27.9391   10.6920 C   0  0  0  0  0  0
    0.8815   27.0703   10.4433 C   0  0  0  0  0  0
    0.9687   25.8574   11.1233 C   0  0  0  0  0  0
    0.0079   25.4873   12.0579 C   0  0  0  0  0  0
   -1.0744   26.3115   12.3611 C   0  0  0  0  0  0
   -1.8530   32.1344    9.1199 Cl  0  0  0  0  0  0
    3.2271   29.8520    7.3760 N   0  0  0  0  0  0
    3.6641   28.4699    7.4098 C   0  0  0  0  0  0
    4.0933   28.0717    5.9903 C   0  0  0  0  0  0
    4.6333   26.6280    5.9112 C   0  0  0  0  0  0
    5.6865   26.4300    6.9439 N   0  0  0  0  0  0
    5.3845   26.8719    8.3284 C   0  0  0  0  0  0
    4.8703   28.3267    8.3275 C   0  0  0  0  0  0
    6.8848   25.8075    6.7011 C   0  0  0  0  0  0
    7.8159   25.8527    7.5138 O   0  0  0  0  0  0
    7.0528   25.1263    5.5348 N   0  0  0  0  0  0
    8.3607   25.0578    4.8791 C   0  0  0  0  0  0
    6.0824   24.1701    4.9915 C   0  0  0  0  0  0
    0.1999   33.0196    7.4154 H   0  0  0  0  0  0
   -2.8598   28.6072   12.4201 H   0  0  0  0  0  0
   -2.4013   30.4132   10.9045 H   0  0  0  0  0  0
    1.6554   27.3284    9.7393 H   0  0  0  0  0  0
    1.8039   25.2003   10.9275 H   0  0  0  0  0  0
    0.1111   24.5412   12.5689 H   0  0  0  0  0  0
   -1.8097   26.0217   13.0971 H   0  0  0  0  0  0
    3.7797   30.4888    6.8013 H   0  0  0  0  0  0
    2.8578   27.8512    7.7760 H   0  0  0  0  0  0
    4.8588   28.7569    5.6171 H   0  0  0  0  0  0
    3.2554   28.1762    5.3007 H   0  0  0  0  0  0
    5.0296   26.5271    4.9002 H   0  0  0  0  0  0
    3.8288   25.9133    6.0864 H   0  0  0  0  0  0
    4.6117   26.2156    8.7305 H   0  0  0  0  0  0
    6.2605   26.8430    8.9755 H   0  0  0  0  0  0
    4.5957   28.6081    9.3451 H   0  0  0  0  0  0
    5.6591   29.0158    8.0302 H   0  0  0  0  0  0
    9.0508   25.8178    5.2523 H   0  0  0  0  0  0
    8.2537   25.2122    3.8045 H   0  0  0  0  0  0
    8.8161   24.0796    5.0387 H   0  0  0  0  0  0
    5.1598   24.1219    5.5701 H   0  0  0  0  0  0
    5.8293   24.4294    3.9625 H   0  0  0  0  0  0
    6.5089   23.1662    4.9877 H   0  0  0  0  0  0
  1  2  2  0  0  0
  1  6  1  0  0  0
  1 29  1  0  0  0
  2 16  1  0  0  0
  2  3  1  0  0  0
  3  7  1  0  0  0
  3  4  2  0  0  0
  4  5  1  0  0  0
  5 17  1  0  0  0
  5  6  2  0  0  0
  7 11  1  0  0  0
  7  9  2  0  0  0
  8 10  1  0  0  0
  8  9  1  0  0  0
  8 30  1  0  0  0
  9 31  1  0  0  0
 10 15  1  0  0  0
 10 11  2  0  0  0
 11 12  1  0  0  0
 12 13  2  0  0  0
 12 32  1  0  0  0
 13 14  1  0  0  0
 13 33  1  0  0  0
 14 15  2  0  0  0
 14 34  1  0  0  0
 15 35  1  0  0  0
 17 18  1  0  0  0
 17 36  1  0  0  0
 18 19  1  0  0  0
 18 23  1  0  0  0
 18 37  1  0  0  0
 19 20  1  0  0  0
 19 38  1  0  0  0
 19 39  1  0  0  0
 20 21  1  0  0  0
 20 40  1  0  0  0
 20 41  1  0  0  0
 21 22  1  0  0  0
 21 24  1  0  0  0
 22 23  1  0  0  0
 22 42  1  0  0  0
 22 43  1  0  0  0
 23 44  1  0  0  0
 23 45  1  0  0  0
 24 25  2  0  0  0
 24 26  1  0  0  0
 26 27  1  0  0  0
 26 28  1  0  0  0
 27 46  1  0  0  0
 27 47  1  0  0  0
 27 48  1  0  0  0
 28 49  1  0  0  0
 28 50  1  0  0  0
 28 51  1  0  0  0
M  END
> <s_m_entry_id>
32680

> <s_m_entry_name>
dock_pv.81

> <s_m_Source_Path>
/home/csk/Desktop/cluster/DUD-E-result/cdk2

> <s_m_Source_File>
dock_pv.maegz

> <i_m_Source_File_Index>
81

> <chembl_id>
CHEMBL393659

> <chembl_pref_name>
None

> <i_lp_mmshare_version>
53161

> <i_f3d_flags>
0

> <r_lp_tautomer_probability>
0.999999987636

> <s_lp_Force_Field>
OPLS_2005

> <r_lp_Energy>
52.723555

> <b_lp_Chiralities_Consistent>
1

> <s_lp_Variant>
CHEMBL301_lig488-1

> <s_i_glide_gridfile>
glide-grid_1h00

> <i_i_glide_lignum>
679

> <i_i_glide_rotatable_bonds>
5

> <r_i_docking_score>
-8.27302807142367

> <r_i_glide_ligand_efficiency>
-0.295465288265131

> <r_i_glide_ligand_efficiency_sa>
-0.897206634921402

> <r_i_glide_ligand_efficiency_ln>
-1.90965778554371

> <r_i_glide_gscore>
-8.27302807142367

> <r_i_glide_lipo>
-2.83855794626854

> <r_i_glide_hbond>
-0.405333236420301

> <r_i_glide_metal>
0

> <r_i_glide_rewards>
-2.32839134386255

> <r_i_glide_evdw>
-39.622314453125

> <r_i_glide_ecoul>
-7.74715089797974

> <r_i_glide_erotb>
0.492459187290872

> <r_i_glide_esite>
-0.0500163748099452

> <r_i_glide_emodel>
-67.1878267884133

> <r_i_glide_energy>
-47.3694653511047

> <r_i_glide_einternal>
5.09475708007812

> <i_i_glide_confnum>
20

> <i_i_glide_posenum>
76

> <r_i_glide_eff_state_penalty>
0

> <s_user_duplicate_titles>
CHEMBL301_lig488

> <s_m_subgroup_title>
dock_pv

> <s_m_subgroupid>
dock_pv

> <b_m_subgroup_collapsed>
1

$$$$
CHEMBL301_lig485
                    3D
 Schrodinger Suite 2021-1.
 51 54  0  0  1  0            999 V2000
    0.1685   32.0064    8.0187 C   0  0  0  0  0  0
   -0.5410   31.2858    8.9760 C   0  0  0  0  0  0
   -0.0278   30.0204    9.3494 C   0  0  0  0  0  0
    1.0998   29.5411    8.7445 N   0  0  0  0  0  0
    1.6930   30.2981    7.7767 C   0  0  0  0  0  0
    1.2603   31.5209    7.3799 N   0  0  0  0  0  0
   -0.5929   29.1101   10.4215 C   0  0  0  0  0  0
   -1.9373   28.3065   12.0851 N   0  0  0  0  0  0
   -1.6892   29.3531   11.2397 C   0  0  0  0  0  0
   -0.9979   27.3267   11.8803 C   0  0  0  0  0  0
   -0.1153   27.8022   10.8522 C   0  0  0  0  0  0
    0.9622   26.9703   10.4901 C   0  0  0  0  0  0
    1.1196   25.7308   11.1074 C   0  0  0  0  0  0
    0.2337   25.2984   12.0880 C   0  0  0  0  0  0
   -0.8406   26.0839   12.5026 C   0  0  0  0  0  0
   -1.9542   32.0357    9.6336 Cl  0  0  0  0  0  0
    2.8580   29.8519    7.1347 N   0  0  0  0  0  0
    3.4796   28.5527    7.3529 C   0  0  0  0  0  0
    4.0475   28.0428    6.0199 C   0  0  0  0  0  0
    4.6805   26.6422    6.1604 C   0  0  0  0  0  0
    5.6715   26.6832    7.2641 N   0  0  0  0  0  0
    5.2378   27.2440    8.5667 C   0  0  0  0  0  0
    4.6301   28.6433    8.3445 C   0  0  0  0  0  0
    6.8762   26.0517    7.1720 C   0  0  0  0  0  0
    7.5840   25.8548    8.1703 O   0  0  0  0  0  0
    7.3765   25.5860    5.7721 C   0  0  0  0  0  0
    8.7670   25.1462    5.7630 N   0  0  2  0  0  0
    9.7287   26.2434    5.7223 C   0  0  0  0  0  0
   -0.1392   33.0071    7.7518 H   0  0  0  0  0  0
   -2.6874   28.3304   12.7708 H   0  0  0  0  0  0
   -2.3417   30.2063   11.3139 H   0  0  0  0  0  0
    1.6799   27.2764    9.7484 H   0  0  0  0  0  0
    1.9498   25.1010   10.8231 H   0  0  0  0  0  0
    0.3908   24.3318   12.5452 H   0  0  0  0  0  0
   -1.5182   25.7411   13.2706 H   0  0  0  0  0  0
    3.3820   30.5197    6.5769 H   0  0  0  0  0  0
    2.7628   27.8550    7.7760 H   0  0  0  0  0  0
    4.7902   28.7384    5.6227 H   0  0  0  0  0  0
    3.2585   28.0000    5.2691 H   0  0  0  0  0  0
    5.1077   26.4056    5.1882 H   0  0  0  0  0  0
    3.9166   25.9076    6.4144 H   0  0  0  0  0  0
    4.4794   26.5780    8.9778 H   0  0  0  0  0  0
    6.0568   27.3790    9.2718 H   0  0  0  0  0  0
    4.2510   29.0063    9.2960 H   0  0  0  0  0  0
    5.3936   29.3514    8.0189 H   0  0  0  0  0  0
    7.2453   26.3827    5.0382 H   0  0  0  0  0  0
    6.7551   24.7518    5.4460 H   0  0  0  0  0  0
    8.9357   24.5488    4.9635 H   0  0  0  0  0  0
    9.6149   26.9058    6.5806 H   0  0  0  0  0  0
    9.6089   26.8415    4.8163 H   0  0  0  0  0  0
   10.7469   25.8549    5.7348 H   0  0  0  0  0  0
  1  2  2  0  0  0
  1  6  1  0  0  0
  1 29  1  0  0  0
  2 16  1  0  0  0
  2  3  1  0  0  0
  3  7  1  0  0  0
  3  4  2  0  0  0
  4  5  1  0  0  0
  5 17  1  0  0  0
  5  6  2  0  0  0
  7 11  1  0  0  0
  7  9  2  0  0  0
  8 10  1  0  0  0
  8  9  1  0  0  0
  8 30  1  0  0  0
  9 31  1  0  0  0
 10 15  1  0  0  0
 10 11  2  0  0  0
 11 12  1  0  0  0
 12 13  2  0  0  0
 12 32  1  0  0  0
 13 14  1  0  0  0
 13 33  1  0  0  0
 14 15  2  0  0  0
 14 34  1  0  0  0
 15 35  1  0  0  0
 17 18  1  0  0  0
 17 36  1  0  0  0
 18 19  1  0  0  0
 18 23  1  0  0  0
 18 37  1  0  0  0
 19 20  1  0  0  0
 19 38  1  0  0  0
 19 39  1  0  0  0
 20 21  1  0  0  0
 20 40  1  0  0  0
 20 41  1  0  0  0
 21 22  1  0  0  0
 21 24  1  0  0  0
 22 23  1  0  0  0
 22 42  1  0  0  0
 22 43  1  0  0  0
 23 44  1  0  0  0
 23 45  1  0  0  0
 24 25  2  0  0  0
 24 26  1  0  0  0
 26 27  1  0  0  0
 26 46  1  0  0  0
 26 47  1  0  0  0
 27 28  1  0  0  0
 27 48  1  0  0  0
 28 49  1  0  0  0
 28 50  1  0  0  0
 28 51  1  0  0  0
M  END
> <s_m_entry_id>
32681

> <s_m_entry_name>
dock_pv.82

> <s_m_Source_Path>
/home/csk/Desktop/cluster/DUD-E-result/cdk2

> <s_m_Source_File>
dock_pv.maegz

> <i_m_Source_File_Index>
82

> <chembl_id>
CHEMBL393861

> <chembl_pref_name>
None

> <i_lp_mmshare_version>
53161

> <i_f3d_flags>
0

> <r_lp_tautomer_probability>
0.999999987636

> <s_lp_Force_Field>
OPLS_2005

> <r_lp_Energy>
28.909172

> <b_lp_Chiralities_Consistent>
1

> <s_lp_Variant>
CHEMBL301_lig485-1

> <s_i_glide_gridfile>
glide-grid_1h00

> <i_i_glide_lignum>
676

> <i_i_glide_rotatable_bonds>
6

> <r_i_docking_score>
-8.27294188587521

> <r_i_glide_ligand_efficiency>
-0.295462210209829

> <r_i_glide_ligand_efficiency_sa>
-0.897197288132627

> <r_i_glide_ligand_efficiency_ln>
-1.90963789138861

> <r_i_glide_gscore>
-8.27294188587521

> <r_i_glide_lipo>
-2.94572067690169

> <r_i_glide_hbond>
-0.437650188396363

> <r_i_glide_metal>
0

> <r_i_glide_rewards>
-2.15201971799853

> <r_i_glide_evdw>
-40.9454154968262

> <r_i_glide_ecoul>
-8.45155715942383

> <r_i_glide_erotb>
0.61557398411359

> <r_i_glide_esite>
-0.0381209379373307

> <r_i_glide_emodel>
-69.1442859264059

> <r_i_glide_energy>
-49.39697265625

> <r_i_glide_einternal>
5.46181011199951

> <i_i_glide_confnum>
88

> <i_i_glide_posenum>
361

> <r_i_glide_eff_state_penalty>
0

> <s_user_duplicate_titles>
CHEMBL301_lig485

> <s_m_subgroup_title>
dock_pv

> <s_m_subgroupid>
dock_pv

> <b_m_subgroup_collapsed>
1

$$$$
CHEMBL301_lig348
                    3D
 Schrodinger Suite 2021-1.
 54 56  0  0  1  0            999 V2000
    0.2883   25.8509   12.7652 C   0  0  0  0  0  0
   -1.2551   25.7729   12.7139 C   0  0  0  0  0  0
   -1.6736   25.3954   11.2668 C   0  0  0  0  0  0
   -1.7325   24.6846   13.7136 C   0  0  0  0  0  0
   -3.1420   24.6520   13.8320 O   0  0  0  0  0  0
   -1.8528   27.1500   13.1237 C   0  0  0  0  0  0
   -1.5058   28.2259   12.2004 N   0  0  0  0  0  0
   -2.3654   28.8444   11.3760 C   0  0  0  0  0  0
   -3.5823   28.6520   11.3760 O   0  0  0  0  0  0
   -1.7401   29.8176   10.4323 C   0  0  0  0  0  0
   -2.3716   31.0368   10.1354 C   0  0  0  0  0  0
   -1.7745   31.9431    9.2557 C   0  0  0  0  0  0
   -0.5608   31.5949    8.6660 C   0  0  0  0  0  0
    0.2195   32.2874    7.7760 N   0  0  0  0  0  0
    1.2580   31.5485    7.3670 C   0  0  0  0  0  0
    2.0580   31.8520    6.4898 O   0  0  0  0  0  0
    1.2669   30.3286    8.1760 C   0  0  0  0  0  0
    0.0525   30.3893    8.9354 C   0  0  0  0  0  0
   -0.5210   29.4985    9.8269 C   0  0  0  0  0  0
    2.1581   29.4132    8.2074 N   0  0  0  0  0  0
    3.2640   29.4520    7.3476 N   0  0  0  0  0  0
    4.0771   28.3559    7.0659 C   0  0  0  0  0  0
    4.5288   27.5106    8.0802 C   0  0  0  0  0  0
    5.3940   26.4649    7.7760 C   0  0  0  0  0  0
    5.7876   26.2506    6.4571 C   0  0  0  0  0  0
    5.2919   27.0568    5.4321 C   0  0  0  0  0  0
    4.4580   28.1263    5.7439 C   0  0  0  0  0  0
    6.9976   24.9882    6.1047 S   0  0  0  0  0  0
    8.4989   25.6776    6.6566 N   0  0  0  0  0  0
    6.7047   23.8457    6.9760 O   0  0  0  0  0  0
    7.0980   24.8331    4.6511 O   0  0  0  0  0  0
    0.6898   26.5362   12.0171 H   0  0  0  0  0  0
    0.6217   26.2175   13.7362 H   0  0  0  0  0  0
    0.7524   24.8796   12.5888 H   0  0  0  0  0  0
   -1.1716   26.0167   10.5237 H   0  0  0  0  0  0
   -1.4337   24.3585   11.0289 H   0  0  0  0  0  0
   -2.7420   25.5358   11.1085 H   0  0  0  0  0  0
   -1.3141   24.8581   14.7064 H   0  0  0  0  0  0
   -1.3890   23.6971   13.4010 H   0  0  0  0  0  0
   -3.5211   24.6500   12.9424 H   0  0  0  0  0  0
   -2.9375   27.0627   13.2176 H   0  0  0  0  0  0
   -1.5106   27.4379   14.1189 H   0  0  0  0  0  0
   -0.5587   28.5692   12.2405 H   0  0  0  0  0  0
   -3.3173   31.2907   10.5958 H   0  0  0  0  0  0
   -2.2589   32.8849    9.0426 H   0  0  0  0  0  0
    0.0201   33.2100    7.4135 H   0  0  0  0  0  0
   -0.0292   28.5563   10.0294 H   0  0  0  0  0  0
    3.2352   30.2232    6.6837 H   0  0  0  0  0  0
    4.2420   27.6830    9.1078 H   0  0  0  0  0  0
    5.7747   25.8434    8.5749 H   0  0  0  0  0  0
    5.5995   26.8997    4.4079 H   0  0  0  0  0  0
    4.1144   28.7818    4.9572 H   0  0  0  0  0  0
    9.1616   24.9689    6.9759 H   0  0  0  0  0  0
    8.9258   26.2733    5.9418 H   0  0  0  0  0  0
  1  2  1  0  0  0
  1 32  1  0  0  0
  1 33  1  0  0  0
  1 34  1  0  0  0
  2  3  1  0  0  0
  2  4  1  0  0  0
  2  6  1  0  0  0
  3 35  1  0  0  0
  3 36  1  0  0  0
  3 37  1  0  0  0
  4  5  1  0  0  0
  4 38  1  0  0  0
  4 39  1  0  0  0
  5 40  1  0  0  0
  6  7  1  0  0  0
  6 41  1  0  0  0
  6 42  1  0  0  0
  7  8  1  0  0  0
  7 43  1  0  0  0
  8  9  2  0  0  0
  8 10  1  0  0  0
 10 11  2  0  0  0
 10 19  1  0  0  0
 11 12  1  0  0  0
 11 44  1  0  0  0
 12 13  2  0  0  0
 12 45  1  0  0  0
 13 14  1  0  0  0
 13 18  1  0  0  0
 14 15  1  0  0  0
 14 46  1  0  0  0
 15 16  2  0  0  0
 15 17  1  0  0  0
 17 18  1  0  0  0
 17 20  2  0  0  0
 18 19  2  0  0  0
 19 47  1  0  0  0
 20 21  1  0  0  0
 21 22  1  0  0  0
 21 48  1  0  0  0
 22 23  2  0  0  0
 22 27  1  0  0  0
 23 24  1  0  0  0
 23 49  1  0  0  0
 24 25  2  0  0  0
 24 50  1  0  0  0
 25 26  1  0  0  0
 25 28  1  0  0  0
 26 27  2  0  0  0
 26 51  1  0  0  0
 27 52  1  0  0  0
 28 29  1  0  0  0
 28 30  2  0  0  0
 28 31  2  0  0  0
 29 53  1  0  0  0
 29 54  1  0  0  0
M  END
> <s_m_entry_id>
32682

> <s_m_entry_name>
dock_pv.83

> <s_m_Source_Path>
/home/csk/Desktop/cluster/DUD-E-result/cdk2

> <s_m_Source_File>
dock_pv.maegz

> <i_m_Source_File_Index>
83

> <chembl_id>
CHEMBL410072

> <chembl_pref_name>
GW301784X

> <i_lp_mmshare_version>
53161

> <i_f3d_flags>
0

> <r_lp_tautomer_probability>
1

> <s_lp_Force_Field>
OPLS_2005

> <r_lp_Energy>
54.951532

> <b_lp_Chiralities_Consistent>
1

> <s_lp_Variant>
CHEMBL301_lig348-1

> <s_i_glide_gridfile>
glide-grid_1h00

> <i_i_glide_lignum>
528

> <i_i_glide_rotatable_bonds>
9

> <r_i_docking_score>
-8.2654245160868

> <r_i_glide_ligand_efficiency>
-0.266626597293123

> <r_i_glide_ligand_efficiency_sa>
-0.837575633190825

> <r_i_glide_ligand_efficiency_ln>
-1.86410653321823

> <r_i_glide_gscore>
-8.2654245160868

> <r_i_glide_lipo>
-2.23292427890914

> <r_i_glide_hbond>
-0.799039910447389

> <r_i_glide_metal>
0

> <r_i_glide_rewards>
-2.11164786854167

> <r_i_glide_evdw>
-40.9312782287598

> <r_i_glide_ecoul>
-10.1275949478149

> <r_i_glide_erotb>
0.494005615360952

> <r_i_glide_esite>
-0.0501149199393191

> <r_i_glide_emodel>
-71.5614664471101

> <r_i_glide_energy>
-51.0588731765747

> <r_i_glide_einternal>
8.99371147155762

> <i_i_glide_confnum>
2

> <i_i_glide_posenum>
258

> <r_i_glide_eff_state_penalty>
0

> <s_user_duplicate_titles>
CHEMBL301_lig348,440636,226935

> <s_m_subgroup_title>
dock_pv

> <s_m_subgroupid>
dock_pv

> <b_m_subgroup_collapsed>
1

$$$$
CHEMBL301_lig1474
                    3D
 Schrodinger Suite 2021-1.
 46 48  0  0  1  0            999 V2000
   -3.9160   30.4442    9.5541 C   0  0  0  0  0  0
   -2.5129   30.4058    9.3760 O   0  0  0  0  0  0
   -1.7241   29.6353   10.2084 C   0  0  0  0  0  0
   -2.2451   28.8634   11.2630 C   0  0  0  0  0  0
   -1.4235   28.0266   12.0109 C   0  0  0  0  0  0
   -1.9420   27.2583   12.9944 F   0  0  0  0  0  0
   -0.0678   27.9604   11.7286 C   0  0  0  0  0  0
    0.4623   28.7364   10.7047 C   0  0  0  0  0  0
   -0.3420   29.5992    9.9393 C   0  0  0  0  0  0
    0.2826   30.4318    8.8574 C   0  0  0  0  0  0
    1.3061   29.8375    8.1873 N   0  0  0  0  0  0
    1.9266   30.5186    7.1989 C   0  0  0  0  0  0
    2.8580   29.8520    6.3926 N   0  0  0  0  0  0
    3.6580   28.7151    6.6007 C   0  0  0  0  0  0
    4.1896   28.4148    7.8567 C   0  0  0  0  0  0
    5.0095   27.2985    8.0153 C   0  0  0  0  0  0
    5.2673   26.4517    6.9398 C   0  0  0  0  0  0
    4.7317   26.7341    5.6829 C   0  0  0  0  0  0
    4.9136   25.7449    4.5411 C   0  0  0  0  0  0
    6.3806   26.1184    3.4236 S   0  0  1  0  0  0
    6.4580   24.8540    2.5760 N   0  0  0  0  0  0
    6.2756   27.4722    2.8720 O   0  0  0  0  0  0
    7.9152   25.9371    4.4901 C   0  0  0  0  0  0
    3.9812   27.9011    5.5067 C   0  0  0  0  0  0
    1.6580   31.8062    6.8728 N   0  0  0  0  0  0
    0.6891   32.4225    7.5951 C   0  0  0  0  0  0
   -0.0548   31.7696    8.5760 C   0  0  0  0  0  0
   -0.9771   32.4644    9.2820 F   0  0  0  0  0  0
   -4.3420   31.0902    8.7898 H   0  0  0  0  0  0
   -4.3420   29.4520    9.4175 H   0  0  0  0  0  0
   -4.1911   30.8457   10.5307 H   0  0  0  0  0  0
   -3.2945   28.8862   11.5110 H   0  0  0  0  0  0
    0.5735   27.3066   12.3010 H   0  0  0  0  0  0
    1.5220   28.6521   10.5090 H   0  0  0  0  0  0
    3.3442   30.5132    5.7928 H   0  0  0  0  0  0
    3.9839   29.0520    8.7037 H   0  0  0  0  0  0
    5.4362   27.0710    8.9760 H   0  0  0  0  0  0
    5.8688   25.5675    7.0925 H   0  0  0  0  0  0
    4.0324   25.7266    3.9001 H   0  0  0  0  0  0
    5.0530   24.7331    4.9204 H   0  0  0  0  0  0
    5.8421   24.8887    1.7654 H   0  0  0  0  0  0
    7.9533   24.9231    4.8841 H   0  0  0  0  0  0
    7.8625   26.6520    5.3075 H   0  0  0  0  0  0
    8.7901   26.1356    3.8726 H   0  0  0  0  0  0
    3.5903   28.1398    4.5298 H   0  0  0  0  0  0
    0.4873   33.4520    7.3610 H   0  0  0  0  0  0
  1  2  1  0  0  0
  1 29  1  0  0  0
  1 30  1  0  0  0
  1 31  1  0  0  0
  2  3  1  0  0  0
  3  4  2  0  0  0
  3  9  1  0  0  0
  4  5  1  0  0  0
  4 32  1  0  0  0
  5  6  1  0  0  0
  5  7  2  0  0  0
  7  8  1  0  0  0
  7 33  1  0  0  0
  8  9  2  0  0  0
  8 34  1  0  0  0
  9 10  1  0  0  0
 10 11  2  0  0  0
 10 27  1  0  0  0
 11 12  1  0  0  0
 12 13  1  0  0  0
 12 25  2  0  0  0
 13 14  1  0  0  0
 13 35  1  0  0  0
 14 15  2  0  0  0
 14 24  1  0  0  0
 15 16  1  0  0  0
 15 36  1  0  0  0
 16 17  2  0  0  0
 16 37  1  0  0  0
 17 18  1  0  0  0
 17 38  1  0  0  0
 18 19  1  0  0  0
 18 24  2  0  0  0
 19 20  1  0  0  0
 19 39  1  0  0  0
 19 40  1  0  0  0
 20 21  2  0  0  0
 20 22  2  0  0  0
 20 23  1  0  0  0
 21 41  1  0  0  0
 23 42  1  0  0  0
 23 43  1  0  0  0
 23 44  1  0  0  0
 24 45  1  0  0  0
 25 26  1  0  0  0
 26 27  2  0  0  0
 26 46  1  0  0  0
 27 28  1  0  0  0
M  END
> <s_m_entry_id>
32683

> <s_m_entry_name>
dock_pv.84

> <s_m_Source_Path>
/home/csk/Desktop/cluster/DUD-E-result/cdk2

> <s_m_Source_File>
dock_pv.maegz

> <i_m_Source_File_Index>
84

> <chembl_id>
CHEMBL3965161

> <chembl_pref_name>
None

> <i_lp_mmshare_version>
53161

> <i_f3d_flags>
0

> <r_lp_tautomer_probability>
0.999999987636

> <s_lp_Force_Field>
OPLS_2005

> <r_lp_Energy>
13.850298

> <b_lp_Chiralities_Consistent>
1

> <s_lp_Variant>
CHEMBL301_lig1474-2

> <s_i_glide_gridfile>
glide-grid_1h00

> <i_i_glide_lignum>
1989

> <i_i_glide_rotatable_bonds>
6

> <r_i_docking_score>
-8.26301570979811

> <r_i_glide_ligand_efficiency>
-0.295107703921361

> <r_i_glide_ligand_efficiency_sa>
-0.8961207982478

> <r_i_glide_ligand_efficiency_ln>
-1.90734663850482

> <r_i_glide_gscore>
-8.26301570979811

> <r_i_glide_lipo>
-2.6779375743903

> <r_i_glide_hbond>
-0.550993937611692

> <r_i_glide_metal>
0

> <r_i_glide_rewards>
-2.56862401505931

> <r_i_glide_evdw>
-31.8667697906494

> <r_i_glide_ecoul>
-8.08437728881836

> <r_i_glide_erotb>
0.420320824590356

> <r_i_glide_esite>
-0.0797859244719377

> <r_i_glide_emodel>
-59.0203839108123

> <r_i_glide_energy>
-39.9511470794678

> <r_i_glide_einternal>
3.0206344127655

> <i_i_glide_confnum>
218

> <i_i_glide_posenum>
78

> <r_i_glide_eff_state_penalty>
0

> <s_user_duplicate_titles>
CHEMBL301_lig1474

> <s_m_subgroup_title>
dock_pv

> <s_m_subgroupid>
dock_pv

> <b_m_subgroup_collapsed>
1

$$$$
CHEMBL301_lig704
                    3D
 Schrodinger Suite 2021-1.
 47 50  0  0  1  0            999 V2000
    0.5026   30.5693    8.1289 C   0  0  0  0  0  0
   -0.1982   31.7610    8.2369 C   0  0  0  0  0  0
    0.5805   32.6519    7.5446 N   0  0  0  0  0  0
    1.6580   32.1020    6.9760 N   0  0  0  0  0  0
    1.6593   30.8530    7.3769 C   0  0  0  0  0  0
    2.7520   30.0586    7.0834 N   0  0  0  0  0  0
    3.1766   28.9994    7.7966 C   0  0  0  0  0  0
    4.5615   28.4248    7.4145 C   0  0  2  0  0  0
    2.5479   28.5114    8.7386 O   0  0  0  0  0  0
   -1.4915   32.1655    8.9148 C   0  0  0  0  0  0
   -2.5651   31.1425    9.2029 C   0  0  0  0  0  0
   -1.7759   31.7567   10.3385 C   0  0  0  0  0  0
    4.4905   27.1898    6.5062 C   0  0  0  0  0  0
    4.5209   27.3483    5.1162 C   0  0  0  0  0  0
    4.5696   26.2305    4.2855 C   0  0  0  0  0  0
    4.5815   24.9526    4.8499 C   0  0  0  0  0  0
    4.4950   24.7813    6.2284 C   0  0  0  0  0  0
    4.4580   25.8977    7.0531 C   0  0  0  0  0  0
    5.3850   28.1363    8.6782 C   0  0  0  0  0  0
    4.6841   23.8237    4.0381 N   0  0  0  0  0  0
    3.5214   23.0771    3.5692 C   0  0  0  0  0  0
    4.0924   21.8612    2.8701 C   0  0  0  0  0  0
    5.5168   22.2583    2.5474 C   0  0  0  0  0  0
    5.8546   23.4136    3.4858 C   0  0  0  0  0  0
    6.9875   23.8565    3.6758 O   0  0  0  0  0  0
    0.2359   29.6238    8.5765 H   0  0  0  0  0  0
    0.3543   33.6320    7.4114 H   0  0  0  0  0  0
    3.4290   30.4769    6.4527 H   0  0  0  0  0  0
    5.1117   29.1883    6.8605 H   0  0  0  0  0  0
   -1.8463   33.1542    8.6257 H   0  0  0  0  0  0
   -2.3923   30.0923    8.9759 H   0  0  0  0  0  0
   -3.6071   31.4310    9.0636 H   0  0  0  0  0  0
   -2.2780   32.4674   10.9956 H   0  0  0  0  0  0
   -1.0457   31.1412   10.8661 H   0  0  0  0  0  0
    4.5473   28.3358    4.6791 H   0  0  0  0  0  0
    4.6253   26.3511    3.2127 H   0  0  0  0  0  0
    4.4836   23.7918    6.6604 H   0  0  0  0  0  0
    4.4137   25.7454    8.1209 H   0  0  0  0  0  0
    4.8270   27.5174    9.3760 H   0  0  0  0  0  0
    6.2996   27.5871    8.4598 H   0  0  0  0  0  0
    5.6473   29.0558    9.1931 H   0  0  0  0  0  0
    2.8693   22.7968    4.3978 H   0  0  0  0  0  0
    2.9395   23.6939    2.8828 H   0  0  0  0  0  0
    3.5112   21.5794    1.9906 H   0  0  0  0  0  0
    4.0940   21.0102    3.5539 H   0  0  0  0  0  0
    5.5887   22.6453    1.5293 H   0  0  0  0  0  0
    6.2224   21.4333    2.6440 H   0  0  0  0  0  0
  1  2  2  0  0  0
  1  5  1  0  0  0
  1 26  1  0  0  0
  2  3  1  0  0  0
  2 10  1  0  0  0
  3  4  1  0  0  0
  3 27  1  0  0  0
  4  5  2  0  0  0
  5  6  1  0  0  0
  6  7  1  0  0  0
  6 28  1  0  0  0
  7  8  1  0  0  0
  7  9  2  0  0  0
  8 13  1  0  0  0
  8 19  1  0  0  0
  8 29  1  0  0  0
 10 11  1  0  0  0
 10 12  1  0  0  0
 10 30  1  0  0  0
 11 12  1  0  0  0
 11 31  1  0  0  0
 11 32  1  0  0  0
 12 33  1  0  0  0
 12 34  1  0  0  0
 13 14  2  0  0  0
 13 18  1  0  0  0
 14 15  1  0  0  0
 14 35  1  0  0  0
 15 16  2  0  0  0
 15 36  1  0  0  0
 16 17  1  0  0  0
 16 20  1  0  0  0
 17 18  2  0  0  0
 17 37  1  0  0  0
 18 38  1  0  0  0
 19 39  1  0  0  0
 19 40  1  0  0  0
 19 41  1  0  0  0
 20 21  1  0  0  0
 20 24  1  0  0  0
 21 22  1  0  0  0
 21 42  1  0  0  0
 21 43  1  0  0  0
 22 23  1  0  0  0
 22 44  1  0  0  0
 22 45  1  0  0  0
 23 24  1  0  0  0
 23 46  1  0  0  0
 23 47  1  0  0  0
 24 25  2  0  0  0
M  END
> <s_m_entry_id>
32684

> <s_m_entry_name>
dock_pv.85

> <s_m_Source_Path>
/home/csk/Desktop/cluster/DUD-E-result/cdk2

> <s_m_Source_File>
dock_pv.maegz

> <i_m_Source_File_Index>
85

> <chembl_id>
CHEMBL191144

> <chembl_pref_name>
None

> <i_lp_mmshare_version>
53161

> <i_f3d_flags>
0

> <r_lp_tautomer_probability>
0.5

> <s_lp_Force_Field>
OPLS_2005

> <r_lp_Energy>
38.395691

> <b_lp_Chiralities_Consistent>
1

> <s_lp_Variant>
CHEMBL301_lig704-1

> <s_i_glide_gridfile>
glide-grid_1h00

> <i_i_glide_lignum>
992

> <i_i_glide_rotatable_bonds>
6

> <r_i_docking_score>
-8.25591695409619

> <r_i_glide_ligand_efficiency>
-0.330236678163848

> <r_i_glide_ligand_efficiency_sa>
-0.965617903723516

> <r_i_glide_ligand_efficiency_ln>
-1.95689972798716

> <r_i_glide_gscore>
-8.25591695409619

> <r_i_glide_lipo>
-2.70608448300574

> <r_i_glide_hbond>
-0.864

> <r_i_glide_metal>
0

> <r_i_glide_rewards>
-2.65119647848722

> <r_i_glide_evdw>
-29.0661010742188

> <r_i_glide_ecoul>
-7.92625141143799

> <r_i_glide_erotb>
0.693595607311079

> <r_i_glide_esite>
-0.0859888344876788

> <r_i_glide_emodel>
-47.4705864137132

> <r_i_glide_energy>
-36.9923524856567

> <r_i_glide_einternal>
11.815260887146

> <i_i_glide_confnum>
3

> <i_i_glide_posenum>
304

> <r_i_glide_eff_state_penalty>
0

> <s_user_duplicate_titles>
CHEMBL301_lig704,321258,321046

> <s_m_subgroup_title>
dock_pv

> <s_m_subgroupid>
dock_pv

> <b_m_subgroup_collapsed>
1

$$$$
CHEMBL301_lig203
                    3D
 Schrodinger Suite 2021-1.
 38 40  0  0  1  0            999 V2000
   -2.3749   29.8544   10.3957 C   0  0  0  0  0  0
   -2.9792   31.0916   10.1759 C   0  0  0  0  0  0
   -2.3040   32.0840    9.4774 C   0  0  0  0  0  0
   -1.0940   29.5717    9.8931 C   0  0  0  0  0  0
   -0.4546   30.5587    9.1040 C   0  0  0  0  0  0
   -1.0589   31.7945    8.9430 C   0  0  0  0  0  0
   -0.2670   32.6093    8.1793 N   0  0  0  0  0  0
    0.8139   31.9674    7.7356 C   0  0  0  0  0  0
    0.7844   30.6282    8.3299 C   0  0  0  0  0  0
    1.6581   32.4293    6.9760 O   0  0  0  0  0  0
    1.6777   29.7230    8.2194 N   0  0  0  0  0  0
    2.7911   29.8521    7.3761 N   0  0  0  0  0  0
    3.7165   28.8270    7.1949 C   0  0  0  0  0  0
    4.0646   28.4180    5.9059 C   0  0  0  0  0  0
    4.9942   27.3963    5.7246 C   0  0  0  0  0  0
    5.6050   26.8194    6.8396 C   0  0  0  0  0  0
    5.2583   27.2295    8.1226 C   0  0  0  0  0  0
    4.3051   28.2206    8.3028 C   0  0  0  0  0  0
    6.8749   25.5768    6.6684 S   0  0  0  0  0  0
    7.6140   25.8520    5.1169 N   0  0  0  0  0  0
    7.8907   25.8513    7.6901 O   0  0  0  0  0  0
    6.1959   24.2794    6.6095 O   0  0  0  0  0  0
   -0.4869   28.2295   10.2289 C   0  0  0  0  0  0
   -1.1417   27.1913   10.1754 O   0  0  0  0  0  0
    0.7694   28.2357   10.6717 N   0  0  0  0  0  0
   -2.9085   29.1223   10.9881 H   0  0  0  0  0  0
   -3.9609   31.2948   10.5767 H   0  0  0  0  0  0
   -2.7510   33.0531    9.3416 H   0  0  0  0  0  0
   -0.4681   33.5672    7.9293 H   0  0  0  0  0  0
    2.7488   30.6333    6.7291 H   0  0  0  0  0  0
    3.6157   28.8893    5.0455 H   0  0  0  0  0  0
    5.2638   27.0855    4.7253 H   0  0  0  0  0  0
    5.7441   26.7880    8.9759 H   0  0  0  0  0  0
    4.0472   28.5355    9.3027 H   0  0  0  0  0  0
    8.3422   26.5717    5.1542 H   0  0  0  0  0  0
    7.9491   24.9954    4.6699 H   0  0  0  0  0  0
    1.3085   29.0873   10.6552 H   0  0  0  0  0  0
    1.1943   27.3738   10.9790 H   0  0  0  0  0  0
  1  2  2  0  0  0
  1  4  1  0  0  0
  1 26  1  0  0  0
  2  3  1  0  0  0
  2 27  1  0  0  0
  3  6  2  0  0  0
  3 28  1  0  0  0
  4  5  2  0  0  0
  4 23  1  0  0  0
  5  9  1  0  0  0
  5  6  1  0  0  0
  6  7  1  0  0  0
  7  8  1  0  0  0
  7 29  1  0  0  0
  8  9  1  0  0  0
  8 10  2  0  0  0
  9 11  2  0  0  0
 11 12  1  0  0  0
 12 13  1  0  0  0
 12 30  1  0  0  0
 13 14  2  0  0  0
 13 18  1  0  0  0
 14 15  1  0  0  0
 14 31  1  0  0  0
 15 16  2  0  0  0
 15 32  1  0  0  0
 16 17  1  0  0  0
 16 19  1  0  0  0
 17 18  2  0  0  0
 17 33  1  0  0  0
 18 34  1  0  0  0
 19 20  1  0  0  0
 19 21  2  0  0  0
 19 22  2  0  0  0
 20 35  1  0  0  0
 20 36  1  0  0  0
 23 24  2  0  0  0
 23 25  1  0  0  0
 25 37  1  0  0  0
 25 38  1  0  0  0
M  END
> <s_m_entry_id>
32685

> <s_m_entry_name>
dock_pv.86

> <s_m_Source_Path>
/home/csk/Desktop/cluster/DUD-E-result/cdk2

> <s_m_Source_File>
dock_pv.maegz

> <i_m_Source_File_Index>
86

> <chembl_id>
CHEMBL271778

> <chembl_pref_name>
None

> <i_lp_mmshare_version>
53161

> <i_f3d_flags>
0

> <r_lp_tautomer_probability>
1

> <s_lp_Force_Field>
OPLS_2005

> <r_lp_Energy>
50.744712

> <b_lp_Chiralities_Consistent>
1

> <s_lp_Variant>
CHEMBL301_lig203-1

> <s_i_glide_gridfile>
glide-grid_1h00

> <i_i_glide_lignum>
345

> <i_i_glide_rotatable_bonds>
4

> <r_i_docking_score>
-8.25318088014477

> <r_i_glide_ligand_efficiency>
-0.330127235205791

> <r_i_glide_ligand_efficiency_sa>
-0.965297890573179

> <r_i_glide_ligand_efficiency_ln>
-1.95625119646715

> <r_i_glide_gscore>
-8.25318088014477

> <r_i_glide_lipo>
-2.1299051807715

> <r_i_glide_hbond>
-0.44701489815801

> <r_i_glide_metal>
0

> <r_i_glide_rewards>
-2.52481014242705

> <r_i_glide_evdw>
-39.2032585144043

> <r_i_glide_ecoul>
-9.13617515563965

> <r_i_glide_erotb>
0.207782728096269

> <r_i_glide_esite>
-0.0286441878183134

> <r_i_glide_emodel>
-66.6392805566824

> <r_i_glide_energy>
-48.3394336700439

> <r_i_glide_einternal>
8.69165420532227

> <i_i_glide_confnum>
3

> <i_i_glide_posenum>
252

> <r_i_glide_eff_state_penalty>
0

> <s_user_duplicate_titles>
CHEMBL301_lig203

> <s_m_subgroup_title>
dock_pv

> <s_m_subgroupid>
dock_pv

> <b_m_subgroup_collapsed>
1

$$$$
CHEMBL301_lig708
                    3D
 Schrodinger Suite 2021-1.
 46 49  0  0  1  0            999 V2000
    0.6313   30.4703    8.1119 C   0  0  0  0  0  0
   -0.0140   31.6999    8.1807 C   0  0  0  0  0  0
    0.8116   32.5436    7.4880 N   0  0  0  0  0  0
    1.8787   31.9355    6.9750 N   0  0  0  0  0  0
    1.8091   30.6911    7.3763 C   0  0  0  0  0  0
    2.8580   29.8520    7.0631 N   0  0  0  0  0  0
    3.2579   28.7731    7.7650 C   0  0  0  0  0  0
    4.6104   28.1491    7.3489 C   0  0  2  0  0  0
    2.6395   28.3138    8.7289 O   0  0  0  0  0  0
   -1.2892   32.1870    8.8384 C   0  0  0  0  0  0
   -2.4833   31.2734    8.9611 C   0  0  0  0  0  0
   -1.6952   31.6642   10.1944 C   0  0  0  0  0  0
    4.4895   26.7868    6.6530 C   0  0  0  0  0  0
    4.4580   26.7181    5.2582 C   0  0  0  0  0  0
    4.3841   25.4831    4.6166 C   0  0  0  0  0  0
    4.3475   24.2868    5.3538 C   0  0  0  0  0  0
    4.3704   24.3706    6.7548 C   0  0  0  0  0  0
    4.4390   25.6007    7.3942 C   0  0  0  0  0  0
    5.5053   28.0628    8.5861 C   0  0  0  0  0  0
    4.2229   23.0411    4.6710 N   0  0  0  0  0  0
    3.9992   22.9588    3.2298 C   0  0  0  0  0  0
    3.8819   21.4907    2.9536 C   0  0  0  0  0  0
    4.5890   20.9949    4.0981 N   0  0  0  0  0  0
    4.5798   21.8136    5.1619 C   0  0  0  0  0  0
    4.7992   21.4590    6.3189 O   0  0  0  0  0  0
    0.3124   29.5433    8.5651 H   0  0  0  0  0  0
    0.6355   33.5333    7.3521 H   0  0  0  0  0  0
    3.5297   30.2564    6.4199 H   0  0  0  0  0  0
    5.1094   28.8239    6.6493 H   0  0  0  0  0  0
   -1.5092   33.2386    8.6487 H   0  0  0  0  0  0
   -2.4081   30.2526    8.5910 H   0  0  0  0  0  0
   -3.4754   31.6955    8.8091 H   0  0  0  0  0  0
   -2.1502   32.3517   10.9086 H   0  0  0  0  0  0
   -1.0632   30.9203   10.6816 H   0  0  0  0  0  0
    4.4985   27.6209    4.6660 H   0  0  0  0  0  0
    4.3589   25.4755    3.5362 H   0  0  0  0  0  0
    4.2939   23.4974    7.3811 H   0  0  0  0  0  0
    4.4369   25.6167    8.4739 H   0  0  0  0  0  0
    5.0226   27.4951    9.3760 H   0  0  0  0  0  0
    6.4529   27.5588    8.3926 H   0  0  0  0  0  0
    5.6579   29.0613    8.9860 H   0  0  0  0  0  0
    3.0890   23.4935    2.9552 H   0  0  0  0  0  0
    4.8402   23.3992    2.6902 H   0  0  0  0  0  0
    4.4108   21.2337    2.0346 H   0  0  0  0  0  0
    2.8573   21.1197    2.9066 H   0  0  0  0  0  0
    5.1854   20.1832    4.0456 H   0  0  0  0  0  0
  1  2  2  0  0  0
  1  5  1  0  0  0
  1 26  1  0  0  0
  2  3  1  0  0  0
  2 10  1  0  0  0
  3  4  1  0  0  0
  3 27  1  0  0  0
  4  5  2  0  0  0
  5  6  1  0  0  0
  6  7  1  0  0  0
  6 28  1  0  0  0
  7  8  1  0  0  0
  7  9  2  0  0  0
  8 13  1  0  0  0
  8 19  1  0  0  0
  8 29  1  0  0  0
 10 11  1  0  0  0
 10 12  1  0  0  0
 10 30  1  0  0  0
 11 12  1  0  0  0
 11 31  1  0  0  0
 11 32  1  0  0  0
 12 33  1  0  0  0
 12 34  1  0  0  0
 13 14  2  0  0  0
 13 18  1  0  0  0
 14 15  1  0  0  0
 14 35  1  0  0  0
 15 16  2  0  0  0
 15 36  1  0  0  0
 16 17  1  0  0  0
 16 20  1  0  0  0
 17 18  2  0  0  0
 17 37  1  0  0  0
 18 38  1  0  0  0
 19 39  1  0  0  0
 19 40  1  0  0  0
 19 41  1  0  0  0
 20 21  1  0  0  0
 20 24  1  0  0  0
 21 22  1  0  0  0
 21 42  1  0  0  0
 21 43  1  0  0  0
 22 23  1  0  0  0
 22 44  1  0  0  0
 22 45  1  0  0  0
 23 24  1  0  0  0
 23 46  1  0  0  0
 24 25  2  0  0  0
M  END
> <s_m_entry_id>
32686

> <s_m_entry_name>
dock_pv.87

> <s_m_Source_Path>
/home/csk/Desktop/cluster/DUD-E-result/cdk2

> <s_m_Source_File>
dock_pv.maegz

> <i_m_Source_File_Index>
87

> <chembl_id>
CHEMBL192602

> <chembl_pref_name>
None

> <i_lp_mmshare_version>
53161

> <i_f3d_flags>
0

> <r_lp_tautomer_probability>
0.5

> <s_lp_Force_Field>
OPLS_2005

> <r_lp_Energy>
52.540219

> <b_lp_Chiralities_Consistent>
1

> <s_lp_Variant>
CHEMBL301_lig708-1

> <s_i_glide_gridfile>
glide-grid_1h00

> <i_i_glide_lignum>
1000

> <i_i_glide_rotatable_bonds>
6

> <r_i_docking_score>
-8.25182729420606

> <r_i_glide_ligand_efficiency>
-0.330073091768243

> <r_i_glide_ligand_efficiency_sa>
-0.965139574201549

> <r_i_glide_ligand_efficiency_ln>
-1.95593035603598

> <r_i_glide_gscore>
-8.25182729420606

> <r_i_glide_lipo>
-2.66307957221309

> <r_i_glide_hbond>
-0.846444017286968

> <r_i_glide_metal>
0

> <r_i_glide_rewards>
-2.73582815416813

> <r_i_glide_evdw>
-29.7761077880859

> <r_i_glide_ecoul>
-7.88718461990356

> <r_i_glide_erotb>
0.690021216856171

> <r_i_glide_esite>
-0.0246136850042144

> <r_i_glide_emodel>
-52.9523811896327

> <r_i_glide_energy>
-37.6632924079895

> <r_i_glide_einternal>
6.94570255279541

> <i_i_glide_confnum>
78

> <i_i_glide_posenum>
6

> <r_i_glide_eff_state_penalty>
0

> <s_user_duplicate_titles>
CHEMBL301_lig708,321246,320872

> <s_m_subgroup_title>
dock_pv

> <s_m_subgroupid>
dock_pv

> <b_m_subgroup_collapsed>
1

$$$$
CHEMBL301_lig192
                    3D
 Schrodinger Suite 2021-1.
 38 41  0  0  1  0            999 V2000
    0.6855   30.2337    8.6677 C   0  0  0  0  0  0
    0.8797   31.4331    7.7760 C   0  0  0  0  0  0
   -0.5377   30.4114    9.2719 C   0  0  0  0  0  0
   -1.1838   29.4755   10.0967 C   0  0  0  0  0  0
   -0.4566   28.2750   10.3551 C   0  0  0  0  0  0
    1.4284   29.0776    8.9761 C   0  0  0  0  0  0
   -0.1189   32.2719    8.1347 N   0  0  0  0  0  0
   -1.0528   31.6382    8.9338 C   0  0  0  0  0  0
    0.8316   28.1203    9.8193 C   0  0  0  0  0  0
   -1.1623   26.8908   11.3213 S   0  0  1  0  0  0
    2.7985   28.7398    8.4711 C   0  0  0  0  0  0
    3.3462   29.2337    7.3122 N   0  0  0  0  0  0
   -2.4863   29.8481   10.5425 C   0  0  0  0  0  0
    1.7582   31.6682    6.9503 O   0  0  0  0  0  0
   -2.3109   32.0028    9.3938 C   0  0  0  0  0  0
    3.7470   27.8515    8.9759 C   0  0  0  0  0  0
   -0.3084   25.6592   11.0091 O   0  0  0  0  0  0
    4.5650   28.6522    7.0679 C   0  0  0  0  0  0
    4.8427   27.7981    8.1139 C   0  0  0  0  0  0
   -3.0280   31.0924   10.1760 C   0  0  0  0  0  0
   -0.6232   27.5190   12.9822 C   0  0  0  0  0  0
   -3.2192   29.0139   11.3083 F   0  0  0  0  0  0
   -2.3419   26.4772   14.4158 N   0  0  0  0  0  0
   -0.9202   26.5486   14.1338 C   0  0  0  0  0  0
   -0.2082   33.2084    7.7673 H   0  0  0  0  0  0
    1.3619   27.2058   10.0409 H   0  0  0  0  0  0
    2.9171   29.9398    6.7271 H   0  0  0  0  0  0
   -2.7414   32.9619    9.1515 H   0  0  0  0  0  0
    3.6574   27.2775    9.8876 H   0  0  0  0  0  0
    5.1358   28.9278    6.1922 H   0  0  0  0  0  0
    5.7298   27.1964    8.2465 H   0  0  0  0  0  0
   -4.0079   31.3633   10.5410 H   0  0  0  0  0  0
    0.4567   27.4101   12.8687 H   0  0  0  0  0  0
   -0.6322   28.5829   13.2196 H   0  0  0  0  0  0
   -2.5188   26.0728   15.3214 H   0  0  0  0  0  0
   -2.7735   27.4015   14.4172 H   0  0  0  0  0  0
   -0.6622   25.5481   13.7814 H   0  0  0  0  0  0
   -0.2412   26.6520   14.9812 H   0  0  0  0  0  0
  1  2  1  0  0  0
  1  3  2  0  0  0
  1  6  1  0  0  0
  2  7  1  0  0  0
  2 14  2  0  0  0
  3  4  1  0  0  0
  3  8  1  0  0  0
  4 13  1  0  0  0
  4  5  2  0  0  0
  5  9  1  0  0  0
  5 10  1  0  0  0
  6  9  2  0  0  0
  6 11  1  0  0  0
  7  8  1  0  0  0
  7 25  1  0  0  0
  8 15  2  0  0  0
  9 26  1  0  0  0
 10 17  2  0  0  0
 10 21  1  0  0  0
 11 12  1  0  0  0
 11 16  2  0  0  0
 12 18  1  0  0  0
 12 27  1  0  0  0
 13 22  1  0  0  0
 13 20  2  0  0  0
 15 20  1  0  0  0
 15 28  1  0  0  0
 16 19  1  0  0  0
 16 29  1  0  0  0
 18 19  2  0  0  0
 18 30  1  0  0  0
 19 31  1  0  0  0
 20 32  1  0  0  0
 21 24  1  0  0  0
 21 33  1  0  0  0
 21 34  1  0  0  0
 23 24  1  0  0  0
 23 35  1  0  0  0
 23 36  1  0  0  0
 24 37  1  0  0  0
 24 38  1  0  0  0
M  END
> <s_m_entry_id>
32687

> <s_m_entry_name>
dock_pv.88

> <s_m_Source_Path>
/home/csk/Desktop/cluster/DUD-E-result/cdk2

> <s_m_Source_File>
dock_pv.maegz

> <i_m_Source_File_Index>
88

> <chembl_id>
CHEMBL79356

> <chembl_pref_name>
None

> <i_lp_mmshare_version>
53161

> <i_f3d_flags>
0

> <r_lp_tautomer_probability>
1

> <s_lp_Force_Field>
OPLS_2005

> <r_lp_Energy>
52.806181

> <b_lp_Chiralities_Consistent>
1

> <s_lp_Variant>
CHEMBL301_lig192-2

> <s_i_glide_gridfile>
glide-grid_1h00

> <i_i_glide_lignum>
334

> <i_i_glide_rotatable_bonds>
4

> <r_i_docking_score>
-8.24339641730038

> <r_i_glide_ligand_efficiency>
-0.343474850720849

> <r_i_glide_ligand_efficiency_sa>
-0.990752910677536

> <r_i_glide_ligand_efficiency_ln>
-1.97302302747351

> <r_i_glide_gscore>
-8.24339641730038

> <r_i_glide_lipo>
-3.03915315995714

> <r_i_glide_hbond>
-0.318613070432613

> <r_i_glide_metal>
0

> <r_i_glide_rewards>
-2.70743868815879

> <r_i_glide_evdw>
-36.6469993591309

> <r_i_glide_ecoul>
-5.10723495483398

> <r_i_glide_erotb>
0.482774592784915

> <r_i_glide_esite>
-0.0625308803551126

> <r_i_glide_emodel>
-57.5533555369017

> <r_i_glide_energy>
-41.7542343139648

> <r_i_glide_einternal>
2.91514492034912

> <i_i_glide_confnum>
13

> <i_i_glide_posenum>
198

> <r_i_glide_eff_state_penalty>
0

> <s_user_duplicate_titles>
CHEMBL301_lig192,131438

> <s_m_subgroup_title>
dock_pv

> <s_m_subgroupid>
dock_pv

> <b_m_subgroup_collapsed>
1

$$$$
CHEMBL301_lig537
                    3D
 Schrodinger Suite 2021-1.
 37 40  0  0  1  0            999 V2000
    8.5419   25.5271    6.6881 N   0  0  0  0  0  0
    7.0279   24.8824    6.1183 S   0  0  0  0  0  0
    6.6993   23.7393    6.9757 O   0  0  0  0  0  0
    7.1313   24.7440    4.6632 O   0  0  0  0  0  0
    5.8468   26.1716    6.4762 C   0  0  0  0  0  0
    5.4409   27.0512    5.4716 C   0  0  0  0  0  0
    4.6126   28.1236    5.7889 C   0  0  0  0  0  0
    4.1584   28.2895    7.0959 C   0  0  0  0  0  0
    3.3476   29.3911    7.3724 N   0  0  0  0  0  0
    2.2218   29.4073    8.1630 C   0  0  0  0  0  0
    1.2472   30.3384    8.1978 C   0  0  0  0  0  0
    1.2581   31.5340    7.3759 C   0  0  0  0  0  0
    2.0576   31.8521    6.5037 O   0  0  0  0  0  0
    0.2133   32.2731    7.7763 N   0  0  0  0  0  0
   -0.5808   31.6121    8.6875 C   0  0  0  0  0  0
   -1.7836   32.0115    9.2660 C   0  0  0  0  0  0
   -2.4299   31.1710   10.1759 C   0  0  0  0  0  0
   -1.8306   29.9414   10.5033 C   0  0  0  0  0  0
   -2.3419   29.0373   11.3758 N   0  0  0  0  0  0
   -1.5641   28.0015   11.4992 C   0  0  0  0  0  0
   -0.1097   27.9895   10.5391 S   0  0  0  0  0  0
   -0.5959   29.5621    9.9075 C   0  0  0  0  0  0
    0.0229   30.4078    8.9777 C   0  0  0  0  0  0
    4.5266   27.3806    8.0905 C   0  0  0  0  0  0
    5.3805   26.3276    7.7801 C   0  0  0  0  0  0
    9.0885   24.8501    7.2240 H   0  0  0  0  0  0
    9.0898   25.9815    5.9537 H   0  0  0  0  0  0
    5.8088   26.9423    4.4606 H   0  0  0  0  0  0
    4.3360   28.8278    5.0172 H   0  0  0  0  0  0
    3.4354   30.1363    6.6864 H   0  0  0  0  0  0
    2.1601   28.5417    8.8063 H   0  0  0  0  0  0
    0.0281   33.1935    7.4024 H   0  0  0  0  0  0
   -2.2265   32.9659    9.0187 H   0  0  0  0  0  0
   -3.3608   31.4652   10.6395 H   0  0  0  0  0  0
   -1.7963   27.1805   12.1618 H   0  0  0  0  0  0
    4.1949   27.5027    9.1115 H   0  0  0  0  0  0
    5.6952   25.6544    8.5655 H   0  0  0  0  0  0
  1  2  1  0  0  0
  1 26  1  0  0  0
  1 27  1  0  0  0
  2  3  2  0  0  0
  2  4  2  0  0  0
  2  5  1  0  0  0
  5  6  2  0  0  0
  5 25  1  0  0  0
  6  7  1  0  0  0
  6 28  1  0  0  0
  7  8  2  0  0  0
  7 29  1  0  0  0
  8  9  1  0  0  0
  8 24  1  0  0  0
  9 10  1  0  0  0
  9 30  1  0  0  0
 10 11  2  0  0  0
 10 31  1  0  0  0
 11 12  1  0  0  0
 11 23  1  0  0  0
 12 13  2  0  0  0
 12 14  1  0  0  0
 14 15  1  0  0  0
 14 32  1  0  0  0
 15 16  2  0  0  0
 15 23  1  0  0  0
 16 17  1  0  0  0
 16 33  1  0  0  0
 17 18  2  0  0  0
 17 34  1  0  0  0
 18 19  1  0  0  0
 18 22  1  0  0  0
 19 20  2  0  0  0
 20 21  1  0  0  0
 20 35  1  0  0  0
 21 22  1  0  0  0
 22 23  2  0  0  0
 24 25  2  0  0  0
 24 36  1  0  0  0
 25 37  1  0  0  0
M  END
> <s_m_entry_id>
32688

> <s_m_entry_name>
dock_pv.89

> <s_m_Source_Path>
/home/csk/Desktop/cluster/DUD-E-result/cdk2

> <s_m_Source_File>
dock_pv.maegz

> <i_m_Source_File_Index>
89

> <chembl_id>
CHEMBL271595

> <chembl_pref_name>
GW297361X

> <i_lp_mmshare_version>
53161

> <i_f3d_flags>
0

> <r_lp_tautomer_probability>
0.499999999999422

> <s_lp_Force_Field>
OPLS_2005

> <r_lp_Energy>
42.922879

> <b_lp_Chiralities_Consistent>
1

> <s_lp_Variant>
CHEMBL301_lig537-1

> <s_i_glide_gridfile>
glide-grid_1h00

> <i_i_glide_lignum>
757

> <i_i_glide_rotatable_bonds>
3

> <r_i_docking_score>
-8.23521201294805

> <r_i_glide_ligand_efficiency>
-0.329408480517922

> <r_i_glide_ligand_efficiency_sa>
-0.963196239118681

> <r_i_glide_ligand_efficiency_ln>
-1.95199203645803

> <r_i_glide_gscore>
-8.23521201294805

> <r_i_glide_lipo>
-2.57670744153276

> <r_i_glide_hbond>
-0.596095875186062

> <r_i_glide_metal>
0

> <r_i_glide_rewards>
-2.21003715315909

> <r_i_glide_evdw>
-39.1598091125488

> <r_i_glide_ecoul>
-7.22056818008423

> <r_i_glide_erotb>
0.194951055867634

> <r_i_glide_esite>
-0.0062469162976851

> <r_i_glide_emodel>
-64.9009963625451

> <r_i_glide_energy>
-46.3803772926331

> <r_i_glide_einternal>
7.22483348846436

> <i_i_glide_confnum>
4

> <i_i_glide_posenum>
153

> <r_i_glide_eff_state_penalty>
0

> <s_user_duplicate_titles>
CHEMBL301_lig537,CHEMBL301_lig151,441194,137604

> <s_m_subgroup_title>
dock_pv

> <s_m_subgroupid>
dock_pv

> <b_m_subgroup_collapsed>
1

$$$$
CHEMBL301_lig482
                    3D
 Schrodinger Suite 2021-1.
 63 67  0  0  1  0            999 V2000
    0.4581   32.0306    7.7760 C   0  0  0  0  0  0
   -0.3765   31.3525    8.6643 C   0  0  0  0  0  0
    0.0621   30.0916    9.1324 C   0  0  0  0  0  0
    1.2366   29.5679    8.6750 N   0  0  0  0  0  0
    1.9641   30.2904    7.7825 C   0  0  0  0  0  0
    1.6164   31.5092    7.3086 N   0  0  0  0  0  0
   -0.6159   29.2362   10.1814 C   0  0  0  0  0  0
   -2.0783   28.5366   11.7763 N   0  0  0  0  0  0
   -1.7614   29.5411   10.9060 C   0  0  0  0  0  0
   -1.1599   27.5232   11.6736 C   0  0  0  0  0  0
   -0.2003   27.9353   10.6926 C   0  0  0  0  0  0
    0.8801   27.0651   10.4418 C   0  0  0  0  0  0
    0.9647   25.8503   11.1187 C   0  0  0  0  0  0
    0.0029   25.4794   12.0517 C   0  0  0  0  0  0
   -1.0782   26.3047   12.3566 C   0  0  0  0  0  0
   -1.8508   32.1310    9.1227 Cl  0  0  0  0  0  0
    3.2259   29.8520    7.3759 N   0  0  0  0  0  0
    3.6615   28.4738    7.3756 C   0  0  0  0  0  0
    4.0677   28.1169    5.9271 C   0  0  0  0  0  0
    4.7289   26.7223    5.7984 C   0  0  0  0  0  0
    5.8427   26.6519    6.7765 N   0  0  0  0  0  0
    5.4605   26.9143    8.1760 C   0  0  0  0  0  0
    4.8802   28.3349    8.2739 C   0  0  0  0  0  0
    6.9789   25.9332    6.5501 C   0  0  0  0  0  0
    7.6505   25.4519    7.4700 O   0  0  0  0  0  0
    7.3677   25.8513    5.2576 N   0  0  0  0  0  0
    8.5768   25.2185    4.9059 N   0  0  1  0  0  0
    8.4678   24.5683    3.5935 C   0  0  0  0  0  0
    9.7447   23.7516    3.2960 C   0  0  0  0  0  0
   11.0038   24.6349    3.3752 C   0  0  0  0  0  0
   11.0323   25.2913    4.7678 C   0  0  0  0  0  0
    9.7450   26.1069    5.0210 C   0  0  0  0  0  0
   12.2919   23.8544    3.0628 C   0  0  0  0  0  0
    0.1987   33.0163    7.4148 H   0  0  0  0  0  0
   -2.8604   28.6033   12.4196 H   0  0  0  0  0  0
   -2.3984   30.4117   10.9079 H   0  0  0  0  0  0
    1.6547   27.3237    9.7384 H   0  0  0  0  0  0
    1.7987   25.1922   10.9208 H   0  0  0  0  0  0
    0.1038   24.5319   12.5601 H   0  0  0  0  0  0
   -1.8146   26.0131   13.0908 H   0  0  0  0  0  0
    3.7741   30.4946    6.8038 H   0  0  0  0  0  0
    2.8601   27.8520    7.7676 H   0  0  0  0  0  0
    4.7575   28.8658    5.5292 H   0  0  0  0  0  0
    3.1944   28.1609    5.2777 H   0  0  0  0  0  0
    5.0639   26.6202    4.7656 H   0  0  0  0  0  0
    4.0060   25.9417    6.0385 H   0  0  0  0  0  0
    4.7134   26.1827    8.4870 H   0  0  0  0  0  0
    6.3097   26.8695    8.8604 H   0  0  0  0  0  0
    4.5930   28.5291    9.3078 H   0  0  0  0  0  0
    5.6473   29.0720    8.0274 H   0  0  0  0  0  0
    7.0347   26.5010    4.5617 H   0  0  0  0  0  0
    8.3162   25.3260    2.8208 H   0  0  0  0  0  0
    7.5986   23.9078    3.5812 H   0  0  0  0  0  0
    9.6770   23.3022    2.3040 H   0  0  0  0  0  0
    9.8126   22.8978    3.9723 H   0  0  0  0  0  0
   10.8904   25.4326    2.6391 H   0  0  0  0  0  0
   11.1758   24.5496    5.5559 H   0  0  0  0  0  0
   11.9110   25.9309    4.8501 H   0  0  0  0  0  0
    9.6582   26.9213    4.2994 H   0  0  0  0  0  0
    9.7833   26.5561    6.0152 H   0  0  0  0  0  0
   12.4475   23.0363    3.7674 H   0  0  0  0  0  0
   13.1637   24.5090    3.1095 H   0  0  0  0  0  0
   12.2592   23.4319    2.0583 H   0  0  0  0  0  0
  1  6  1  0  0  0
  1  2  2  0  0  0
  1 34  1  0  0  0
  2 16  1  0  0  0
  2  3  1  0  0  0
  3  4  2  0  0  0
  3  7  1  0  0  0
  4  5  1  0  0  0
  5 17  1  0  0  0
  5  6  2  0  0  0
  7 11  1  0  0  0
  7  9  2  0  0  0
  8 10  1  0  0  0
  8  9  1  0  0  0
  8 35  1  0  0  0
  9 36  1  0  0  0
 10 11  2  0  0  0
 10 15  1  0  0  0
 11 12  1  0  0  0
 12 13  2  0  0  0
 12 37  1  0  0  0
 13 14  1  0  0  0
 13 38  1  0  0  0
 14 15  2  0  0  0
 14 39  1  0  0  0
 15 40  1  0  0  0
 17 18  1  0  0  0
 17 41  1  0  0  0
 18 19  1  0  0  0
 18 23  1  0  0  0
 18 42  1  0  0  0
 19 20  1  0  0  0
 19 43  1  0  0  0
 19 44  1  0  0  0
 20 21  1  0  0  0
 20 45  1  0  0  0
 20 46  1  0  0  0
 21 22  1  0  0  0
 21 24  1  0  0  0
 22 23  1  0  0  0
 22 47  1  0  0  0
 22 48  1  0  0  0
 23 49  1  0  0  0
 23 50  1  0  0  0
 24 25  2  0  0  0
 24 26  1  0  0  0
 26 27  1  0  0  0
 26 51  1  0  0  0
 27 28  1  0  0  0
 27 32  1  0  0  0
 28 29  1  0  0  0
 28 52  1  0  0  0
 28 53  1  0  0  0
 29 30  1  0  0  0
 29 54  1  0  0  0
 29 55  1  0  0  0
 30 31  1  0  0  0
 30 33  1  0  0  0
 30 56  1  0  0  0
 31 32  1  0  0  0
 31 57  1  0  0  0
 31 58  1  0  0  0
 32 59  1  0  0  0
 32 60  1  0  0  0
 33 61  1  0  0  0
 33 62  1  0  0  0
 33 63  1  0  0  0
M  END
> <s_m_entry_id>
32690

> <s_m_entry_name>
dock_pv.91

> <s_m_Source_Path>
/home/csk/Desktop/cluster/DUD-E-result/cdk2

> <s_m_Source_File>
dock_pv.maegz

> <i_m_Source_File_Index>
91

> <chembl_id>
CHEMBL245935

> <chembl_pref_name>
None

> <i_lp_mmshare_version>
53161

> <i_f3d_flags>
0

> <r_lp_tautomer_probability>
0.999999987636

> <s_lp_Force_Field>
OPLS_2005

> <r_lp_Energy>
46.234902

> <b_lp_Chiralities_Consistent>
1

> <s_lp_Variant>
CHEMBL301_lig482-1

> <s_i_glide_gridfile>
glide-grid_1h00

> <i_i_glide_lignum>
673

> <i_i_glide_rotatable_bonds>
6

> <r_i_docking_score>
-8.22927246784426

> <r_i_glide_ligand_efficiency>
-0.249371892964977

> <r_i_glide_ligand_efficiency_sa>
-0.799868906688961

> <r_i_glide_ligand_efficiency_ln>
-1.8301475879561

> <r_i_glide_gscore>
-8.22927246784426

> <r_i_glide_lipo>
-2.92611848419773

> <r_i_glide_hbond>
-0.404987801574975

> <r_i_glide_metal>
0

> <r_i_glide_rewards>
-1.73142831042777

> <r_i_glide_evdw>
-46.6933937072754

> <r_i_glide_ecoul>
-8.75285816192627

> <r_i_glide_erotb>
0.553010403472822

> <r_i_glide_esite>
-0.0721498654638813

> <r_i_glide_emodel>
-77.7175916677117

> <r_i_glide_energy>
-55.4462518692017

> <r_i_glide_einternal>
7.2481050491333

> <i_i_glide_confnum>
6

> <i_i_glide_posenum>
398

> <r_i_glide_eff_state_penalty>
0

> <s_user_duplicate_titles>
CHEMBL301_lig482

> <s_m_subgroup_title>
dock_pv

> <s_m_subgroupid>
dock_pv

> <b_m_subgroup_collapsed>
1

$$$$
CHEMBL301_lig1402
                    3D
 Schrodinger Suite 2021-1.
 46 47  0  0  1  0            999 V2000
   -1.0810   29.4514   13.1358 C   0  0  0  0  0  0
    0.0722   29.0434   12.2068 C   0  0  0  0  0  0
   -0.3626   28.1310   11.0445 C   0  0  2  0  0  0
   -1.5390   29.0742   10.0265 S   0  0  0  0  0  0
   -0.6073   30.2755    9.1242 C   0  0  0  0  0  0
    0.5424   29.8515    8.5476 N   0  0  0  0  0  0
    1.2298   30.7267    7.7760 C   0  0  0  0  0  0
    2.3943   30.2938    7.1221 N   0  0  0  0  0  0
    3.1782   29.1310    7.2378 C   0  0  0  0  0  0
    3.9210   28.7277    6.1260 C   0  0  0  0  0  0
    4.7670   27.6307    6.1902 C   0  0  0  0  0  0
    4.8467   26.8942    7.3694 C   0  0  0  0  0  0
    4.0590   27.2550    8.4677 C   0  0  0  0  0  0
    3.2579   28.3895    8.4172 C   0  0  0  0  0  0
    5.9321   25.4717    7.4651 S   0  0  1  0  0  0
    6.9094   25.8521    8.5758 N   0  0  0  0  0  0
    5.1215   24.2517    7.4531 O   0  0  0  0  0  0
    7.0664   25.5056    5.9651 C   0  0  0  0  0  0
    0.8603   32.0202    7.5756 N   0  0  0  0  0  0
   -0.2567   32.4463    8.2248 C   0  0  0  0  0  0
   -1.0421   31.5990    9.0085 C   0  0  0  0  0  0
   -2.6096   32.2521    9.8753 Br  0  0  0  0  0  0
   -0.8950   26.7451   11.5076 C   0  0  1  0  0  0
   -1.2039   25.7783   10.3502 C   0  0  0  0  0  0
    0.0584   26.0876   12.3243 O   0  0  0  0  0  0
   -0.7507   30.2520   13.7760 H   0  0  0  0  0  0
   -1.9414   29.8423   12.5940 H   0  0  0  0  0  0
   -1.4262   28.6271   13.7602 H   0  0  0  0  0  0
    0.8580   28.5719   12.7888 H   0  0  0  0  0  0
    0.5267   29.9469   11.7964 H   0  0  0  0  0  0
    0.5164   27.9484   10.4249 H   0  0  0  0  0  0
    2.8281   31.0037    6.5483 H   0  0  0  0  0  0
    3.8772   29.2910    5.2100 H   0  0  0  0  0  0
    5.3458   27.3700    5.3180 H   0  0  0  0  0  0
    4.0580   26.6731    9.3695 H   0  0  0  0  0  0
    2.6940   28.6705    9.2926 H   0  0  0  0  0  0
    6.4578   25.8522    9.4970 H   0  0  0  0  0  0
    7.5528   26.4798    5.9098 H   0  0  0  0  0  0
    7.8167   24.7255    6.0841 H   0  0  0  0  0  0
    6.4774   25.3167    5.0693 H   0  0  0  0  0  0
   -0.5247   33.4838    8.1083 H   0  0  0  0  0  0
   -1.8017   26.8874   12.0985 H   0  0  0  0  0  0
   -1.9416   26.1915    9.6660 H   0  0  0  0  0  0
   -1.6028   24.8326   10.7197 H   0  0  0  0  0  0
   -0.3089   25.5565    9.7685 H   0  0  0  0  0  0
    0.5571   26.7469   12.8169 H   0  0  0  0  0  0
  1  2  1  0  0  0
  1 26  1  0  0  0
  1 27  1  0  0  0
  1 28  1  0  0  0
  2  3  1  0  0  0
  2 29  1  0  0  0
  2 30  1  0  0  0
  3  4  1  0  0  0
  3 23  1  0  0  0
  3 31  1  0  0  0
  4  5  1  0  0  0
  5  6  2  0  0  0
  5 21  1  0  0  0
  6  7  1  0  0  0
  7  8  1  0  0  0
  7 19  2  0  0  0
  8  9  1  0  0  0
  8 32  1  0  0  0
  9 10  2  0  0  0
  9 14  1  0  0  0
 10 11  1  0  0  0
 10 33  1  0  0  0
 11 12  2  0  0  0
 11 34  1  0  0  0
 12 13  1  0  0  0
 12 15  1  0  0  0
 13 14  2  0  0  0
 13 35  1  0  0  0
 14 36  1  0  0  0
 15 16  2  0  0  0
 15 17  2  0  0  0
 15 18  1  0  0  0
 16 37  1  0  0  0
 18 38  1  0  0  0
 18 39  1  0  0  0
 18 40  1  0  0  0
 19 20  1  0  0  0
 20 21  2  0  0  0
 20 41  1  0  0  0
 21 22  1  0  0  0
 23 24  1  0  0  0
 23 25  1  0  0  0
 23 42  1  0  0  0
 24 43  1  0  0  0
 24 44  1  0  0  0
 24 45  1  0  0  0
 25 46  1  0  0  0
M  END
> <s_m_entry_id>
32691

> <s_m_entry_name>
dock_pv.92

> <s_m_Source_Path>
/home/csk/Desktop/cluster/DUD-E-result/cdk2

> <s_m_Source_File>
dock_pv.maegz

> <i_m_Source_File_Index>
92

> <chembl_id>
CHEMBL3648103

> <chembl_pref_name>
None

> <i_lp_mmshare_version>
53161

> <i_f3d_flags>
0

> <r_lp_tautomer_probability>
0.999999987636

> <s_lp_Force_Field>
OPLS_2005

> <r_lp_Energy>
4.244052

> <b_lp_Chiralities_Consistent>
1

> <s_lp_Variant>
CHEMBL301_lig1402-7

> <s_i_glide_gridfile>
glide-grid_1h00

> <i_i_glide_lignum>
1910

> <i_i_glide_rotatable_bonds>
8

> <r_i_docking_score>
-8.21038219137905

> <r_i_glide_ligand_efficiency>
-0.328415287655162

> <r_i_glide_ligand_efficiency_sa>
-0.96029212557362

> <r_i_glide_ligand_efficiency_ln>
-1.94610662465647

> <r_i_glide_gscore>
-8.21038219137905

> <r_i_glide_lipo>
-3.01608150224963

> <r_i_glide_hbond>
-0.450433129412298

> <r_i_glide_metal>
0

> <r_i_glide_rewards>
-1.64372420117

> <r_i_glide_evdw>
-35.9301109313965

> <r_i_glide_ecoul>
-12.0527839660645

> <r_i_glide_erotb>
0.504279782932378

> <r_i_glide_esite>
0

> <r_i_glide_emodel>
-68.9359035265558

> <r_i_glide_energy>
-47.9828948974609

> <r_i_glide_einternal>
6.20562219619751

> <i_i_glide_confnum>
68

> <i_i_glide_posenum>
292

> <r_i_glide_eff_state_penalty>
0

> <s_user_duplicate_titles>
CHEMBL301_lig1402

> <s_m_subgroup_title>
dock_pv

> <s_m_subgroupid>
dock_pv

> <b_m_subgroup_collapsed>
1

$$$$
CHEMBL301_lig154
                    3D
 Schrodinger Suite 2021-1.
 35 37  0  0  1  0            999 V2000
   -1.8808   30.1015   10.4911 C   0  0  0  0  0  0
   -2.4186   31.3545   10.1764 C   0  0  0  0  0  0
   -1.7661   32.1939    9.2712 C   0  0  0  0  0  0
   -0.6899   29.6749    9.8934 C   0  0  0  0  0  0
   -0.0510   30.5127    8.9764 C   0  0  0  0  0  0
   -0.5841   31.7496    8.6828 C   0  0  0  0  0  0
    0.2404   32.3756    7.7760 N   0  0  0  0  0  0
    1.2491   31.5860    7.3759 C   0  0  0  0  0  0
    1.1800   30.3966    8.2052 C   0  0  0  0  0  0
    2.0575   31.8523    6.4944 O   0  0  0  0  0  0
    2.1278   29.4377    8.1747 C   0  0  0  0  0  0
    3.2580   29.4074    7.3870 N   0  0  0  0  0  0
    4.0581   28.3026    7.1020 C   0  0  0  0  0  0
    4.4583   27.4114    8.0988 C   0  0  0  0  0  0
    5.3083   26.3589    7.7763 C   0  0  0  0  0  0
    5.7333   26.1865    6.4606 C   0  0  0  0  0  0
    5.2897   27.0482    5.4552 C   0  0  0  0  0  0
    4.4687   28.1215    5.7829 C   0  0  0  0  0  0
    6.9064   24.8934    6.0901 S   0  0  0  0  0  0
    8.4387   25.5451    6.6022 N   0  0  0  0  0  0
    6.6055   23.7639    6.9760 O   0  0  0  0  0  0
    6.9681   24.7281    4.6356 O   0  0  0  0  0  0
   -2.3863   29.4685   11.2069 H   0  0  0  0  0  0
   -3.3342   31.6794   10.6498 H   0  0  0  0  0  0
   -2.1809   33.1638    9.0433 H   0  0  0  0  0  0
   -0.2792   28.7090   10.1483 H   0  0  0  0  0  0
    0.0776   33.2945    7.3884 H   0  0  0  0  0  0
    2.0421   28.5706    8.8151 H   0  0  0  0  0  0
    3.3510   30.1510    6.7000 H   0  0  0  0  0  0
    4.1556   27.5502    9.1267 H   0  0  0  0  0  0
    5.6526   25.6983    8.5603 H   0  0  0  0  0  0
    5.6241   26.9221    4.4349 H   0  0  0  0  0  0
    4.1637   28.8134    5.0108 H   0  0  0  0  0  0
    9.0660   24.8207    6.9549 H   0  0  0  0  0  0
    8.8934   26.0962    5.8695 H   0  0  0  0  0  0
  1  2  2  0  0  0
  1  4  1  0  0  0
  1 23  1  0  0  0
  2  3  1  0  0  0
  2 24  1  0  0  0
  3  6  2  0  0  0
  3 25  1  0  0  0
  4  5  2  0  0  0
  4 26  1  0  0  0
  5  6  1  0  0  0
  5  9  1  0  0  0
  6  7  1  0  0  0
  7  8  1  0  0  0
  7 27  1  0  0  0
  8  9  1  0  0  0
  8 10  2  0  0  0
  9 11  2  0  0  0
 11 12  1  0  0  0
 11 28  1  0  0  0
 12 13  1  0  0  0
 12 29  1  0  0  0
 13 14  2  0  0  0
 13 18  1  0  0  0
 14 15  1  0  0  0
 14 30  1  0  0  0
 15 16  2  0  0  0
 15 31  1  0  0  0
 16 17  1  0  0  0
 16 19  1  0  0  0
 17 18  2  0  0  0
 17 32  1  0  0  0
 18 33  1  0  0  0
 19 20  1  0  0  0
 19 21  2  0  0  0
 19 22  2  0  0  0
 20 34  1  0  0  0
 20 35  1  0  0  0
M  END
> <s_m_entry_id>
32692

> <s_m_entry_name>
dock_pv.93

> <s_m_Source_Path>
/home/csk/Desktop/cluster/DUD-E-result/cdk2

> <s_m_Source_File>
dock_pv.maegz

> <i_m_Source_File_Index>
93

> <chembl_id>
CHEMBL269850

> <chembl_pref_name>
None

> <i_lp_mmshare_version>
53161

> <i_f3d_flags>
0

> <r_lp_tautomer_probability>
0.499999999999422

> <s_lp_Force_Field>
OPLS_2005

> <r_lp_Energy>
39.227704

> <b_lp_Chiralities_Consistent>
1

> <s_lp_Variant>
CHEMBL301_lig154-1

> <s_i_glide_gridfile>
glide-grid_1h00

> <i_i_glide_lignum>
294

> <i_i_glide_rotatable_bonds>
3

> <r_i_docking_score>
-8.20527667933786

> <r_i_glide_ligand_efficiency>
-0.372967121788084

> <r_i_glide_ligand_efficiency_sa>
-1.04506854321477

> <r_i_glide_ligand_efficiency_ln>
-2.00566891516909

> <r_i_glide_gscore>
-8.20527667933786

> <r_i_glide_lipo>
-2.37821146914218

> <r_i_glide_hbond>
-0.65984982200534

> <r_i_glide_metal>
0

> <r_i_glide_rewards>
-2.53848479949631

> <r_i_glide_evdw>
-34.3452339172363

> <r_i_glide_ecoul>
-7.78151321411133

> <r_i_glide_erotb>
0.261873689554049

> <r_i_glide_esite>
-0.00611560026956519

> <r_i_glide_emodel>
-61.0761828043945

> <r_i_glide_energy>
-42.1267471313477

> <r_i_glide_einternal>
4.89148473739624

> <i_i_glide_confnum>
2

> <i_i_glide_posenum>
203

> <r_i_glide_eff_state_penalty>
0

> <s_user_duplicate_titles>
CHEMBL301_lig154,441009,136482

> <s_m_subgroup_title>
dock_pv

> <s_m_subgroupid>
dock_pv

> <b_m_subgroup_collapsed>
1

$$$$
CHEMBL301_lig175
                    3D
 Schrodinger Suite 2021-1.
 35 37  0  0  1  0            999 V2000
   -1.8341   29.9412   10.4701 C   0  0  0  0  0  0
   -2.3900   31.1906   10.1765 C   0  0  0  0  0  0
   -1.7579   32.0474    9.2742 C   0  0  0  0  0  0
   -0.6420   29.5406    9.8551 C   0  0  0  0  0  0
   -0.0091   30.3964    8.9461 C   0  0  0  0  0  0
   -0.5724   31.6296    8.6725 C   0  0  0  0  0  0
    0.2250   32.2966    7.7771 N   0  0  0  0  0  0
    1.2539   31.5439    7.3760 C   0  0  0  0  0  0
    1.2253   30.3138    8.1786 C   0  0  0  0  0  0
    2.0576   31.8523    6.5050 O   0  0  0  0  0  0
    2.1139   29.3931    8.2124 N   0  0  0  0  0  0
    3.2537   29.4517    7.3871 N   0  0  0  0  0  0
    4.0602   28.3557    7.0898 C   0  0  0  0  0  0
    4.5004   27.4928    8.0937 C   0  0  0  0  0  0
    5.3518   26.4399    7.7772 C   0  0  0  0  0  0
    5.7437   26.2366    6.4558 C   0  0  0  0  0  0
    5.2619   27.0663    5.4414 C   0  0  0  0  0  0
    4.4418   28.1422    5.7654 C   0  0  0  0  0  0
    6.9256   24.9506    6.0863 S   0  0  0  0  0  0
    8.4512   25.6181    6.5976 N   0  0  0  0  0  0
    6.6335   23.8221    6.9760 O   0  0  0  0  0  0
    6.9860   24.7856    4.6315 O   0  0  0  0  0  0
   -2.4537   29.1157   11.3704 O   0  0  0  0  0  0
   -3.3075   31.5040   10.6536 H   0  0  0  0  0  0
   -2.1896   33.0142    9.0604 H   0  0  0  0  0  0
   -0.2176   28.5777   10.0990 H   0  0  0  0  0  0
    0.0469   33.2225    7.4110 H   0  0  0  0  0  0
    3.2306   30.2280    6.7289 H   0  0  0  0  0  0
    4.2120   27.6547    9.1227 H   0  0  0  0  0  0
    5.7199   25.8024    8.5698 H   0  0  0  0  0  0
    5.5685   26.9185    4.4157 H   0  0  0  0  0  0
    4.1078   28.8118    4.9860 H   0  0  0  0  0  0
    9.0141   24.9724    7.1557 H   0  0  0  0  0  0
    8.9744   26.0722    5.8463 H   0  0  0  0  0  0
   -3.1198   29.5760   11.9064 H   0  0  0  0  0  0
  1  2  2  0  0  0
  1  4  1  0  0  0
  1 23  1  0  0  0
  2  3  1  0  0  0
  2 24  1  0  0  0
  3  6  2  0  0  0
  3 25  1  0  0  0
  4  5  2  0  0  0
  4 26  1  0  0  0
  5  9  1  0  0  0
  5  6  1  0  0  0
  6  7  1  0  0  0
  7  8  1  0  0  0
  7 27  1  0  0  0
  8  9  1  0  0  0
  8 10  2  0  0  0
  9 11  2  0  0  0
 11 12  1  0  0  0
 12 13  1  0  0  0
 12 28  1  0  0  0
 13 14  2  0  0  0
 13 18  1  0  0  0
 14 15  1  0  0  0
 14 29  1  0  0  0
 15 16  2  0  0  0
 15 30  1  0  0  0
 16 17  1  0  0  0
 16 19  1  0  0  0
 17 18  2  0  0  0
 17 31  1  0  0  0
 18 32  1  0  0  0
 19 20  1  0  0  0
 19 21  2  0  0  0
 19 22  2  0  0  0
 20 33  1  0  0  0
 20 34  1  0  0  0
 23 35  1  0  0  0
M  END
> <s_m_entry_id>
32693

> <s_m_entry_name>
dock_pv.94

> <s_m_Source_Path>
/home/csk/Desktop/cluster/DUD-E-result/cdk2

> <s_m_Source_File>
dock_pv.maegz

> <i_m_Source_File_Index>
94

> <chembl_id>
CHEMBL409690

> <chembl_pref_name>
None

> <i_lp_mmshare_version>
53161

> <i_f3d_flags>
0

> <r_lp_tautomer_probability>
1

> <s_lp_Force_Field>
OPLS_2005

> <r_lp_Energy>
43.443836

> <b_lp_Chiralities_Consistent>
1

> <s_lp_Variant>
CHEMBL301_lig175-1

> <s_i_glide_gridfile>
glide-grid_1h00

> <i_i_glide_lignum>
316

> <i_i_glide_rotatable_bonds>
4

> <r_i_docking_score>
-8.19083621321164

> <r_i_glide_ligand_efficiency>
-0.356123313617897

> <r_i_glide_ligand_efficiency_sa>
-1.01276733129475

> <r_i_glide_ligand_efficiency_ln>
-1.9806184667511

> <r_i_glide_gscore>
-8.19083621321164

> <r_i_glide_lipo>
-1.94347531141209

> <r_i_glide_hbond>
-0.661414246996896

> <r_i_glide_metal>
0

> <r_i_glide_rewards>
-2.73445779866208

> <r_i_glide_evdw>
-34.9563674926758

> <r_i_glide_ecoul>
-8.91578483581543

> <r_i_glide_erotb>
0.238724247709085

> <r_i_glide_esite>
-0.00502700384356201

> <r_i_glide_emodel>
-64.5583769850277

> <r_i_glide_energy>
-43.8721523284912

> <r_i_glide_einternal>
2.86047410964966

> <i_i_glide_confnum>
1

> <i_i_glide_posenum>
114

> <r_i_glide_eff_state_penalty>
0

> <s_user_duplicate_titles>
CHEMBL301_lig175,441088,137014

> <s_m_subgroup_title>
dock_pv

> <s_m_subgroupid>
dock_pv

> <b_m_subgroup_collapsed>
1

$$$$
CHEMBL301_lig19
                    3D
 Schrodinger Suite 2021-1.
 55 57  0  0  1  0            999 V2000
   -0.3268   24.6407   13.1888 O   0  0  0  0  0  0
   -1.9420   25.3867   10.9509 O   0  0  0  0  0  0
   -1.9421   27.0515   15.4227 O   0  0  0  0  0  0
    1.0592   29.8522    8.7852 N   0  0  0  0  0  0
   -0.2736   28.9292   10.5308 N   0  0  0  0  0  0
    0.4576   26.9835   11.6531 N   0  0  0  0  0  0
    1.0199   30.8601    7.8737 N   0  0  0  0  0  0
    3.2513   29.0706    8.2198 N   0  0  0  0  0  0
   -0.0839   29.8518    9.5923 C   0  0  0  0  0  0
   -0.7560   26.9166   12.4900 C   0  0  2  0  0  0
    0.6750   27.9732   10.6859 C   0  0  0  0  0  0
    2.0702   28.9384    8.9755 C   0  0  0  0  0  0
   -0.8323   30.9927    9.2170 C   0  0  0  0  0  0
   -0.5644   25.9457   13.6911 C   0  0  1  0  0  0
    1.8563   27.9456    9.9410 C   0  0  0  0  0  0
   -0.0695   31.5344    8.1760 C   0  0  0  0  0  0
   -2.1178   31.4956    9.8503 C   0  0  0  0  0  0
   -2.0433   26.6033   11.6739 C   0  0  0  0  0  0
   -1.7532   25.8586   14.6797 C   0  0  0  0  0  0
    4.4377   28.2339    8.3699 C   0  0  0  0  0  0
   -3.3483   31.0623    9.0377 C   0  0  0  0  0  0
   -2.0709   33.0153   10.0788 C   0  0  0  0  0  0
    4.4585   27.1304    7.3246 C   0  0  0  0  0  0
    4.4584   25.7914    7.7242 C   0  0  0  0  0  0
    4.4861   27.4569    5.9634 C   0  0  0  0  0  0
    4.4586   24.7818    6.7645 C   0  0  0  0  0  0
    4.4834   26.4465    5.0055 C   0  0  0  0  0  0
    4.4646   25.1137    5.4108 C   0  0  0  0  0  0
   -0.7663   24.5965   12.3278 H   0  0  0  0  0  0
   -2.8362   25.1042   10.7176 H   0  0  0  0  0  0
   -2.5485   27.6415   14.9485 H   0  0  0  0  0  0
    1.2067   26.3373   11.8503 H   0  0  0  0  0  0
    3.3022   29.8490    7.5759 H   0  0  0  0  0  0
   -0.9000   27.9098   12.9209 H   0  0  0  0  0  0
    0.3280   26.2516   14.2414 H   0  0  0  0  0  0
    2.5933   27.1804   10.1285 H   0  0  0  0  0  0
   -0.3150   32.4415    7.6428 H   0  0  0  0  0  0
   -2.2177   31.0446   10.8404 H   0  0  0  0  0  0
   -2.9312   26.5979   12.3041 H   0  0  0  0  0  0
   -2.2492   27.4061   10.9741 H   0  0  0  0  0  0
   -1.5572   25.0467   15.3774 H   0  0  0  0  0  0
   -2.6826   25.5704   14.1900 H   0  0  0  0  0  0
    5.3189   28.8601    8.2264 H   0  0  0  0  0  0
    4.5188   27.8207    9.3744 H   0  0  0  0  0  0
   -3.4197   29.9760    8.9772 H   0  0  0  0  0  0
   -4.2671   31.4212    9.5026 H   0  0  0  0  0  0
   -3.3183   31.4564    8.0213 H   0  0  0  0  0  0
   -1.2396   33.2940   10.7256 H   0  0  0  0  0  0
   -1.9423   33.5514    9.1404 H   0  0  0  0  0  0
   -2.9857   33.3746   10.5522 H   0  0  0  0  0  0
    4.4462   25.5337    8.7736 H   0  0  0  0  0  0
    4.5020   28.4913    5.6498 H   0  0  0  0  0  0
    4.4392   23.7454    7.0668 H   0  0  0  0  0  0
    4.4977   26.6933    3.9540 H   0  0  0  0  0  0
    4.4573   24.3307    4.6666 H   0  0  0  0  0  0
  1 14  1  0  0  0
  1 29  1  0  0  0
  2 18  1  0  0  0
  2 30  1  0  0  0
  3 19  1  0  0  0
  3 31  1  0  0  0
  4  7  1  0  0  0
  4  9  1  0  0  0
  4 12  1  0  0  0
  5  9  1  0  0  0
  5 11  2  0  0  0
  6 10  1  0  0  0
  6 11  1  0  0  0
  6 32  1  0  0  0
  7 16  2  0  0  0
  8 12  1  0  0  0
  8 20  1  0  0  0
  8 33  1  0  0  0
  9 13  2  0  0  0
 10 14  1  0  0  0
 10 18  1  0  0  0
 10 34  1  0  0  0
 11 15  1  0  0  0
 12 15  2  0  0  0
 13 16  1  0  0  0
 13 17  1  0  0  0
 14 19  1  0  0  0
 14 35  1  0  0  0
 15 36  1  0  0  0
 16 37  1  0  0  0
 17 21  1  0  0  0
 17 22  1  0  0  0
 17 38  1  0  0  0
 18 39  1  0  0  0
 18 40  1  0  0  0
 19 41  1  0  0  0
 19 42  1  0  0  0
 20 23  1  0  0  0
 20 43  1  0  0  0
 20 44  1  0  0  0
 21 45  1  0  0  0
 21 46  1  0  0  0
 21 47  1  0  0  0
 22 48  1  0  0  0
 22 49  1  0  0  0
 22 50  1  0  0  0
 23 24  2  0  0  0
 23 25  1  0  0  0
 24 26  1  0  0  0
 24 51  1  0  0  0
 25 27  2  0  0  0
 25 52  1  0  0  0
 26 28  2  0  0  0
 26 53  1  0  0  0
 27 28  1  0  0  0
 27 54  1  0  0  0
 28 55  1  0  0  0
M  END
> <s_m_entry_id>
32694

> <s_m_entry_name>
dock_pv.95

> <s_m_Source_Path>
/home/csk/Desktop/cluster/DUD-E-result/cdk2

> <s_m_Source_File>
dock_pv.maegz

> <i_m_Source_File_Index>
95

> <chembl_id>
CHEMBL1234833

> <chembl_pref_name>
None

> <i_lp_mmshare_version>
53161

> <i_f3d_flags>
0

> <r_lp_tautomer_probability>
1

> <s_lp_Force_Field>
OPLS_2005

> <r_lp_Energy>
29.532022

> <b_lp_Chiralities_Consistent>
1

> <s_lp_Variant>
CHEMBL301_lig19-1

> <s_i_glide_gridfile>
glide-grid_1h00

> <i_i_glide_lignum>
83

> <i_i_glide_rotatable_bonds>
12

> <r_i_docking_score>
-8.18903790687816

> <r_i_glide_ligand_efficiency>
-0.292465639531363

> <r_i_glide_ligand_efficiency_sa>
-0.888097934667058

> <r_i_glide_ligand_efficiency_ln>
-1.89027038950822

> <r_i_glide_gscore>
-8.18903790687816

> <r_i_glide_lipo>
-3.48177605031036

> <r_i_glide_hbond>
-0.273232786099586

> <r_i_glide_metal>
0

> <r_i_glide_rewards>
-1.74367384376092

> <r_i_glide_evdw>
-43.5794486999512

> <r_i_glide_ecoul>
-10.2925443649292

> <r_i_glide_erotb>
1.04742549580096

> <r_i_glide_esite>
-0.0149266327713073

> <r_i_glide_emodel>
-77.766998187225

> <r_i_glide_energy>
-53.8719930648804

> <r_i_glide_einternal>
8.76120853424072

> <i_i_glide_confnum>
350

> <i_i_glide_posenum>
327

> <r_i_glide_eff_state_penalty>
0

> <s_user_duplicate_titles>
CHEMBL301_lig19

> <s_m_subgroup_title>
dock_pv

> <s_m_subgroupid>
dock_pv

> <b_m_subgroup_collapsed>
1

$$$$
CHEMBL301_lig702
                    3D
 Schrodinger Suite 2021-1.
 36 38  0  0  1  0            999 V2000
    0.6305   30.4760    8.1997 C   0  0  0  0  0  0
    0.0253   31.7206    8.1760 C   0  0  0  0  0  0
    0.8580   32.4604    7.3790 N   0  0  0  0  0  0
    1.9291   31.7881    6.9432 N   0  0  0  0  0  0
    1.8391   30.5967    7.4880 C   0  0  0  0  0  0
    2.8663   29.6747    7.3281 N   0  0  0  0  0  0
    3.1307   28.6520    8.1760 C   0  0  0  0  0  0
    4.3239   27.6901    7.9027 C   0  0  1  0  0  0
    2.4606   28.4340    9.1883 O   0  0  0  0  0  0
   -1.2360   32.2839    8.7980 C   0  0  0  0  0  0
   -2.4593   31.4124    8.9530 C   0  0  0  0  0  0
   -1.6693   31.8369   10.1739 C   0  0  0  0  0  0
    4.4580   27.0773    6.4983 C   0  0  0  0  0  0
    4.6033   27.8660    5.3500 C   0  0  0  0  0  0
    4.7126   27.2608    4.0993 C   0  0  0  0  0  0
    4.6811   25.8746    3.9900 C   0  0  0  0  0  0
    4.5575   25.0798    5.1241 C   0  0  0  0  0  0
    4.4580   25.6805    6.3748 C   0  0  0  0  0  0
    5.6529   28.2520    8.3878 C   0  0  0  0  0  0
    0.2761   29.6065    8.7326 H   0  0  0  0  0  0
    0.6961   33.4300    7.1380 H   0  0  0  0  0  0
    3.5650   29.9183    6.6396 H   0  0  0  0  0  0
    4.1292   26.8508    8.5756 H   0  0  0  0  0  0
   -1.4145   33.3341    8.5622 H   0  0  0  0  0  0
   -3.4405   31.8520    8.7772 H   0  0  0  0  0  0
   -2.4118   30.3728    8.6315 H   0  0  0  0  0  0
   -1.0683   31.0940   10.7005 H   0  0  0  0  0  0
   -2.1046   32.5728   10.8510 H   0  0  0  0  0  0
    4.6471   28.9429    5.4175 H   0  0  0  0  0  0
    4.8269   27.8520    3.2065 H   0  0  0  0  0  0
    4.7614   25.4126    3.0154 H   0  0  0  0  0  0
    4.5389   24.0038    5.0326 H   0  0  0  0  0  0
    4.3579   25.0516    7.2475 H   0  0  0  0  0  0
    6.0235   29.0214    7.7122 H   0  0  0  0  0  0
    5.5494   28.6942    9.3760 H   0  0  0  0  0  0
    6.3933   27.4520    8.4629 H   0  0  0  0  0  0
  1  5  1  0  0  0
  1  2  2  0  0  0
  1 20  1  0  0  0
  2 10  1  0  0  0
  2  3  1  0  0  0
  3  4  1  0  0  0
  3 21  1  0  0  0
  4  5  2  0  0  0
  5  6  1  0  0  0
  6  7  1  0  0  0
  6 22  1  0  0  0
  7  8  1  0  0  0
  7  9  2  0  0  0
  8 13  1  0  0  0
  8 19  1  0  0  0
  8 23  1  0  0  0
 10 11  1  0  0  0
 10 12  1  0  0  0
 10 24  1  0  0  0
 11 12  1  0  0  0
 11 25  1  0  0  0
 11 26  1  0  0  0
 12 27  1  0  0  0
 12 28  1  0  0  0
 13 14  2  0  0  0
 13 18  1  0  0  0
 14 15  1  0  0  0
 14 29  1  0  0  0
 15 16  2  0  0  0
 15 30  1  0  0  0
 16 17  1  0  0  0
 16 31  1  0  0  0
 17 18  2  0  0  0
 17 32  1  0  0  0
 18 33  1  0  0  0
 19 34  1  0  0  0
 19 35  1  0  0  0
 19 36  1  0  0  0
M  END
> <s_m_entry_id>
32695

> <s_m_entry_name>
dock_pv.96

> <s_m_Source_Path>
/home/csk/Desktop/cluster/DUD-E-result/cdk2

> <s_m_Source_File>
dock_pv.maegz

> <i_m_Source_File_Index>
96

> <chembl_id>
CHEMBL365988

> <chembl_pref_name>
None

> <i_lp_mmshare_version>
53161

> <i_f3d_flags>
0

> <r_lp_tautomer_probability>
0.5

> <s_lp_Force_Field>
OPLS_2005

> <r_lp_Energy>
14.570537

> <b_lp_Chiralities_Consistent>
1

> <s_lp_Variant>
CHEMBL301_lig702-1

> <s_i_glide_gridfile>
glide-grid_1h00

> <i_i_glide_lignum>
988

> <i_i_glide_rotatable_bonds>
5

> <r_i_docking_score>
-8.17466565613876

> <r_i_glide_ligand_efficiency>
-0.430245560849408

> <r_i_glide_ligand_efficiency_sa>
-1.14806796279905

> <r_i_glide_ligand_efficiency_ln>
-2.07245331955072

> <r_i_glide_gscore>
-8.17466565613876

> <r_i_glide_lipo>
-2.8172752386879

> <r_i_glide_hbond>
-0.755348561775381

> <r_i_glide_metal>
0

> <r_i_glide_rewards>
-3.32779114897164

> <r_i_glide_evdw>
-27.3368721008301

> <r_i_glide_ecoul>
-4.4240198135376

> <r_i_glide_erotb>
0.756195870368306

> <r_i_glide_esite>
0

> <r_i_glide_emodel>
-47.7222389661537

> <r_i_glide_energy>
-31.7608919143677

> <r_i_glide_einternal>
6.01700353622437

> <i_i_glide_confnum>
8

> <i_i_glide_posenum>
4

> <r_i_glide_eff_state_penalty>
0

> <s_user_duplicate_titles>
CHEMBL301_lig702,320875

> <s_m_subgroup_title>
dock_pv

> <s_m_subgroupid>
dock_pv

> <b_m_subgroup_collapsed>
1

$$$$
CHEMBL301_lig491
                    3D
 Schrodinger Suite 2021-1.
 51 54  0  0  1  0            999 V2000
   -0.0379   32.4685    8.1759 C   0  0  0  0  0  0
   -0.7419   31.6709    9.0808 C   0  0  0  0  0  0
   -0.3192   30.3286    9.2148 C   0  0  0  0  0  0
    0.7178   29.8551    8.4633 N   0  0  0  0  0  0
    1.3384   30.7078    7.6012 C   0  0  0  0  0  0
    0.9869   32.0036    7.4157 N   0  0  0  0  0  0
    2.4579   30.2910    6.8620 N   0  0  0  0  0  0
   -0.8457   29.3289   10.2152 C   0  0  0  0  0  0
   -2.1566   28.3270   11.7760 N   0  0  0  0  0  0
   -2.0246   29.4045   10.9440 C   0  0  0  0  0  0
   -1.0808   27.4873   11.6273 C   0  0  0  0  0  0
   -0.2157   28.0953   10.6610 C   0  0  0  0  0  0
    0.9888   27.4308   10.3578 C   0  0  0  0  0  0
    1.2834   26.2173   10.9751 C   0  0  0  0  0  0
    0.4109   25.6506   11.8982 C   0  0  0  0  0  0
   -0.7867   26.2704   12.2520 C   0  0  0  0  0  0
   -2.0020   32.4124   10.0049 Cl  0  0  0  0  0  0
    3.1496   29.0240    7.0658 C   0  0  2  0  0  0
    4.1447   29.1589    8.2090 C   0  0  0  0  0  0
    4.8199   27.7964    8.4301 C   0  0  0  0  0  0
    5.5183   27.2586    7.1604 C   0  0  0  0  0  0
    4.5839   27.3656    6.0027 N   0  0  0  0  0  0
    3.9421   28.6833    5.7893 C   0  0  0  0  0  0
    4.5723   26.4718    4.9725 C   0  0  0  0  0  0
    4.0664   26.7237    3.8744 O   0  0  0  0  0  0
    5.0784   25.2525    5.2452 N   0  0  0  0  0  0
    5.2286   24.1564    4.2856 C   0  0  0  0  0  0
    3.9032   23.4711    3.9191 C   0  0  0  0  0  0
   -0.2980   33.5084    8.0393 H   0  0  0  0  0  0
    3.0296   31.0254    6.4586 H   0  0  0  0  0  0
   -2.9305   28.2377   12.4243 H   0  0  0  0  0  0
   -2.8046   30.1523   10.9666 H   0  0  0  0  0  0
    1.6929   27.8465    9.6550 H   0  0  0  0  0  0
    2.2132   25.7162   10.7412 H   0  0  0  0  0  0
    0.6757   24.7123   12.3613 H   0  0  0  0  0  0
   -1.4517   25.8254   12.9767 H   0  0  0  0  0  0
    2.4580   28.2523    7.3601 H   0  0  0  0  0  0
    3.5735   29.4384    9.0841 H   0  0  0  0  0  0
    4.8853   29.9413    8.0289 H   0  0  0  0  0  0
    4.0810   27.0680    8.7722 H   0  0  0  0  0  0
    5.5475   27.8603    9.2377 H   0  0  0  0  0  0
    5.7868   26.2277    7.3895 H   0  0  0  0  0  0
    6.4106   27.8518    6.9749 H   0  0  0  0  0  0
    4.6957   29.4437    5.5769 H   0  0  0  0  0  0
    3.2181   28.6560    4.9749 H   0  0  0  0  0  0
    5.4045   25.0763    6.1821 H   0  0  0  0  0  0
    5.9116   23.4211    4.7129 H   0  0  0  0  0  0
    5.7132   24.5258    3.3784 H   0  0  0  0  0  0
    4.0783   22.6202    3.2600 H   0  0  0  0  0  0
    3.2512   24.1542    3.3748 H   0  0  0  0  0  0
    3.3737   23.1058    4.8006 H   0  0  0  0  0  0
  1  2  2  0  0  0
  1  6  1  0  0  0
  1 29  1  0  0  0
  2 17  1  0  0  0
  2  3  1  0  0  0
  3  4  2  0  0  0
  3  8  1  0  0  0
  4  5  1  0  0  0
  5  7  1  0  0  0
  5  6  2  0  0  0
  7 18  1  0  0  0
  7 30  1  0  0  0
  8 12  1  0  0  0
  8 10  2  0  0  0
  9 11  1  0  0  0
  9 10  1  0  0  0
  9 31  1  0  0  0
 10 32  1  0  0  0
 11 16  1  0  0  0
 11 12  2  0  0  0
 12 13  1  0  0  0
 13 14  2  0  0  0
 13 33  1  0  0  0
 14 15  1  0  0  0
 14 34  1  0  0  0
 15 16  2  0  0  0
 15 35  1  0  0  0
 16 36  1  0  0  0
 18 19  1  0  0  0
 18 23  1  0  0  0
 18 37  1  0  0  0
 19 20  1  0  0  0
 19 38  1  0  0  0
 19 39  1  0  0  0
 20 21  1  0  0  0
 20 40  1  0  0  0
 20 41  1  0  0  0
 21 22  1  0  0  0
 21 42  1  0  0  0
 21 43  1  0  0  0
 22 23  1  0  0  0
 22 24  1  0  0  0
 23 44  1  0  0  0
 23 45  1  0  0  0
 24 25  2  0  0  0
 24 26  1  0  0  0
 26 27  1  0  0  0
 26 46  1  0  0  0
 27 28  1  0  0  0
 27 47  1  0  0  0
 27 48  1  0  0  0
 28 49  1  0  0  0
 28 50  1  0  0  0
 28 51  1  0  0  0
M  END
> <s_m_entry_id>
32696

> <s_m_entry_name>
dock_pv.97

> <s_m_Source_Path>
/home/csk/Desktop/cluster/DUD-E-result/cdk2

> <s_m_Source_File>
dock_pv.maegz

> <i_m_Source_File_Index>
97

> <chembl_id>
CHEMBL245335

> <chembl_pref_name>
None

> <i_lp_mmshare_version>
53161

> <i_f3d_flags>
0

> <r_lp_tautomer_probability>
0.999999987636

> <s_lp_Force_Field>
OPLS_2005

> <r_lp_Energy>
30.027875

> <b_lp_Chiralities_Consistent>
1

> <s_lp_Variant>
CHEMBL301_lig491-1

> <s_i_glide_gridfile>
glide-grid_1h00

> <i_i_glide_lignum>
682

> <i_i_glide_rotatable_bonds>
6

> <r_i_docking_score>
-8.16969321116467

> <r_i_glide_ligand_efficiency>
-0.291774757541595

> <r_i_glide_ligand_efficiency_sa>
-0.886000010038393

> <r_i_glide_ligand_efficiency_ln>
-1.8858050657526

> <r_i_glide_gscore>
-8.16969321116467

> <r_i_glide_lipo>
-2.89625412170899

> <r_i_glide_hbond>
-0.358945730762084

> <r_i_glide_metal>
0

> <r_i_glide_rewards>
-2.63908819131194

> <r_i_glide_evdw>
-41.1226196289062

> <r_i_glide_ecoul>
-5.31707382202148

> <r_i_glide_erotb>
0.61557398411359

> <r_i_glide_esite>
-0.0372870967467158

> <r_i_glide_emodel>
-66.0795159872262

> <r_i_glide_energy>
-46.4396934509277

> <r_i_glide_einternal>
2.35582542419434

> <i_i_glide_confnum>
8

> <i_i_glide_posenum>
344

> <r_i_glide_eff_state_penalty>
0

> <s_user_duplicate_titles>
CHEMBL301_lig491

> <s_m_subgroup_title>
dock_pv

> <s_m_subgroupid>
dock_pv

> <b_m_subgroup_collapsed>
1

$$$$
CHEMBL301_lig701
                    3D
 Schrodinger Suite 2021-1.
 36 38  0  0  1  0            999 V2000
    0.2867   30.5556    8.2915 C   0  0  0  0  0  0
   -0.3924   31.7424    8.5188 C   0  0  0  0  0  0
    0.3156   32.6532    7.7762 N   0  0  0  0  0  0
    1.3510   32.1343    7.1113 N   0  0  0  0  0  0
    1.3888   30.8755    7.4773 C   0  0  0  0  0  0
    2.4632   30.0983    7.0946 N   0  0  0  0  0  0
    2.9988   29.1040    7.8393 C   0  0  0  0  0  0
    4.4254   28.6121    7.4678 C   0  0  2  0  0  0
    2.4375   28.6252    8.8282 O   0  0  0  0  0  0
   -1.6198   32.1079    9.3234 C   0  0  0  0  0  0
   -2.8174   31.1886    9.3409 C   0  0  0  0  0  0
   -1.9534   31.3334   10.5756 C   0  0  0  0  0  0
    4.4577   27.5589    6.3505 C   0  0  0  0  0  0
    4.4580   26.1852    6.6344 C   0  0  0  0  0  0
    4.4582   25.2538    5.5985 C   0  0  0  0  0  0
    4.4601   25.6908    4.2756 C   0  0  0  0  0  0
    4.4594   27.0513    3.9806 C   0  0  0  0  0  0
    4.4571   27.9820    5.0160 C   0  0  0  0  0  0
    5.1908   28.1826    8.7342 C   0  0  0  0  0  0
    0.0563   29.5916    8.7189 H   0  0  0  0  0  0
    0.0686   33.6320    7.6851 H   0  0  0  0  0  0
    3.0703   30.5118    6.3982 H   0  0  0  0  0  0
    4.9840   29.4538    7.0675 H   0  0  0  0  0  0
   -1.8313   33.1780    9.3503 H   0  0  0  0  0  0
   -3.8175   31.6200    9.3527 H   0  0  0  0  0  0
   -2.7770   30.2645    8.7688 H   0  0  0  0  0  0
   -1.3070   30.5083   10.8775 H   0  0  0  0  0  0
   -2.3494   31.8767   11.4310 H   0  0  0  0  0  0
    4.4388   25.8324    7.6543 H   0  0  0  0  0  0
    4.4481   24.1966    5.8186 H   0  0  0  0  0  0
    4.4576   24.9720    3.4687 H   0  0  0  0  0  0
    4.4607   27.3779    2.9511 H   0  0  0  0  0  0
    4.4576   29.0371    4.7828 H   0  0  0  0  0  0
    4.6398   27.4511    9.3231 H   0  0  0  0  0  0
    6.1524   27.7367    8.5015 H   0  0  0  0  0  0
    5.3470   29.0470    9.3760 H   0  0  0  0  0  0
  1  5  1  0  0  0
  1  2  2  0  0  0
  1 20  1  0  0  0
  2 10  1  0  0  0
  2  3  1  0  0  0
  3  4  1  0  0  0
  3 21  1  0  0  0
  4  5  2  0  0  0
  5  6  1  0  0  0
  6  7  1  0  0  0
  6 22  1  0  0  0
  7  8  1  0  0  0
  7  9  2  0  0  0
  8 13  1  0  0  0
  8 19  1  0  0  0
  8 23  1  0  0  0
 10 11  1  0  0  0
 10 12  1  0  0  0
 10 24  1  0  0  0
 11 12  1  0  0  0
 11 25  1  0  0  0
 11 26  1  0  0  0
 12 27  1  0  0  0
 12 28  1  0  0  0
 13 14  2  0  0  0
 13 18  1  0  0  0
 14 15  1  0  0  0
 14 29  1  0  0  0
 15 16  2  0  0  0
 15 30  1  0  0  0
 16 17  1  0  0  0
 16 31  1  0  0  0
 17 18  2  0  0  0
 17 32  1  0  0  0
 18 33  1  0  0  0
 19 34  1  0  0  0
 19 35  1  0  0  0
 19 36  1  0  0  0
M  END
> <s_m_entry_id>
32697

> <s_m_entry_name>
dock_pv.98

> <s_m_Source_Path>
/home/csk/Desktop/cluster/DUD-E-result/cdk2

> <s_m_Source_File>
dock_pv.maegz

> <i_m_Source_File_Index>
98

> <chembl_id>
CHEMBL366230

> <chembl_pref_name>
None

> <i_lp_mmshare_version>
53161

> <i_f3d_flags>
0

> <r_lp_tautomer_probability>
0.5

> <s_lp_Force_Field>
OPLS_2005

> <r_lp_Energy>
14.622323

> <b_lp_Chiralities_Consistent>
1

> <s_lp_Variant>
CHEMBL301_lig701-1

> <s_i_glide_gridfile>
glide-grid_1h00

> <i_i_glide_lignum>
986

> <i_i_glide_rotatable_bonds>
5

> <r_i_docking_score>
-8.16843401748931

> <r_i_glide_ligand_efficiency>
-0.429917579867859

> <r_i_glide_ligand_efficiency_sa>
-1.147192777808

> <r_i_glide_ligand_efficiency_ln>
-2.07087346530976

> <r_i_glide_gscore>
-8.16843401748931

> <r_i_glide_lipo>
-2.64060853768407

> <r_i_glide_hbond>
-0.669825633070309

> <r_i_glide_metal>
0

> <r_i_glide_rewards>
-3.19087399316526

> <r_i_glide_evdw>
-30.1025638580322

> <r_i_glide_ecoul>
-6.12129020690918

> <r_i_glide_erotb>
0.756195870368306

> <r_i_glide_esite>
0

> <r_i_glide_emodel>
-48.479488173865

> <r_i_glide_energy>
-36.2238540649414

> <r_i_glide_einternal>
7.87744903564453

> <i_i_glide_confnum>
5

> <i_i_glide_posenum>
12

> <r_i_glide_eff_state_penalty>
0

> <s_user_duplicate_titles>
CHEMBL301_lig701,320876

> <s_m_subgroup_title>
dock_pv

> <s_m_subgroupid>
dock_pv

> <b_m_subgroup_collapsed>
1

$$$$
CHEMBL301_lig321
                    3D
 Schrodinger Suite 2021-1.
 40 43  0  0  1  0            999 V2000
   -2.4150   30.9366   10.1482 C   0  0  0  0  0  0
   -1.7991   31.7985    9.2473 C   0  0  0  0  0  0
    0.0578   30.2502    8.9817 C   0  0  0  0  0  0
   -0.5835   31.4352    8.6824 C   0  0  0  0  0  0
    0.1748   32.1341    7.7760 N   0  0  0  0  0  0
    1.2581   31.4616    7.3760 C   0  0  0  0  0  0
    1.3001   30.2587    8.1955 C   0  0  0  0  0  0
    2.0529   31.8520    6.5263 O   0  0  0  0  0  0
    2.3387   29.3964    8.1587 C   0  0  0  0  0  0
    3.4662   29.4325    7.3755 N   0  0  0  0  0  0
    4.2892   28.3411    7.0860 C   0  0  0  0  0  0
    4.6639   28.1256    5.7606 C   0  0  0  0  0  0
    5.4888   27.0515    5.4387 C   0  0  0  0  0  0
    5.9727   26.2237    6.4532 C   0  0  0  0  0  0
    5.5872   26.4296    7.7760 C   0  0  0  0  0  0
    4.7349   27.4813    8.0926 C   0  0  0  0  0  0
    7.1474   24.9332    6.0805 S   0  0  0  0  0  0
    8.6796   25.5962    6.5770 N   0  0  0  0  0  0
    6.8574   23.8085    6.9760 O   0  0  0  0  0  0
    7.1979   24.7589    4.6265 O   0  0  0  0  0  0
   -1.8029   29.7060   10.4927 C   0  0  0  0  0  0
   -0.5433   29.3460    9.9135 C   0  0  0  0  0  0
   -0.6569   27.2940   11.2337 C   0  0  0  0  0  0
   -1.8726   27.7319   11.7414 C   0  0  0  0  0  0
   -2.4486   28.8990   11.3760 N   0  0  0  0  0  0
    0.0109   28.0945   10.3110 C   0  0  0  0  0  0
   -3.3626   31.2026   10.5962 H   0  0  0  0  0  0
   -2.2752   32.7354    8.9962 H   0  0  0  0  0  0
   -0.0602   33.0438    7.4080 H   0  0  0  0  0  0
    2.3573   28.5337    8.7972 H   0  0  0  0  0  0
    3.5229   30.1747    6.6823 H   0  0  0  0  0  0
    4.3234   28.7896    4.9789 H   0  0  0  0  0  0
    5.7927   26.9008    4.4124 H   0  0  0  0  0  0
    5.9602   25.7933    8.5668 H   0  0  0  0  0  0
    4.4589   27.6405    9.1251 H   0  0  0  0  0  0
    9.2987   24.8892    6.9775 H   0  0  0  0  0  0
    9.1441   26.1178    5.8298 H   0  0  0  0  0  0
   -0.2362   26.3503   11.5491 H   0  0  0  0  0  0
   -2.4195   27.1416   12.4622 H   0  0  0  0  0  0
    0.9431   27.7388    9.9180 H   0  0  0  0  0  0
  1 21  2  0  0  0
  1  2  1  0  0  0
  1 27  1  0  0  0
  2  4  2  0  0  0
  2 28  1  0  0  0
  3 22  2  0  0  0
  3  7  1  0  0  0
  3  4  1  0  0  0
  4  5  1  0  0  0
  5  6  1  0  0  0
  5 29  1  0  0  0
  6  7  1  0  0  0
  6  8  2  0  0  0
  7  9  2  0  0  0
  9 10  1  0  0  0
  9 30  1  0  0  0
 10 11  1  0  0  0
 10 31  1  0  0  0
 11 12  2  0  0  0
 11 16  1  0  0  0
 12 13  1  0  0  0
 12 32  1  0  0  0
 13 14  2  0  0  0
 13 33  1  0  0  0
 14 15  1  0  0  0
 14 17  1  0  0  0
 15 16  2  0  0  0
 15 34  1  0  0  0
 16 35  1  0  0  0
 17 18  1  0  0  0
 17 19  2  0  0  0
 17 20  2  0  0  0
 18 36  1  0  0  0
 18 37  1  0  0  0
 21 22  1  0  0  0
 21 25  1  0  0  0
 22 26  1  0  0  0
 23 26  2  0  0  0
 23 24  1  0  0  0
 23 38  1  0  0  0
 24 25  2  0  0  0
 24 39  1  0  0  0
 26 40  1  0  0  0
M  END
> <s_m_entry_id>
32699

> <s_m_entry_name>
dock_pv.100

> <s_m_Source_Path>
/home/csk/Desktop/cluster/DUD-E-result/cdk2

> <s_m_Source_File>
dock_pv.maegz

> <i_m_Source_File_Index>
100

> <chembl_id>
CHEMBL445945

> <chembl_pref_name>
None

> <i_lp_mmshare_version>
53161

> <i_f3d_flags>
0

> <r_lp_tautomer_probability>
0.499999999999422

> <s_lp_Force_Field>
OPLS_2005

> <r_lp_Energy>
47.267116

> <b_lp_Chiralities_Consistent>
1

> <s_lp_Variant>
CHEMBL301_lig321-1

> <s_i_glide_gridfile>
glide-grid_1h00

> <i_i_glide_lignum>
498

> <i_i_glide_rotatable_bonds>
3

> <r_i_docking_score>
-8.15752493105973

> <r_i_glide_ligand_efficiency>
-0.313750958886913

> <r_i_glide_ligand_efficiency_sa>
-0.929485981152069

> <r_i_glide_ligand_efficiency_ln>
-1.91576796303686

> <r_i_glide_gscore>
-8.15752493105973

> <r_i_glide_lipo>
-2.76679140908893

> <r_i_glide_hbond>
-0.558360813842275

> <r_i_glide_metal>
0

> <r_i_glide_rewards>
-2.0387621815224

> <r_i_glide_evdw>
-38.8183364868164

> <r_i_glide_ecoul>
-7.55493545532227

> <r_i_glide_erotb>
0.286743223803646

> <r_i_glide_esite>
-0.00619660777060958

> <r_i_glide_emodel>
-65.4654913971508

> <r_i_glide_energy>
-46.3732719421387

> <r_i_glide_einternal>
6.61916589736938

> <i_i_glide_confnum>
4

> <i_i_glide_posenum>
59

> <r_i_glide_eff_state_penalty>
0

> <s_user_duplicate_titles>
CHEMBL301_lig321,441189,226552

> <s_m_subgroup_title>
dock_pv

> <s_m_subgroupid>
dock_pv

> <b_m_subgroup_collapsed>
1

$$$$
CHEMBL301_lig1358
                    3D
 Schrodinger Suite 2021-1.
 48 49  0  0  1  0            999 V2000
    1.3270   25.8913   10.4384 C   0  0  0  0  0  0
   -0.0789   25.8212   10.6428 O   0  0  0  0  0  0
   -0.8611   26.8577   10.0476 C   0  0  0  0  0  0
   -0.6078   28.2681   10.6449 C   0  0  1  0  0  0
   -1.2905   29.3175    9.8665 N   0  0  0  0  0  0
   -0.5591   30.2504    9.1097 C   0  0  0  0  0  0
    0.5935   29.8447    8.5238 N   0  0  0  0  0  0
    1.2696   30.7164    7.7425 C   0  0  0  0  0  0
    2.4417   30.2843    7.0955 N   0  0  0  0  0  0
    3.2051   29.1083    7.2046 C   0  0  0  0  0  0
    3.2670   28.3661    8.3840 C   0  0  0  0  0  0
    4.0651   27.2298    8.4392 C   0  0  0  0  0  0
    4.8591   26.8664    7.3466 C   0  0  0  0  0  0
    4.7854   27.5955    6.1635 C   0  0  0  0  0  0
    3.9459   28.6961    6.0939 C   0  0  0  0  0  0
    5.9545   25.4554    7.4571 S   0  0  1  0  0  0
    6.9161   25.8526    8.5760 N   0  0  0  0  0  0
    5.1533   24.2293    7.4401 O   0  0  0  0  0  0
    7.1054   25.4927    5.9685 C   0  0  0  0  0  0
    0.8846   32.0005    7.5263 N   0  0  0  0  0  0
   -0.2323   32.4201    8.1772 C   0  0  0  0  0  0
   -1.0024   31.5717    8.9765 C   0  0  0  0  0  0
   -2.5661   32.2262    9.8490 Br  0  0  0  0  0  0
   -1.0105   28.3049   12.1401 C   0  0  1  0  0  0
   -0.8821   29.7100   12.7423 C   0  0  0  0  0  0
   -2.3426   27.8568   12.3057 O   0  0  0  0  0  0
    1.7975   25.0069   10.8669 H   0  0  0  0  0  0
    1.7723   26.7575   10.9270 H   0  0  0  0  0  0
    1.5832   25.9105    9.3786 H   0  0  0  0  0  0
   -0.7401   26.8676    8.9735 H   0  0  0  0  0  0
   -1.9015   26.5657   10.1893 H   0  0  0  0  0  0
    0.4612   28.4762   10.6052 H   0  0  0  0  0  0
   -2.1261   29.6826   10.3029 H   0  0  0  0  0  0
    2.9177   31.0016    6.5625 H   0  0  0  0  0  0
    2.7088   28.6573    9.2587 H   0  0  0  0  0  0
    4.0579   26.6512    9.3424 H   0  0  0  0  0  0
    5.3700   27.3315    5.2971 H   0  0  0  0  0  0
    3.9124   29.2574    5.1756 H   0  0  0  0  0  0
    6.4570   25.8524    9.4934 H   0  0  0  0  0  0
    7.5841   26.4699    5.9143 H   0  0  0  0  0  0
    7.8620   24.7200    6.0986 H   0  0  0  0  0  0
    6.5262   25.2942    5.0678 H   0  0  0  0  0  0
   -0.5120   33.4523    8.0435 H   0  0  0  0  0  0
   -0.3712   27.6191   12.7005 H   0  0  0  0  0  0
    0.1370   30.0829   12.6376 H   0  0  0  0  0  0
   -1.5441   30.4254   12.2557 H   0  0  0  0  0  0
   -1.1460   29.7165   13.7906 H   0  0  0  0  0  0
   -2.7481   28.2935   13.0715 H   0  0  0  0  0  0
  1  2  1  0  0  0
  1 27  1  0  0  0
  1 28  1  0  0  0
  1 29  1  0  0  0
  2  3  1  0  0  0
  3  4  1  0  0  0
  3 30  1  0  0  0
  3 31  1  0  0  0
  4  5  1  0  0  0
  4 24  1  0  0  0
  4 32  1  0  0  0
  5  6  1  0  0  0
  5 33  1  0  0  0
  6  7  2  0  0  0
  6 22  1  0  0  0
  7  8  1  0  0  0
  8  9  1  0  0  0
  8 20  2  0  0  0
  9 10  1  0  0  0
  9 34  1  0  0  0
 10 11  2  0  0  0
 10 15  1  0  0  0
 11 12  1  0  0  0
 11 35  1  0  0  0
 12 13  2  0  0  0
 12 36  1  0  0  0
 13 14  1  0  0  0
 13 16  1  0  0  0
 14 15  2  0  0  0
 14 37  1  0  0  0
 15 38  1  0  0  0
 16 17  2  0  0  0
 16 18  2  0  0  0
 16 19  1  0  0  0
 17 39  1  0  0  0
 19 40  1  0  0  0
 19 41  1  0  0  0
 19 42  1  0  0  0
 20 21  1  0  0  0
 21 22  2  0  0  0
 21 43  1  0  0  0
 22 23  1  0  0  0
 24 25  1  0  0  0
 24 26  1  0  0  0
 24 44  1  0  0  0
 25 45  1  0  0  0
 25 46  1  0  0  0
 25 47  1  0  0  0
 26 48  1  0  0  0
M  END
> <s_m_entry_id>
32700

> <s_m_entry_name>
dock_pv.101

> <s_m_Source_Path>
/home/csk/Desktop/cluster/DUD-E-result/cdk2

> <s_m_Source_File>
dock_pv.maegz

> <i_m_Source_File_Index>
101

> <chembl_id>
CHEMBL3648118

> <chembl_pref_name>
None

> <i_lp_mmshare_version>
53161

> <i_f3d_flags>
0

> <r_lp_tautomer_probability>
0.999999624730965

> <s_lp_Force_Field>
OPLS_2005

> <r_lp_Energy>
10.129634

> <b_lp_Chiralities_Consistent>
1

> <s_lp_Variant>
CHEMBL301_lig1358-2

> <s_i_glide_gridfile>
glide-grid_1h00

> <i_i_glide_lignum>
1814

> <i_i_glide_rotatable_bonds>
9

> <r_i_docking_score>
-8.15070145262341

> <r_i_glide_ligand_efficiency>
-0.313488517408593

> <r_i_glide_ligand_efficiency_sa>
-0.928708499305204

> <r_i_glide_ligand_efficiency_ln>
-1.91416549151575

> <r_i_glide_gscore>
-8.15070145262341

> <r_i_glide_lipo>
-2.7958504373736

> <r_i_glide_hbond>
-0.382813871763025

> <r_i_glide_metal>
0

> <r_i_glide_rewards>
-1.7307422458674

> <r_i_glide_evdw>
-35.7407112121582

> <r_i_glide_ecoul>
-13.7466659545898

> <r_i_glide_erotb>
0.607740556177006

> <r_i_glide_esite>
0

> <r_i_glide_emodel>
-69.285071304442

> <r_i_glide_energy>
-49.487377166748

> <r_i_glide_einternal>
11.1569623947144

> <i_i_glide_confnum>
42

> <i_i_glide_posenum>
317

> <r_i_glide_eff_state_penalty>
0

> <s_user_duplicate_titles>
CHEMBL301_lig1358

> <s_m_subgroup_title>
dock_pv

> <s_m_subgroupid>
dock_pv

> <b_m_subgroup_collapsed>
1

$$$$
CHEMBL301_lig1286
                    3D
 Schrodinger Suite 2021-1.
 52 56  0  0  1  0            999 V2000
   -0.7426   31.6877    9.1016 C   0  0  0  0  0  0
   -0.0309   32.4533    8.1760 C   0  0  0  0  0  0
    0.9985   31.9594    7.4461 N   0  0  0  0  0  0
    1.3487   30.6764    7.6986 C   0  0  0  0  0  0
    0.7194   29.8518    8.5755 N   0  0  0  0  0  0
   -0.3425   30.3414    9.2758 C   0  0  0  0  0  0
    2.4580   30.2321    6.9764 N   0  0  0  0  0  0
    3.2579   29.0814    7.0394 C   0  0  0  0  0  0
    3.8321   28.6519    5.8471 C   0  0  0  0  0  0
    4.5895   27.4903    5.8010 C   0  0  0  0  0  0
    4.7584   26.7329    6.9565 C   0  0  0  0  0  0
    4.2648   27.2115    8.1755 C   0  0  0  0  0  0
    3.5301   28.3962    8.2233 C   0  0  0  0  0  0
    5.4077   25.5196    6.8527 N   0  0  0  0  0  0
    6.8733   25.4502    6.9327 C   0  0  0  0  0  0
    7.4380   24.1399    6.3345 C   0  0  0  0  0  0
    6.8357   22.9692    6.9761 N   0  0  0  0  0  0
    5.3885   23.0100    6.7569 C   0  0  0  0  0  0
    4.7688   24.2948    7.3577 C   0  0  0  0  0  0
    7.4006   21.7428    6.4228 C   0  0  0  0  0  0
   -0.9506   29.3419   10.2345 C   0  0  0  0  0  0
   -2.1303   29.4800   10.9528 C   0  0  0  0  0  0
   -2.3421   28.4090   11.7760 N   0  0  0  0  0  0
   -0.4412   28.0357   10.6295 C   0  0  0  0  0  0
   -1.3366   27.4939   11.6039 C   0  0  0  0  0  0
   -1.0996   26.2476   12.1917 C   0  0  0  0  0  0
   -0.0112   25.5182   11.8448 N   0  0  0  0  0  0
    0.8421   26.0134   10.9177 C   0  0  0  0  0  0
    0.6736   27.2460   10.2859 C   0  0  0  0  0  0
   -2.0164   32.4677    9.9731 Cl  0  0  0  0  0  0
   -0.2899   33.4867    7.9951 H   0  0  0  0  0  0
    2.9082   30.9614    6.4363 H   0  0  0  0  0  0
    3.6790   29.2232    4.9517 H   0  0  0  0  0  0
    5.0023   27.1543    4.8606 H   0  0  0  0  0  0
    4.4277   26.6484    9.0770 H   0  0  0  0  0  0
    3.1575   28.7632    9.1673 H   0  0  0  0  0  0
    7.3156   26.3064    6.4201 H   0  0  0  0  0  0
    7.1692   25.5076    7.9817 H   0  0  0  0  0  0
    8.5189   24.1190    6.4822 H   0  0  0  0  0  0
    7.2697   24.1208    5.2550 H   0  0  0  0  0  0
    5.1571   22.9507    5.6912 H   0  0  0  0  0  0
    4.9265   22.1400    7.2250 H   0  0  0  0  0  0
    3.7031   24.3181    7.1233 H   0  0  0  0  0  0
    4.8580   24.2635    8.4438 H   0  0  0  0  0  0
    8.4772   21.7045    6.5952 H   0  0  0  0  0  0
    7.2254   21.6637    5.3477 H   0  0  0  0  0  0
    6.9630   20.8664    6.9036 H   0  0  0  0  0  0
   -2.8537   30.2804   10.9874 H   0  0  0  0  0  0
   -3.1147   28.3772   12.4336 H   0  0  0  0  0  0
   -1.7644   25.8230   12.9289 H   0  0  0  0  0  0
    1.6931   25.3926   10.6765 H   0  0  0  0  0  0
    1.3825   27.5707    9.5475 H   0  0  0  0  0  0
  1  2  2  0  0  0
  1  6  1  0  0  0
  1 30  1  0  0  0
  2  3  1  0  0  0
  2 31  1  0  0  0
  3  4  2  0  0  0
  4  5  1  0  0  0
  4  7  1  0  0  0
  5  6  2  0  0  0
  6 21  1  0  0  0
  7  8  1  0  0  0
  7 32  1  0  0  0
  8  9  2  0  0  0
  8 13  1  0  0  0
  9 10  1  0  0  0
  9 33  1  0  0  0
 10 11  2  0  0  0
 10 34  1  0  0  0
 11 12  1  0  0  0
 11 14  1  0  0  0
 12 13  2  0  0  0
 12 35  1  0  0  0
 13 36  1  0  0  0
 14 15  1  0  0  0
 14 19  1  0  0  0
 15 16  1  0  0  0
 15 37  1  0  0  0
 15 38  1  0  0  0
 16 17  1  0  0  0
 16 39  1  0  0  0
 16 40  1  0  0  0
 17 18  1  0  0  0
 17 20  1  0  0  0
 18 19  1  0  0  0
 18 41  1  0  0  0
 18 42  1  0  0  0
 19 43  1  0  0  0
 19 44  1  0  0  0
 20 45  1  0  0  0
 20 46  1  0  0  0
 20 47  1  0  0  0
 21 22  2  0  0  0
 21 24  1  0  0  0
 22 23  1  0  0  0
 22 48  1  0  0  0
 23 25  1  0  0  0
 23 49  1  0  0  0
 24 25  2  0  0  0
 24 29  1  0  0  0
 25 26  1  0  0  0
 26 27  2  0  0  0
 26 50  1  0  0  0
 27 28  1  0  0  0
 28 29  2  0  0  0
 28 51  1  0  0  0
 29 52  1  0  0  0
M  END
> <s_m_entry_id>
32701

> <s_m_entry_name>
dock_pv.102

> <s_m_Source_Path>
/home/csk/Desktop/cluster/DUD-E-result/cdk2

> <s_m_Source_File>
dock_pv.maegz

> <i_m_Source_File_Index>
102

> <chembl_id>
CHEMBL3421973

> <chembl_pref_name>
None

> <i_lp_mmshare_version>
53161

> <i_f3d_flags>
0

> <r_lp_tautomer_probability>
0.99976289427254

> <s_lp_Force_Field>
OPLS_2005

> <r_lp_Energy>
36.055179

> <b_lp_Chiralities_Consistent>
1

> <s_lp_Variant>
CHEMBL301_lig1286-1

> <s_i_glide_gridfile>
glide-grid_1h00

> <i_i_glide_lignum>
1702

> <i_i_glide_rotatable_bonds>
4

> <r_i_docking_score>
-8.14892510633039

> <r_i_glide_ligand_efficiency>
-0.27163083687768

> <r_i_glide_ligand_efficiency_sa>
-0.844020165008883

> <r_i_glide_ligand_efficiency_ln>
-1.85152457380879

> <r_i_glide_gscore>
-8.14892510633039

> <r_i_glide_lipo>
-3.11909121052389

> <r_i_glide_hbond>
-0.354875051001892

> <r_i_glide_metal>
0

> <r_i_glide_rewards>
-1.94258229135879

> <r_i_glide_evdw>
-41.4803237915039

> <r_i_glide_ecoul>
-7.02720403671265

> <r_i_glide_erotb>
0.448892434362914

> <r_i_glide_esite>
-0.0531721927266409

> <r_i_glide_emodel>
-69.0786067988216

> <r_i_glide_energy>
-48.5075278282166

> <r_i_glide_einternal>
8.01285934448242

> <i_i_glide_confnum>
37

> <i_i_glide_posenum>
136

> <r_i_glide_eff_state_penalty>
0

> <s_user_duplicate_titles>
CHEMBL301_lig1286

> <s_m_subgroup_title>
dock_pv

> <s_m_subgroupid>
dock_pv

> <b_m_subgroup_collapsed>
1

$$$$
CHEMBL301_lig9
                    3D
 Schrodinger Suite 2021-1.
 55 57  0  0  1  0            999 V2000
    2.0490   27.8541    9.8698 N   0  0  0  0  0  0
    3.1117   27.1367    9.4897 C   0  0  0  0  0  0
    3.9740   27.3594    8.4876 N   0  0  0  0  0  0
    3.7551   28.4396    7.6955 C   0  0  0  0  0  0
    1.8494   28.9117    9.0490 C   0  0  0  0  0  0
    2.6335   29.2578    7.9618 C   0  0  0  0  0  0
    2.1331   30.3274    7.3224 N   0  0  0  0  0  0
    1.0821   30.6536    8.0241 C   0  0  0  0  0  0
    0.8629   29.8536    9.0900 N   0  0  0  0  0  0
    4.6157   28.6518    6.6261 N   0  0  0  0  0  0
   -0.1655   30.0654   10.1865 C   0  0  2  0  0  0
   -0.5481   28.8530   10.7748 O   0  0  0  0  0  0
   -1.8201   28.9930   11.3812 C   0  0  1  0  0  0
   -2.5210   29.7506   10.2548 C   0  0  2  0  0  0
   -1.4744   30.7139    9.7087 C   0  0  1  0  0  0
   -3.7375   30.3842   10.5760 O   0  0  0  0  0  0
   -1.5433   32.0516   10.1755 O   0  0  0  0  0  0
   -2.3876   27.6057   11.7749 C   0  0  0  0  0  0
   -1.9434   27.2562   13.0825 O   0  0  0  0  0  0
   -0.7685   26.1836   13.4516 P   0  0  1  0  0  0
   -1.3721   24.7405   13.0401 O   0  0  0  0  0  0
    0.4038   26.4486   12.3667 O   0  0  0  0  0  0
   -0.3421   26.2485   14.8739 O   0  0  0  0  0  0
   -1.0825   23.1181   13.4910 P   0  0  2  0  0  0
   -0.9404   22.1281   12.1116 O   0  0  0  0  0  0
   -2.5414   22.5756   14.1855 O   0  0  0  0  0  0
    0.0593   22.9498   14.4608 O   0  0  0  0  0  0
    0.0248   20.9739   11.5121 P   0  0  2  0  0  0
    1.4991   21.6642   11.5740 O   0  0  0  0  0  0
   -0.3774   20.4587   10.1778 O   0  0  0  0  0  0
    0.0580   19.8525   12.6804 O   0  0  0  0  0  0
    2.1203   22.0895   10.3707 C   0  0  0  0  0  0
    2.9784   20.9309    9.8265 C   0  0  0  0  0  0
    3.6574   21.3255    8.6138 N   0  0  0  0  0  0
    3.0647   21.0536    7.5665 N   0  3  0  0  0  0
    2.5314   20.6539    6.6412 N   0  5  0  0  0  0
    3.2663   26.2424   10.0716 H   0  0  0  0  0  0
    0.4594   31.5181    7.8392 H   0  0  0  0  0  0
    4.6017   29.5692    6.1898 H   0  0  0  0  0  0
    5.4196   28.0494    6.5394 H   0  0  0  0  0  0
    0.3273   30.6410   10.9754 H   0  0  0  0  0  0
   -1.7518   29.6281   12.2671 H   0  0  0  0  0  0
   -2.7359   29.0528    9.4562 H   0  0  0  0  0  0
   -1.5399   30.7099    8.6194 H   0  0  0  0  0  0
   -3.7449   30.6510   11.5242 H   0  0  0  0  0  0
   -2.4090   32.4040    9.9442 H   0  0  0  0  0  0
   -2.1963   26.8251   11.0381 H   0  0  0  0  0  0
   -3.4716   27.6899   11.8516 H   0  0  0  0  0  0
    1.1747   26.9510   12.7083 H   0  0  0  0  0  0
   -2.6598   21.6419   14.4392 H   0  0  0  0  0  0
   -0.6347   19.1427   12.5753 H   0  0  0  0  0  0
    2.7430   22.9540   10.5980 H   0  0  0  0  0  0
    1.3766   22.4170    9.6407 H   0  0  0  0  0  0
    2.3651   20.0357    9.6823 H   0  0  0  0  0  0
    3.7257   20.6489   10.5699 H   0  0  0  0  0  0
  1  2  2  0  0  0
  1  5  1  0  0  0
  2  3  1  0  0  0
  2 37  1  0  0  0
  3  4  2  0  0  0
  4  6  1  0  0  0
  4 10  1  0  0  0
  5  9  1  0  0  0
  5  6  2  0  0  0
  6  7  1  0  0  0
  7  8  2  0  0  0
  8  9  1  0  0  0
  8 38  1  0  0  0
  9 11  1  0  0  0
 10 39  1  0  0  0
 10 40  1  0  0  0
 11 12  1  0  0  0
 11 15  1  0  0  0
 11 41  1  0  0  0
 12 13  1  0  0  0
 13 18  1  0  0  0
 13 14  1  0  0  0
 13 42  1  0  0  0
 14 15  1  0  0  0
 14 16  1  0  0  0
 14 43  1  0  0  0
 15 17  1  0  0  0
 15 44  1  0  0  0
 16 45  1  0  0  0
 17 46  1  0  0  0
 18 19  1  0  0  0
 18 47  1  0  0  0
 18 48  1  0  0  0
 19 20  1  0  0  0
 20 21  1  0  0  0
 20 22  1  0  0  0
 20 23  2  0  0  0
 21 24  1  0  0  0
 22 49  1  0  0  0
 24 25  1  0  0  0
 24 26  1  0  0  0
 24 27  2  0  0  0
 25 28  1  0  0  0
 26 50  1  0  0  0
 28 29  1  0  0  0
 28 30  2  0  0  0
 28 31  1  0  0  0
 29 32  1  0  0  0
 31 51  1  0  0  0
 32 33  1  0  0  0
 32 52  1  0  0  0
 32 53  1  0  0  0
 33 34  1  0  0  0
 33 54  1  0  0  0
 33 55  1  0  0  0
 34 35  2  0  0  0
 35 36  2  0  0  0
M  CHG  2  35   1  36  -1
M  END
> <s_m_entry_id>
32702

> <s_m_entry_name>
dock_pv.103

> <s_m_Source_Path>
/home/csk/Desktop/cluster/DUD-E-result/cdk2

> <s_m_Source_File>
dock_pv.maegz

> <i_m_Source_File_Index>
103

> <chembl_id>
CHEMBL564435

> <chembl_pref_name>
None

> <i_lp_mmshare_version>
53161

> <i_f3d_flags>
0

> <r_lp_tautomer_probability>
0.999997216410988

> <s_lp_Force_Field>
OPLS_2005

> <r_lp_Energy>
25.945897

> <b_lp_Chiralities_Consistent>
1

> <s_lp_Variant>
CHEMBL301_lig9-2

> <s_i_glide_gridfile>
glide-grid_1h00

> <i_i_glide_lignum>
25

> <i_i_glide_rotatable_bonds>
17

> <r_i_docking_score>
-8.12553583079415

> <r_i_glide_ligand_efficiency>
-0.225709328633171

> <r_i_glide_ligand_efficiency_sa>
-0.745275781653343

> <r_i_glide_ligand_efficiency_ln>
-1.77277239167056

> <r_i_glide_gscore>
-8.12553583079415

> <r_i_glide_lipo>
-0.809648998340047

> <r_i_glide_hbond>
-0.649301073844678

> <r_i_glide_metal>
0

> <r_i_glide_rewards>
-1.31451595318535

> <r_i_glide_evdw>
-39.5017890930176

> <r_i_glide_ecoul>
-25.6571617126465

> <r_i_glide_erotb>
0.658582282973751

> <r_i_glide_esite>
-0.186988376849981

> <r_i_glide_emodel>
-84.7647338468298

> <r_i_glide_energy>
-65.1589508056641

> <r_i_glide_einternal>
17.3042087554932

> <i_i_glide_confnum>
69

> <i_i_glide_posenum>
165

> <r_i_glide_eff_state_penalty>
0

> <s_user_duplicate_titles>
CHEMBL301_lig9

> <s_m_subgroup_title>
dock_pv

> <s_m_subgroupid>
dock_pv

> <b_m_subgroup_collapsed>
1

$$$$
CHEMBL301_lig607
                    3D
 Schrodinger Suite 2021-1.
 48 51  0  0  1  0            999 V2000
   -0.8118   27.8305   11.1157 C   0  0  0  0  0  0
   -1.8364   28.7384   11.4030 C   0  0  0  0  0  0
   -1.8877   29.9653   10.7492 C   0  0  0  0  0  0
    0.1784   28.1787   10.1877 C   0  0  0  0  0  0
    0.1701   29.4303    9.5510 C   0  0  0  0  0  0
   -0.9010   30.3026    9.8170 C   0  0  0  0  0  0
   -1.0008   31.6324    9.1080 C   0  0  0  0  0  0
   -0.0429   31.8206    8.1760 N   0  0  0  0  0  0
    0.9897   31.0405    7.7760 C   0  0  0  0  0  0
    1.2538   29.8540    8.6038 C   0  0  0  0  0  0
    1.6583   31.4086    6.8096 O   0  0  0  0  0  0
   -1.8531   32.4959    9.3057 O   0  0  0  0  0  0
    2.4610   29.2284    8.5443 C   0  0  0  0  0  0
    3.5768   29.4889    7.7759 N   0  0  0  0  0  0
    4.8416   28.7659    7.8262 C   0  0  0  0  0  0
    4.7130   27.4397    7.0986 C   0  0  0  0  0  0
    4.5136   26.2639    7.8237 C   0  0  0  0  0  0
    4.3132   25.0538    7.1649 C   0  0  0  0  0  0
    4.3139   24.9943    5.7649 C   0  0  0  0  0  0
    4.5529   26.1757    5.0405 C   0  0  0  0  0  0
    4.7529   27.3880    5.7033 C   0  0  0  0  0  0
    4.0580   23.9289    7.9040 O   0  0  0  0  0  0
    4.0581   23.7649    5.1831 O   0  0  0  0  0  0
    3.9592   23.6758    3.7661 C   0  0  0  0  0  0
   -0.7743   26.5720   11.7564 N   0  0  0  0  0  0
   -1.8554   25.8126   12.1512 C   0  0  0  0  0  0
   -1.4174   24.6324   12.7287 C   0  0  0  0  0  0
   -0.0256   24.6462   12.6830 C   0  0  0  0  0  0
    0.3485   25.8475   12.1019 C   0  0  0  0  0  0
   -2.6016   28.5087   12.1329 H   0  0  0  0  0  0
   -2.6993   30.6448   10.9761 H   0  0  0  0  0  0
    0.9521   27.4600    9.9668 H   0  0  0  0  0  0
   -0.1367   32.6789    7.6555 H   0  0  0  0  0  0
    2.6644   28.3861    9.1879 H   0  0  0  0  0  0
    3.5276   30.1893    7.0428 H   0  0  0  0  0  0
    5.0946   28.5641    8.8679 H   0  0  0  0  0  0
    5.6517   29.3733    7.4197 H   0  0  0  0  0  0
    4.4714   26.2893    8.9035 H   0  0  0  0  0  0
    4.5742   26.1752    3.9615 H   0  0  0  0  0  0
    4.9161   28.2910    5.1317 H   0  0  0  0  0  0
    3.5303   23.3197    7.3763 H   0  0  0  0  0  0
    3.6949   22.6574    3.4833 H   0  0  0  0  0  0
    4.9085   23.9176    3.2852 H   0  0  0  0  0  0
    3.1825   24.3345    3.3754 H   0  0  0  0  0  0
   -2.8601   26.1700   11.9749 H   0  0  0  0  0  0
   -2.0395   23.8439   13.1258 H   0  0  0  0  0  0
    0.6364   23.8706   13.0404 H   0  0  0  0  0  0
    1.3318   26.2511   11.9075 H   0  0  0  0  0  0
  1  2  2  0  0  0
  1  4  1  0  0  0
  1 25  1  0  0  0
  2  3  1  0  0  0
  2 30  1  0  0  0
  3  6  2  0  0  0
  3 31  1  0  0  0
  4  5  2  0  0  0
  4 32  1  0  0  0
  5 10  1  0  0  0
  5  6  1  0  0  0
  6  7  1  0  0  0
  7  8  1  0  0  0
  7 12  2  0  0  0
  8  9  1  0  0  0
  8 33  1  0  0  0
  9 10  1  0  0  0
  9 11  2  0  0  0
 10 13  2  0  0  0
 13 14  1  0  0  0
 13 34  1  0  0  0
 14 15  1  0  0  0
 14 35  1  0  0  0
 15 16  1  0  0  0
 15 36  1  0  0  0
 15 37  1  0  0  0
 16 17  2  0  0  0
 16 21  1  0  0  0
 17 18  1  0  0  0
 17 38  1  0  0  0
 18 19  2  0  0  0
 18 22  1  0  0  0
 19 20  1  0  0  0
 19 23  1  0  0  0
 20 21  2  0  0  0
 20 39  1  0  0  0
 21 40  1  0  0  0
 22 41  1  0  0  0
 23 24  1  0  0  0
 24 42  1  0  0  0
 24 43  1  0  0  0
 24 44  1  0  0  0
 25 26  1  0  0  0
 25 29  1  0  0  0
 26 27  2  0  0  0
 26 45  1  0  0  0
 27 28  1  0  0  0
 27 46  1  0  0  0
 28 29  2  0  0  0
 28 47  1  0  0  0
 29 48  1  0  0  0
M  END
> <s_m_entry_id>
32703

> <s_m_entry_name>
dock_pv.104

> <s_m_Source_Path>
/home/csk/Desktop/cluster/DUD-E-result/cdk2

> <s_m_Source_File>
dock_pv.maegz

> <i_m_Source_File_Index>
104

> <chembl_id>
CHEMBL489445

> <chembl_pref_name>
None

> <i_lp_mmshare_version>
53161

> <i_f3d_flags>
0

> <r_lp_tautomer_probability>
0.49999999999931

> <s_lp_Force_Field>
OPLS_2005

> <r_lp_Energy>
33.532289

> <b_lp_Chiralities_Consistent>
1

> <s_lp_Variant>
CHEMBL301_lig607-1

> <s_i_glide_gridfile>
glide-grid_1h00

> <i_i_glide_lignum>
848

> <i_i_glide_rotatable_bonds>
6

> <r_i_docking_score>
-8.12016947002846

> <r_i_glide_ligand_efficiency>
-0.280005843794085

> <r_i_glide_ligand_efficiency_sa>
-0.860266664213339

> <r_i_glide_ligand_efficiency_ln>
-1.85931289890513

> <r_i_glide_gscore>
-8.12016947002846

> <r_i_glide_lipo>
-2.75972519794258

> <r_i_glide_hbond>
-0.257559293286971

> <r_i_glide_metal>
0

> <r_i_glide_rewards>
-1.97136013804425

> <r_i_glide_evdw>
-47.2130165100098

> <r_i_glide_ecoul>
-8.56736660003662

> <r_i_glide_erotb>
0.514230974751327

> <r_i_glide_esite>
0

> <r_i_glide_emodel>
-79.9089654220589

> <r_i_glide_energy>
-55.7803831100464

> <r_i_glide_einternal>
6.44448041915894

> <i_i_glide_confnum>
36

> <i_i_glide_posenum>
22

> <r_i_glide_eff_state_penalty>
0

> <s_user_duplicate_titles>
CHEMBL301_lig607

> <s_m_subgroup_title>
dock_pv

> <s_m_subgroupid>
dock_pv

> <b_m_subgroup_collapsed>
1

$$$$
CHEMBL301_lig679
                    3D
 Schrodinger Suite 2021-1.
 33 35  0  0  1  0            999 V2000
    0.4860   30.5683    8.0786 C   0  0  0  0  0  0
   -0.2275   31.7419    8.1878 C   0  0  0  0  0  0
    0.5594   32.6532    7.5315 N   0  0  0  0  0  0
    1.6581   32.1267    6.9766 N   0  0  0  0  0  0
    1.6577   30.8756    7.3715 C   0  0  0  0  0  0
    2.7000   30.0353    7.0526 N   0  0  0  0  0  0
    3.1389   29.0465    7.8534 C   0  0  0  0  0  0
    4.2279   28.1631    7.2940 C   0  0  0  0  0  0
    2.6881   28.8182    8.9764 O   0  0  0  0  0  0
   -1.5550   32.0693    8.8337 C   0  0  0  0  0  0
    5.0321   27.4304    8.1754 C   0  0  0  0  0  0
    5.9479   26.5021    7.6926 C   0  0  0  0  0  0
    6.0660   26.2993    6.3223 C   0  0  0  0  0  0
    5.2830   27.0275    5.4297 C   0  0  0  0  0  0
    4.3757   27.9673    5.9118 C   0  0  0  0  0  0
    7.3182   25.0272    5.6672 Br  0  0  0  0  0  0
   -2.1295   31.0023    9.7731 C   0  0  0  0  0  0
   -2.5624   32.1439   10.6906 C   0  0  0  0  0  0
   -1.5430   33.0505   10.0090 C   0  0  0  0  0  0
    0.2107   29.6078    8.4852 H   0  0  0  0  0  0
    0.3170   33.6302    7.4003 H   0  0  0  0  0  0
    3.3664   30.3917    6.3755 H   0  0  0  0  0  0
   -2.2839   32.3613    8.0777 H   0  0  0  0  0  0
    4.9308   27.5451    9.2463 H   0  0  0  0  0  0
    6.5492   25.9325    8.3865 H   0  0  0  0  0  0
    5.3849   26.8662    4.3667 H   0  0  0  0  0  0
    3.7608   28.4997    5.2011 H   0  0  0  0  0  0
   -2.9512   30.4075    9.3751 H   0  0  0  0  0  0
   -1.3844   30.3692   10.2598 H   0  0  0  0  0  0
   -3.5992   32.4554   10.5604 H   0  0  0  0  0  0
   -2.3525   31.9650   11.7448 H   0  0  0  0  0  0
   -0.6057   33.0722   10.5711 H   0  0  0  0  0  0
   -1.9415   34.0460    9.8061 H   0  0  0  0  0  0
  1  5  1  0  0  0
  1  2  2  0  0  0
  1 20  1  0  0  0
  2 10  1  0  0  0
  2  3  1  0  0  0
  3  4  1  0  0  0
  3 21  1  0  0  0
  4  5  2  0  0  0
  5  6  1  0  0  0
  6  7  1  0  0  0
  6 22  1  0  0  0
  7  8  1  0  0  0
  7  9  2  0  0  0
  8 11  2  0  0  0
  8 15  1  0  0  0
 10 17  1  0  0  0
 10 19  1  0  0  0
 10 23  1  0  0  0
 11 12  1  0  0  0
 11 24  1  0  0  0
 12 13  2  0  0  0
 12 25  1  0  0  0
 13 14  1  0  0  0
 13 16  1  0  0  0
 14 15  2  0  0  0
 14 26  1  0  0  0
 15 27  1  0  0  0
 17 18  1  0  0  0
 17 28  1  0  0  0
 17 29  1  0  0  0
 18 19  1  0  0  0
 18 30  1  0  0  0
 18 31  1  0  0  0
 19 32  1  0  0  0
 19 33  1  0  0  0
M  END
> <s_m_entry_id>
32705

> <s_m_entry_name>
dock_pv.106

> <s_m_Source_Path>
/home/csk/Desktop/cluster/DUD-E-result/cdk2

> <s_m_Source_File>
dock_pv.maegz

> <i_m_Source_File_Index>
106

> <chembl_id>
CHEMBL112136

> <chembl_pref_name>
None

> <i_lp_mmshare_version>
53161

> <i_f3d_flags>
0

> <r_lp_tautomer_probability>
0.5

> <s_lp_Force_Field>
OPLS_2005

> <r_lp_Energy>
18.274902

> <b_lp_Chiralities_Consistent>
1

> <s_lp_Variant>
CHEMBL301_lig679-1

> <s_i_glide_gridfile>
glide-grid_1h00

> <i_i_glide_lignum>
942

> <i_i_glide_rotatable_bonds>
4

> <r_i_docking_score>
-8.10327302326274

> <r_i_glide_ligand_efficiency>
-0.426488053855934

> <r_i_glide_ligand_efficiency_sa>
-1.13804142495242

> <r_i_glide_ligand_efficiency_ln>
-2.0543537537435

> <r_i_glide_gscore>
-8.10327302326274

> <r_i_glide_lipo>
-2.55819035921476

> <r_i_glide_hbond>
-0.850145445024617

> <r_i_glide_metal>
0

> <r_i_glide_rewards>
-2.80182296982062

> <r_i_glide_evdw>
-29.5504684448242

> <r_i_glide_ecoul>
-6.16992998123169

> <r_i_glide_erotb>
0.50989867022323

> <r_i_glide_esite>
0

> <r_i_glide_emodel>
-50.0060462796621

> <r_i_glide_energy>
-35.7203984260559

> <r_i_glide_einternal>
3.82624983787537

> <i_i_glide_confnum>
33

> <i_i_glide_posenum>
364

> <r_i_glide_eff_state_penalty>
0

> <s_user_duplicate_titles>
CHEMBL301_lig679,187144

> <s_m_subgroup_title>
dock_pv

> <s_m_subgroupid>
dock_pv

> <b_m_subgroup_collapsed>
1

$$$$
CHEMBL301_lig449
                    3D
 Schrodinger Suite 2021-1.
 30 32  0  0  1  0            999 V2000
    2.0270   29.7895    8.1291 C   0  0  0  0  0  0
    1.4987   30.9188    7.5975 C   0  0  0  0  0  0
    0.2821   31.5251    8.1760 C   0  0  0  0  0  0
    1.4260   29.0703    9.1180 O   0  0  0  0  0  0
   -0.4308   30.6346    9.1348 C   0  0  0  0  0  0
    0.1820   29.4529    9.5667 C   0  0  0  0  0  0
    3.2104   29.0418    7.6465 C   0  0  0  0  0  0
    3.4657   28.8733    6.2787 C   0  0  0  0  0  0
    4.5024   28.0501    5.8400 C   0  0  0  0  0  0
   -0.1288   32.6609    7.9460 O   0  0  0  0  0  0
    5.3298   27.4136    6.7720 C   0  0  0  0  0  0
    4.0436   28.3876    8.5639 C   0  0  0  0  0  0
    2.0580   31.6373    6.5777 O   0  0  0  0  0  0
    5.0960   27.5843    8.1330 C   0  0  0  0  0  0
    4.6814   27.8521    4.4956 O   0  0  0  0  0  0
    6.3983   26.6520    6.3681 O   0  0  0  0  0  0
   -1.6856   30.9735    9.6601 C   0  0  0  0  0  0
   -0.4383   28.6142   10.4885 C   0  0  0  0  0  0
   -2.3133   30.1292   10.5752 C   0  0  0  0  0  0
   -1.6908   28.9552   10.9961 C   0  0  0  0  0  0
    2.8298   29.3370    5.5414 H   0  0  0  0  0  0
    3.8588   28.4748    9.6246 H   0  0  0  0  0  0
    2.9790   31.3685    6.4296 H   0  0  0  0  0  0
    5.7232   27.0908    8.8615 H   0  0  0  0  0  0
    5.2914   27.1302    4.3206 H   0  0  0  0  0  0
    7.0069   27.1808    5.8339 H   0  0  0  0  0  0
   -2.1828   31.8881    9.3635 H   0  0  0  0  0  0
    0.0585   27.7125   10.8130 H   0  0  0  0  0  0
   -3.2797   30.3972   10.9760 H   0  0  0  0  0  0
   -2.1793   28.3190   11.7206 H   0  0  0  0  0  0
  1  2  2  0  0  0
  1  4  1  0  0  0
  1  7  1  0  0  0
  2  3  1  0  0  0
  2 13  1  0  0  0
  3 10  2  0  0  0
  3  5  1  0  0  0
  4  6  1  0  0  0
  5  6  1  0  0  0
  5 17  2  0  0  0
  6 18  2  0  0  0
  7  8  1  0  0  0
  7 12  2  0  0  0
  8  9  2  0  0  0
  8 21  1  0  0  0
  9 15  1  0  0  0
  9 11  1  0  0  0
 11 14  2  0  0  0
 11 16  1  0  0  0
 12 14  1  0  0  0
 12 22  1  0  0  0
 13 23  1  0  0  0
 14 24  1  0  0  0
 15 25  1  0  0  0
 16 26  1  0  0  0
 17 19  1  0  0  0
 17 27  1  0  0  0
 18 20  1  0  0  0
 18 28  1  0  0  0
 19 20  2  0  0  0
 19 29  1  0  0  0
 20 30  1  0  0  0
M  END
> <s_m_entry_id>
32706

> <s_m_entry_name>
dock_pv.107

> <s_m_Source_Path>
/home/csk/Desktop/cluster/DUD-E-result/cdk2

> <s_m_Source_File>
dock_pv.maegz

> <i_m_Source_File_Index>
107

> <chembl_id>
CHEMBL122701

> <chembl_pref_name>
None

> <i_lp_mmshare_version>
53161

> <i_f3d_flags>
0

> <r_lp_tautomer_probability>
0.999999999999776

> <s_lp_Force_Field>
OPLS_2005

> <r_lp_Energy>
16.31257

> <b_lp_Chiralities_Consistent>
1

> <s_lp_Variant>
CHEMBL301_lig449-1

> <s_i_glide_gridfile>
glide-grid_1h00

> <i_i_glide_lignum>
640

> <i_i_glide_rotatable_bonds>
4

> <r_i_docking_score>
-8.09325215963836

> <r_i_glide_ligand_efficiency>
-0.404662607981918

> <r_i_glide_ligand_efficiency_sa>
-1.0984233107865

> <r_i_glide_ligand_efficiency_ln>
-2.02547408223621

> <r_i_glide_gscore>
-8.09325215963836

> <r_i_glide_lipo>
-3.06579660633943

> <r_i_glide_hbond>
0

> <r_i_glide_metal>
0

> <r_i_glide_rewards>
-2.36634071021482

> <r_i_glide_evdw>
-28.3096981048584

> <r_i_glide_ecoul>
-9.93668937683105

> <r_i_glide_erotb>
0.244873468683471

> <r_i_glide_esite>
0

> <r_i_glide_emodel>
-54.2862361796255

> <r_i_glide_energy>
-38.2463874816895

> <r_i_glide_einternal>
5.09903907775879

> <i_i_glide_confnum>
1

> <i_i_glide_posenum>
303

> <r_i_glide_eff_state_penalty>
0

> <s_user_duplicate_titles>
CHEMBL301_lig449

> <s_m_subgroup_title>
dock_pv

> <s_m_subgroupid>
dock_pv

> <b_m_subgroup_collapsed>
1

$$$$
CHEMBL301_lig172
                    3D
 Schrodinger Suite 2021-1.
 36 38  0  0  1  0            999 V2000
   -1.8673   29.9240   10.4316 C   0  0  0  0  0  0
   -2.4158   31.1720   10.1295 C   0  0  0  0  0  0
   -1.7574   32.0321    9.2550 C   0  0  0  0  0  0
   -0.6514   29.5149    9.8599 C   0  0  0  0  0  0
   -0.0009   30.3797    8.9564 C   0  0  0  0  0  0
   -0.5633   31.6146    8.6759 C   0  0  0  0  0  0
    0.2313   32.2893    7.7839 N   0  0  0  0  0  0
    1.2576   31.5415    7.3760 C   0  0  0  0  0  0
    1.2359   30.3139    8.1797 C   0  0  0  0  0  0
    2.0579   31.8520    6.5033 O   0  0  0  0  0  0
    2.1292   29.4008    8.2012 N   0  0  0  0  0  0
    3.2582   29.4520    7.3681 N   0  0  0  0  0  0
    4.0580   28.3478    7.0792 C   0  0  0  0  0  0
    4.4587   27.4657    8.0839 C   0  0  0  0  0  0
    5.2961   26.3985    7.7759 C   0  0  0  0  0  0
    5.7155   26.2041    6.4616 C   0  0  0  0  0  0
    5.2733   27.0524    5.4455 C   0  0  0  0  0  0
    4.4583   28.1355    5.7607 C   0  0  0  0  0  0
    6.8780   24.8973    6.1048 S   0  0  0  0  0  0
    8.4068   25.5244    6.6557 N   0  0  0  0  0  0
    6.5422   23.7662    6.9761 O   0  0  0  0  0  0
    6.9685   24.7436    4.6503 O   0  0  0  0  0  0
   -0.1074   28.1906   10.2139 N   0  3  0  0  0  0
   -0.8537   27.2226   10.1052 O   0  0  0  0  0  0
    1.0465   28.1238   10.6214 O   0  5  0  0  0  0
   -2.3873   29.2786   11.1268 H   0  0  0  0  0  0
   -3.3506   31.4772   10.5757 H   0  0  0  0  0  0
   -2.1796   33.0009    9.0371 H   0  0  0  0  0  0
    0.0500   33.2154    7.4207 H   0  0  0  0  0  0
    3.2364   30.2268    6.7083 H   0  0  0  0  0  0
    4.1403   27.6210    9.1046 H   0  0  0  0  0  0
    5.6318   25.7342    8.5584 H   0  0  0  0  0  0
    5.5990   26.9074    4.4251 H   0  0  0  0  0  0
    4.1499   28.8134    4.9790 H   0  0  0  0  0  0
    8.9713   24.8214    7.1345 H   0  0  0  0  0  0
    8.9329   26.0024    5.9171 H   0  0  0  0  0  0
  1  2  2  0  0  0
  1  4  1  0  0  0
  1 26  1  0  0  0
  2  3  1  0  0  0
  2 27  1  0  0  0
  3  6  2  0  0  0
  3 28  1  0  0  0
  4  5  2  0  0  0
  4 23  1  0  0  0
  5  9  1  0  0  0
  5  6  1  0  0  0
  6  7  1  0  0  0
  7  8  1  0  0  0
  7 29  1  0  0  0
  8  9  1  0  0  0
  8 10  2  0  0  0
  9 11  2  0  0  0
 11 12  1  0  0  0
 12 13  1  0  0  0
 12 30  1  0  0  0
 13 14  2  0  0  0
 13 18  1  0  0  0
 14 15  1  0  0  0
 14 31  1  0  0  0
 15 16  2  0  0  0
 15 32  1  0  0  0
 16 17  1  0  0  0
 16 19  1  0  0  0
 17 18  2  0  0  0
 17 33  1  0  0  0
 18 34  1  0  0  0
 19 20  1  0  0  0
 19 21  2  0  0  0
 19 22  2  0  0  0
 20 35  1  0  0  0
 20 36  1  0  0  0
 23 24  2  0  0  0
 23 25  1  0  0  0
M  CHG  2  23   1  25  -1
M  END
> <s_m_entry_id>
32707

> <s_m_entry_name>
dock_pv.108

> <s_m_Source_Path>
/home/csk/Desktop/cluster/DUD-E-result/cdk2

> <s_m_Source_File>
dock_pv.maegz

> <i_m_Source_File_Index>
108

> <chembl_id>
CHEMBL409619

> <chembl_pref_name>
None

> <i_lp_mmshare_version>
53161

> <i_f3d_flags>
0

> <r_lp_tautomer_probability>
1

> <s_lp_Force_Field>
OPLS_2005

> <r_lp_Energy>
48.024354

> <b_lp_Chiralities_Consistent>
1

> <s_lp_Variant>
CHEMBL301_lig172-1

> <s_i_glide_gridfile>
glide-grid_1h00

> <i_i_glide_lignum>
313

> <i_i_glide_rotatable_bonds>
4

> <r_i_docking_score>
-8.09104109234903

> <r_i_glide_ligand_efficiency>
-0.323641643693961

> <r_i_glide_ligand_efficiency_sa>
-0.946333905970134

> <r_i_glide_ligand_efficiency_ln>
-1.91781920782222

> <r_i_glide_gscore>
-8.09104109234903

> <r_i_glide_lipo>
-1.96799304857355

> <r_i_glide_hbond>
-0.541105646091174

> <r_i_glide_metal>
0

> <r_i_glide_rewards>
-2.82968811405989

> <r_i_glide_evdw>
-38.876407623291

> <r_i_glide_ecoul>
-6.72006845474243

> <r_i_glide_erotb>
0.205764571379165

> <r_i_glide_esite>
-0.00618820562767325

> <r_i_glide_emodel>
-65.9510882523887

> <r_i_glide_energy>
-45.5964760780334

> <r_i_glide_einternal>
2.93447875976562

> <i_i_glide_confnum>
1

> <i_i_glide_posenum>
324

> <r_i_glide_eff_state_penalty>
0

> <s_user_duplicate_titles>
CHEMBL301_lig172

> <s_m_subgroup_title>
dock_pv

> <s_m_subgroupid>
dock_pv

> <b_m_subgroup_collapsed>
1

$$$$
CHEMBL301_lig14
                    3D
 Schrodinger Suite 2021-1.
 59 61  0  0  1  0            999 V2000
    2.4622   28.0974    9.5019 N   0  0  0  0  0  0
    3.3662   28.4656    8.5841 C   0  0  0  0  0  0
    3.2776   29.4308    7.6626 N   0  0  0  0  0  0
    2.1308   30.1529    7.5990 C   0  0  0  0  0  0
    1.3324   28.8438    9.4224 C   0  0  0  0  0  0
    1.0928   29.8550    8.5122 C   0  0  0  0  0  0
   -0.1327   30.3764    8.6776 N   0  0  0  0  0  0
   -0.6282   29.7095    9.6905 C   0  0  0  0  0  0
    0.2200   28.7956   10.2154 N   0  0  0  0  0  0
    2.0580   31.1530    6.6381 N   0  0  0  0  0  0
    0.0432   27.8198   11.3654 C   0  0  2  0  0  0
    0.2533   26.5125   10.9279 O   0  0  0  0  0  0
   -0.3070   25.6136   11.8639 C   0  0  1  0  0  0
   -1.6571   26.2917   12.0858 C   0  0  2  0  0  0
   -1.3236   27.7971   12.0792 C   0  0  1  0  0  0
   -2.3248   25.8464   13.2560 O   0  0  0  0  0  0
   -1.1689   28.4238   13.3441 O   0  0  0  0  0  0
   -0.3192   24.2006   11.2488 C   0  0  0  0  0  0
    0.9581   23.6107   11.4736 O   0  0  0  0  0  0
    1.2528   22.0118   11.3067 P   0  0  2  0  0  0
    1.7305   21.8786    9.7710 O   0  0  0  0  0  0
   -0.2130   21.3137   11.2994 O   0  0  0  0  0  0
    2.2208   21.4533   12.2877 O   0  0  0  0  0  0
    2.1736   20.6881    8.6393 P   0  0  2  0  0  0
    3.7262   21.0987    8.1083 O   0  0  0  0  0  0
    1.2648   21.0520    7.2548 O   0  0  0  0  0  0
    2.0339   19.2678    9.1269 O   0  0  0  0  0  0
    4.4130   22.3203    7.3139 P   0  0  2  0  0  0
    3.7014   22.2180    5.7762 N   0  0  1  0  0  0
    5.8972   22.3484    7.3759 O   0  0  0  0  0  0
    3.6580   23.5980    7.9708 O   0  0  0  0  0  0
    4.0245   23.1254    4.6732 C   0  0  0  0  0  0
    4.1191   24.6070    5.0730 C   0  0  0  0  0  0
    4.2103   25.5576    3.8670 C   0  0  0  0  0  0
    4.3477   26.9617    4.2831 C   0  0  0  0  0  0
    4.4698   28.0971    4.7115 C   0  0  0  0  0  0
    4.2950   27.9137    8.5977 H   0  0  0  0  0  0
   -1.6085   29.8799   10.1099 H   0  0  0  0  0  0
    1.3363   31.8505    6.7439 H   0  0  0  0  0  0
    2.9440   31.3456    6.1742 H   0  0  0  0  0  0
    0.8558   28.0471   12.0616 H   0  0  0  0  0  0
    0.2740   25.6193   12.7905 H   0  0  0  0  0  0
   -2.2878   26.0806   11.2185 H   0  0  0  0  0  0
   -2.0793   28.3225   11.4987 H   0  0  0  0  0  0
   -3.1079   26.3891   13.3808 H   0  0  0  0  0  0
   -2.0469   28.6479   13.6900 H   0  0  0  0  0  0
   -0.5360   24.2524   10.1776 H   0  0  0  0  0  0
   -1.0935   23.6030   11.7334 H   0  0  0  0  0  0
   -0.2609   20.4560   11.7715 H   0  0  0  0  0  0
    1.2579   21.9900    6.9545 H   0  0  0  0  0  0
    3.4110   21.2881    5.4757 H   0  0  0  0  0  0
    2.7082   23.6901    7.7132 H   0  0  0  0  0  0
    3.2576   23.0049    3.9063 H   0  0  0  0  0  0
    4.9637   22.8043    4.2203 H   0  0  0  0  0  0
    4.9931   24.7435    5.7131 H   0  0  0  0  0  0
    3.2583   24.8787    5.6852 H   0  0  0  0  0  0
    3.3225   25.4763    3.2385 H   0  0  0  0  0  0
    5.0682   25.3108    3.2401 H   0  0  0  0  0  0
    4.5868   29.0655    5.1389 H   0  0  0  0  0  0
  1  2  2  0  0  0
  1  5  1  0  0  0
  2  3  1  0  0  0
  2 37  1  0  0  0
  3  4  2  0  0  0
  4  6  1  0  0  0
  4 10  1  0  0  0
  5  9  1  0  0  0
  5  6  2  0  0  0
  6  7  1  0  0  0
  7  8  2  0  0  0
  8  9  1  0  0  0
  8 38  1  0  0  0
  9 11  1  0  0  0
 10 39  1  0  0  0
 10 40  1  0  0  0
 11 12  1  0  0  0
 11 15  1  0  0  0
 11 41  1  0  0  0
 12 13  1  0  0  0
 13 18  1  0  0  0
 13 14  1  0  0  0
 13 42  1  0  0  0
 14 15  1  0  0  0
 14 16  1  0  0  0
 14 43  1  0  0  0
 15 17  1  0  0  0
 15 44  1  0  0  0
 16 45  1  0  0  0
 17 46  1  0  0  0
 18 19  1  0  0  0
 18 47  1  0  0  0
 18 48  1  0  0  0
 19 20  1  0  0  0
 20 21  1  0  0  0
 20 22  1  0  0  0
 20 23  2  0  0  0
 21 24  1  0  0  0
 22 49  1  0  0  0
 24 25  1  0  0  0
 24 26  1  0  0  0
 24 27  2  0  0  0
 25 28  1  0  0  0
 26 50  1  0  0  0
 28 29  1  0  0  0
 28 30  2  0  0  0
 28 31  1  0  0  0
 29 32  1  0  0  0
 29 51  1  0  0  0
 31 52  1  0  0  0
 32 33  1  0  0  0
 32 53  1  0  0  0
 32 54  1  0  0  0
 33 34  1  0  0  0
 33 55  1  0  0  0
 33 56  1  0  0  0
 34 35  1  0  0  0
 34 57  1  0  0  0
 34 58  1  0  0  0
 35 36  3  0  0  0
 36 59  1  0  0  0
M  END
> <s_m_entry_id>
32708

> <s_m_entry_name>
dock_pv.109

> <s_m_Source_Path>
/home/csk/Desktop/cluster/DUD-E-result/cdk2

> <s_m_Source_File>
dock_pv.maegz

> <i_m_Source_File_Index>
109

> <chembl_id>
CHEMBL560883

> <chembl_pref_name>
None

> <i_lp_mmshare_version>
53161

> <i_f3d_flags>
0

> <r_lp_tautomer_probability>
0.999997216410988

> <s_lp_Force_Field>
OPLS_2005

> <r_lp_Energy>
16.81558

> <b_lp_Chiralities_Consistent>
1

> <s_lp_Variant>
CHEMBL301_lig14-5

> <s_i_glide_gridfile>
glide-grid_1h00

> <i_i_glide_lignum>
68

> <i_i_glide_rotatable_bonds>
18

> <r_i_docking_score>
-8.08490602475737

> <r_i_glide_ligand_efficiency>
-0.224580722909927

> <r_i_glide_ligand_efficiency_sa>
-0.741549207666956

> <r_i_glide_ligand_efficiency_ln>
-1.76390806568384

> <r_i_glide_gscore>
-8.08490602475737

> <r_i_glide_lipo>
-1.25515548800384

> <r_i_glide_hbond>
-0.32

> <r_i_glide_metal>
0

> <r_i_glide_rewards>
-1.31902213216431

> <r_i_glide_evdw>
-41.0237197875977

> <r_i_glide_ecoul>
-25.5120429992676

> <r_i_glide_erotb>
0.735727852696252

> <r_i_glide_esite>
-0.0484638180154497

> <r_i_glide_emodel>
-95.1069020727991

> <r_i_glide_energy>
-66.5357627868652

> <r_i_glide_einternal>
11.207706451416

> <i_i_glide_confnum>
181

> <i_i_glide_posenum>
339

> <r_i_glide_eff_state_penalty>
0

> <s_user_duplicate_titles>
CHEMBL301_lig14

> <s_m_subgroup_title>
dock_pv

> <s_m_subgroupid>
dock_pv

> <b_m_subgroup_collapsed>
1

$$$$
CHEMBL301_lig671
                    3D
 Schrodinger Suite 2021-1.
 30 32  0  0  1  0            999 V2000
    0.3522   30.5815    8.2960 C   0  0  0  0  0  0
   -0.3427   31.7594    8.5071 C   0  0  0  0  0  0
    0.3691   32.6760    7.7761 N   0  0  0  0  0  0
    1.4106   32.1638    7.1120 N   0  0  0  0  0  0
    1.4449   30.9038    7.4756 C   0  0  0  0  0  0
    2.4581   30.0805    7.0388 N   0  0  0  0  0  0
    3.0058   29.0874    7.7768 C   0  0  0  0  0  0
    4.0578   28.2509    7.0828 C   0  0  0  0  0  0
    2.6972   28.8394    8.9460 O   0  0  0  0  0  0
   -1.5894   32.1023    9.2899 C   0  0  0  0  0  0
    4.0826   28.1189    5.6818 C   0  0  0  0  0  0
    4.9870   27.2536    5.0666 C   0  0  0  0  0  0
    5.8940   26.5279    5.8373 C   0  0  0  0  0  0
    5.9015   26.6679    7.2243 C   0  0  0  0  0  0
    4.9813   27.5169    7.8435 C   0  0  0  0  0  0
   -2.7760   31.1695    9.2632 C   0  0  0  0  0  0
   -1.9417   31.3008   10.5192 C   0  0  0  0  0  0
    7.0611   25.8142    8.1767 Cl  0  0  0  0  0  0
    0.1243   29.6135    8.7197 H   0  0  0  0  0  0
    0.1139   33.6543    7.6829 H   0  0  0  0  0  0
    3.0301   30.4388    6.2863 H   0  0  0  0  0  0
   -1.8127   33.1688    9.3272 H   0  0  0  0  0  0
    3.3809   28.6513    5.0560 H   0  0  0  0  0  0
    4.9897   27.1480    3.9905 H   0  0  0  0  0  0
    6.6083   25.8762    5.3543 H   0  0  0  0  0  0
    4.9877   27.5907    8.9245 H   0  0  0  0  0  0
   -3.7799   31.5917    9.2584 H   0  0  0  0  0  0
   -2.7094   30.2535    8.6760 H   0  0  0  0  0  0
   -1.2897   30.4787   10.8169 H   0  0  0  0  0  0
   -2.3493   31.8354   11.3767 H   0  0  0  0  0  0
  1  5  1  0  0  0
  1  2  2  0  0  0
  1 19  1  0  0  0
  2 10  1  0  0  0
  2  3  1  0  0  0
  3  4  1  0  0  0
  3 20  1  0  0  0
  4  5  2  0  0  0
  5  6  1  0  0  0
  6  7  1  0  0  0
  6 21  1  0  0  0
  7  9  2  0  0  0
  7  8  1  0  0  0
  8 11  2  0  0  0
  8 15  1  0  0  0
 10 16  1  0  0  0
 10 17  1  0  0  0
 10 22  1  0  0  0
 11 12  1  0  0  0
 11 23  1  0  0  0
 12 13  2  0  0  0
 12 24  1  0  0  0
 13 14  1  0  0  0
 13 25  1  0  0  0
 14 15  2  0  0  0
 14 18  1  0  0  0
 15 26  1  0  0  0
 16 17  1  0  0  0
 16 27  1  0  0  0
 16 28  1  0  0  0
 17 29  1  0  0  0
 17 30  1  0  0  0
M  END
> <s_m_entry_id>
32709

> <s_m_entry_name>
dock_pv.110

> <s_m_Source_Path>
/home/csk/Desktop/cluster/DUD-E-result/cdk2

> <s_m_Source_File>
dock_pv.maegz

> <i_m_Source_File_Index>
110

> <chembl_id>
CHEMBL326310

> <chembl_pref_name>
None

> <i_lp_mmshare_version>
53161

> <i_f3d_flags>
0

> <r_lp_tautomer_probability>
0.5

> <s_lp_Force_Field>
OPLS_2005

> <r_lp_Energy>
15.700798

> <b_lp_Chiralities_Consistent>
1

> <s_lp_Variant>
CHEMBL301_lig671-1

> <s_i_glide_gridfile>
glide-grid_1h00

> <i_i_glide_lignum>
926

> <i_i_glide_rotatable_bonds>
4

> <r_i_docking_score>
-8.08074996113918

> <r_i_glide_ligand_efficiency>
-0.448930553396621

> <r_i_glide_ligand_efficiency_sa>
-1.1765308832781

> <r_i_glide_ligand_efficiency_ln>
-2.07711510981899

> <r_i_glide_gscore>
-8.08074996113918

> <r_i_glide_lipo>
-2.59769008359776

> <r_i_glide_hbond>
-0.683088753392385

> <r_i_glide_metal>
0

> <r_i_glide_rewards>
-3.1186334660307

> <r_i_glide_evdw>
-32.1914138793945

> <r_i_glide_ecoul>
-5.30972194671631

> <r_i_glide_erotb>
0.724691327858837

> <r_i_glide_esite>
0

> <r_i_glide_emodel>
-52.6921275768116

> <r_i_glide_energy>
-37.5011358261108

> <r_i_glide_einternal>
3.04998064041138

> <i_i_glide_confnum>
4

> <i_i_glide_posenum>
394

> <r_i_glide_eff_state_penalty>
0

> <s_user_duplicate_titles>
CHEMBL301_lig671

> <s_m_subgroup_title>
dock_pv

> <s_m_subgroupid>
dock_pv

> <b_m_subgroup_collapsed>
1

$$$$
CHEMBL301_lig329
                    3D
 Schrodinger Suite 2021-1.
 41 44  0  0  1  0            999 V2000
    2.0560   31.8521    6.4965 O   0  0  0  0  0  0
    1.2492   31.5765    7.3760 C   0  0  0  0  0  0
    0.2289   32.3534    7.7762 N   0  0  0  0  0  0
   -0.5935   31.7189    8.6782 C   0  0  0  0  0  0
   -1.7828   32.1479    9.2646 C   0  0  0  0  0  0
   -2.4222   31.3036   10.1761 C   0  0  0  0  0  0
   -1.8683   30.0582   10.4925 C   0  0  0  0  0  0
   -0.6714   29.6478    9.8956 C   0  0  0  0  0  0
   -0.0438   30.4921    8.9761 C   0  0  0  0  0  0
    1.2018   30.3994    8.2256 C   0  0  0  0  0  0
    2.1761   29.4674    8.2454 C   0  0  0  0  0  0
    3.3501   29.4444    7.5214 N   0  0  0  0  0  0
    4.0912   28.3017    7.2110 C   0  0  0  0  0  0
    4.5778   28.1680    5.9109 C   0  0  0  0  0  0
    5.2450   27.0067    5.5327 C   0  0  0  0  0  0
    5.4386   25.9874    6.4657 C   0  0  0  0  0  0
    4.9940   26.1407    7.7769 C   0  0  0  0  0  0
    4.3214   27.2974    8.1553 C   0  0  0  0  0  0
    6.2566   24.4743    5.9833 S   0  0  0  0  0  0
    5.9095   23.4519    6.9755 O   0  0  0  0  0  0
    5.9952   24.2548    4.5583 O   0  0  0  0  0  0
    7.9848   24.7932    6.2089 N   0  0  0  0  0  0
    8.8381   25.4667    5.3678 C   0  0  0  0  0  0
    8.4741   25.8282    3.7013 S   0  0  0  0  0  0
   10.0578   26.5179    3.5508 C   0  0  0  0  0  0
   10.7044   26.4252    4.7768 C   0  0  0  0  0  0
   10.0272   25.8566    5.7543 N   0  0  0  0  0  0
    0.0581   33.2708    7.3903 H   0  0  0  0  0  0
   -2.2127   33.1106    9.0328 H   0  0  0  0  0  0
   -3.3420   31.6174   10.6479 H   0  0  0  0  0  0
   -2.3636   29.4209   11.2112 H   0  0  0  0  0  0
   -0.2457   28.6909   10.1590 H   0  0  0  0  0  0
    2.0754   28.6160    8.9032 H   0  0  0  0  0  0
    3.4851   30.1975    6.8515 H   0  0  0  0  0  0
    4.4198   28.9504    5.1827 H   0  0  0  0  0  0
    5.6018   26.9006    4.5181 H   0  0  0  0  0  0
    5.1556   25.3660    8.5127 H   0  0  0  0  0  0
    3.9812   27.3969    9.1751 H   0  0  0  0  0  0
    8.3042   24.5148    7.1223 H   0  0  0  0  0  0
   10.4174   26.9213    2.6143 H   0  0  0  0  0  0
   11.7087   26.7748    4.9721 H   0  0  0  0  0  0
  1  2  2  0  0  0
  2  3  1  0  0  0
  2 10  1  0  0  0
  3  4  1  0  0  0
  3 28  1  0  0  0
  4  5  2  0  0  0
  4  9  1  0  0  0
  5  6  1  0  0  0
  5 29  1  0  0  0
  6  7  2  0  0  0
  6 30  1  0  0  0
  7  8  1  0  0  0
  7 31  1  0  0  0
  8  9  2  0  0  0
  8 32  1  0  0  0
  9 10  1  0  0  0
 10 11  2  0  0  0
 11 12  1  0  0  0
 11 33  1  0  0  0
 12 13  1  0  0  0
 12 34  1  0  0  0
 13 14  2  0  0  0
 13 18  1  0  0  0
 14 15  1  0  0  0
 14 35  1  0  0  0
 15 16  2  0  0  0
 15 36  1  0  0  0
 16 17  1  0  0  0
 16 19  1  0  0  0
 17 18  2  0  0  0
 17 37  1  0  0  0
 18 38  1  0  0  0
 19 20  2  0  0  0
 19 21  2  0  0  0
 19 22  1  0  0  0
 22 23  1  0  0  0
 22 39  1  0  0  0
 23 24  1  0  0  0
 23 27  2  0  0  0
 24 25  1  0  0  0
 25 26  2  0  0  0
 25 40  1  0  0  0
 26 27  1  0  0  0
 26 41  1  0  0  0
M  END
> <s_m_entry_id>
32710

> <s_m_entry_name>
dock_pv.111

> <s_m_Source_Path>
/home/csk/Desktop/cluster/DUD-E-result/cdk2

> <s_m_Source_File>
dock_pv.maegz

> <i_m_Source_File_Index>
111

> <chembl_id>
CHEMBL1234088

> <chembl_pref_name>
None

> <i_lp_mmshare_version>
53161

> <i_f3d_flags>
0

> <r_lp_tautomer_probability>
0.499999999999422

> <s_lp_Force_Field>
OPLS_2005

> <r_lp_Energy>
31.438153

> <b_lp_Chiralities_Consistent>
1

> <s_lp_Variant>
CHEMBL301_lig329-1

> <s_i_glide_gridfile>
glide-grid_1h00

> <i_i_glide_lignum>
506

> <i_i_glide_rotatable_bonds>
5

> <r_i_docking_score>
-8.070999856299

> <r_i_glide_ligand_efficiency>
-0.298925920603667

> <r_i_glide_ligand_efficiency_sa>
-0.896777760825789

> <r_i_glide_ligand_efficiency_ln>
-1.87879570571451

> <r_i_glide_gscore>
-8.070999856299

> <r_i_glide_lipo>
-2.4570650025835

> <r_i_glide_hbond>
-0.683393951450415

> <r_i_glide_metal>
0

> <r_i_glide_rewards>
-2.05847422437717

> <r_i_glide_evdw>
-40.6969833374023

> <r_i_glide_ecoul>
-8.32667350769043

> <r_i_glide_erotb>
0.431735334869986

> <r_i_glide_esite>
-0.019951819734221

> <r_i_glide_emodel>
-67.9244729287318

> <r_i_glide_energy>
-49.0236568450928

> <r_i_glide_einternal>
8.05537509918213

> <i_i_glide_confnum>
10

> <i_i_glide_posenum>
338

> <r_i_glide_eff_state_penalty>
0

> <s_user_duplicate_titles>
CHEMBL301_lig329

> <s_m_subgroup_title>
dock_pv

> <s_m_subgroupid>
dock_pv

> <b_m_subgroup_collapsed>
1

$$$$
CHEMBL301_lig86
                    3D
 Schrodinger Suite 2021-1.
 49 51  0  0  1  0            999 V2000
    0.8735   28.3578   10.0034 C   0  0  0  0  0  0
    0.8281   27.2804   10.8725 N   0  0  0  0  0  0
    2.1403   28.2737    9.3760 C   0  0  0  0  0  0
   -0.0419   29.3048    9.7759 N   0  0  0  0  0  0
    2.8256   27.1736    9.8134 N   0  0  0  0  0  0
    1.5185   30.2519    8.1759 N   0  0  0  0  0  0
    2.4455   29.3004    8.4570 C   0  0  0  0  0  0
    2.0229   26.6168   10.6806 C   0  0  0  0  0  0
    0.3368   30.2159    8.8395 C   0  0  0  0  0  0
    3.6595   29.4521    7.7753 N   0  0  0  0  0  0
   -0.2289   26.8896   11.8120 C   0  0  0  0  0  0
   -0.5534   31.2293    8.4714 N   0  0  0  0  0  0
    4.8090   28.5610    7.8853 C   0  0  0  0  0  0
    4.7077   27.3983    6.9065 C   0  0  0  0  0  0
   -1.5980   32.8481   10.0559 C   0  0  0  0  0  0
   -2.6174   34.2520   11.7759 O   0  0  0  0  0  0
   -1.7594   31.5676    9.2218 C   0  0  0  0  0  0
   -2.7355   33.0375   11.0706 C   0  0  0  0  0  0
   -1.5146   26.5260   11.0505 C   0  0  0  0  0  0
   -0.4642   28.0006   12.8534 C   0  0  0  0  0  0
    4.7962   26.0847    7.3753 C   0  0  0  0  0  0
    4.5507   27.6428    5.5369 C   0  0  0  0  0  0
    4.4581   26.5776    4.6449 C   0  0  0  0  0  0
    4.6920   25.0196    6.4837 C   0  0  0  0  0  0
    4.5210   25.2709    5.1234 C   0  0  0  0  0  0
    2.2487   25.7334   11.2587 H   0  0  0  0  0  0
    3.7574   30.2613    7.1732 H   0  0  0  0  0  0
    0.1175   26.0001   12.3414 H   0  0  0  0  0  0
   -0.2046   31.9009    7.8048 H   0  0  0  0  0  0
    5.6946   29.1407    7.6357 H   0  0  0  0  0  0
    4.9522   28.2128    8.9087 H   0  0  0  0  0  0
   -0.6414   32.8264   10.5760 H   0  0  0  0  0  0
   -1.5476   33.7016    9.3790 H   0  0  0  0  0  0
   -2.9512   34.9572   11.2128 H   0  0  0  0  0  0
   -2.6012   31.6779    8.5371 H   0  0  0  0  0  0
   -2.0533   30.7410    9.8703 H   0  0  0  0  0  0
   -3.7010   32.9802   10.5763 H   0  0  0  0  0  0
   -2.7419   32.2142   11.7758 H   0  0  0  0  0  0
   -2.2712   26.1211   11.7232 H   0  0  0  0  0  0
   -1.3293   25.7810   10.2758 H   0  0  0  0  0  0
   -1.9421   27.4070   10.5758 H   0  0  0  0  0  0
   -1.1943   27.6911   13.6020 H   0  0  0  0  0  0
    0.4578   28.2511   13.3760 H   0  0  0  0  0  0
   -0.8433   28.9158   12.3967 H   0  0  0  0  0  0
    4.9256   25.8879    8.4307 H   0  0  0  0  0  0
    4.5007   28.6574    5.1675 H   0  0  0  0  0  0
    4.3340   26.7605    3.5874 H   0  0  0  0  0  0
    4.7409   24.0032    6.8456 H   0  0  0  0  0  0
    4.4416   24.4460    4.4296 H   0  0  0  0  0  0
  1  2  1  0  0  0
  1  3  2  0  0  0
  1  4  1  0  0  0
  2  8  1  0  0  0
  2 11  1  0  0  0
  3  5  1  0  0  0
  3  7  1  0  0  0
  4  9  2  0  0  0
  5  8  2  0  0  0
  6  9  1  0  0  0
  6  7  2  0  0  0
  7 10  1  0  0  0
  8 26  1  0  0  0
  9 12  1  0  0  0
 10 13  1  0  0  0
 10 27  1  0  0  0
 11 19  1  0  0  0
 11 20  1  0  0  0
 11 28  1  0  0  0
 12 17  1  0  0  0
 12 29  1  0  0  0
 13 14  1  0  0  0
 13 30  1  0  0  0
 13 31  1  0  0  0
 14 21  2  0  0  0
 14 22  1  0  0  0
 15 17  1  0  0  0
 15 18  1  0  0  0
 15 32  1  0  0  0
 15 33  1  0  0  0
 16 18  1  0  0  0
 16 34  1  0  0  0
 17 35  1  0  0  0
 17 36  1  0  0  0
 18 37  1  0  0  0
 18 38  1  0  0  0
 19 39  1  0  0  0
 19 40  1  0  0  0
 19 41  1  0  0  0
 20 42  1  0  0  0
 20 43  1  0  0  0
 20 44  1  0  0  0
 21 24  1  0  0  0
 21 45  1  0  0  0
 22 23  2  0  0  0
 22 46  1  0  0  0
 23 25  1  0  0  0
 23 47  1  0  0  0
 24 25  2  0  0  0
 24 48  1  0  0  0
 25 49  1  0  0  0
M  END
> <s_m_entry_id>
32711

> <s_m_entry_name>
dock_pv.112

> <s_m_Source_Path>
/home/csk/Desktop/cluster/DUD-E-result/cdk2

> <s_m_Source_File>
dock_pv.maegz

> <i_m_Source_File_Index>
112

> <chembl_id>
CHEMBL83980

> <chembl_pref_name>
BOHEMINE

> <i_lp_mmshare_version>
53161

> <i_f3d_flags>
0

> <r_lp_tautomer_probability>
1

> <s_lp_Force_Field>
OPLS_2005

> <r_lp_Energy>
16.379861

> <b_lp_Chiralities_Consistent>
1

> <s_lp_Variant>
CHEMBL301_lig86-1

> <s_i_glide_gridfile>
glide-grid_1h00

> <i_i_glide_lignum>
186

> <i_i_glide_rotatable_bonds>
9

> <r_i_docking_score>
-8.06675634286491

> <r_i_glide_ligand_efficiency>
-0.322670253714596

> <r_i_glide_ligand_efficiency_sa>
-0.943493544442796

> <r_i_glide_ligand_efficiency_ln>
-1.91206299443926

> <r_i_glide_gscore>
-8.06675634286491

> <r_i_glide_lipo>
-2.91771810395674

> <r_i_glide_hbond>
-0.548627442750531

> <r_i_glide_metal>
0

> <r_i_glide_rewards>
-2.77613178948191

> <r_i_glide_evdw>
-41.2200546264648

> <r_i_glide_ecoul>
-5.89905309677124

> <r_i_glide_erotb>
1.14386766040935

> <r_i_glide_esite>
-0.022285971246151

> <r_i_glide_emodel>
-67.1710529941523

> <r_i_glide_energy>
-47.1191077232361

> <r_i_glide_einternal>
8.23443126678467

> <i_i_glide_confnum>
124

> <i_i_glide_posenum>
212

> <r_i_glide_eff_state_penalty>
0

> <s_user_duplicate_titles>
CHEMBL301_lig86,134928

> <s_m_subgroup_title>
dock_pv

> <s_m_subgroupid>
dock_pv

> <b_m_subgroup_collapsed>
1

$$$$
CHEMBL301_lig315
                    3D
 Schrodinger Suite 2021-1.
 37 40  0  0  1  0            999 V2000
   -2.3099   31.2361   10.3436 C   0  0  0  0  0  0
   -1.7164   32.0235    9.3525 C   0  0  0  0  0  0
    0.0580   30.3967    8.9986 C   0  0  0  0  0  0
   -0.5529   31.6011    8.7135 C   0  0  0  0  0  0
    0.2066   32.2594    7.7762 N   0  0  0  0  0  0
    1.2559   31.5310    7.3756 C   0  0  0  0  0  0
    1.2577   30.3097    8.1914 C   0  0  0  0  0  0
    2.0577   31.8520    6.5050 O   0  0  0  0  0  0
    2.1527   29.3993    8.2239 N   0  0  0  0  0  0
    3.2653   29.4521    7.3721 N   0  0  0  0  0  0
    4.0724   28.3551    7.0796 C   0  0  0  0  0  0
    4.5189   27.5021    8.0892 C   0  0  0  0  0  0
    5.3726   26.4499    7.7790 C   0  0  0  0  0  0
    5.7613   26.2359    6.4591 C   0  0  0  0  0  0
    5.2729   27.0529    5.4380 C   0  0  0  0  0  0
    4.4494   28.1291    5.7558 C   0  0  0  0  0  0
    6.9498   24.9524    6.1082 S   0  0  0  0  0  0
    8.4596   25.6091    6.6745 N   0  0  0  0  0  0
    6.6280   23.8151    6.9757 O   0  0  0  0  0  0
    7.0561   24.8042    4.6548 O   0  0  0  0  0  0
   -1.6754   30.0267   10.6617 C   0  0  0  0  0  0
   -0.5036   29.5845    9.9969 C   0  0  0  0  0  0
   -1.0527   28.0450   11.5618 N   0  0  0  0  0  0
   -1.9422   29.0535   11.6051 N   0  0  0  0  0  0
   -0.1974   28.3352   10.6156 C   0  0  0  0  0  0
   -3.1965   31.5672   10.8661 H   0  0  0  0  0  0
   -2.1615   32.9772    9.1077 H   0  0  0  0  0  0
    0.0080   33.1794    7.4075 H   0  0  0  0  0  0
    3.2273   30.2225    6.7077 H   0  0  0  0  0  0
    4.2355   27.6725    9.1180 H   0  0  0  0  0  0
    5.7468   25.8213    8.5751 H   0  0  0  0  0  0
    5.5769   26.8955    4.4129 H   0  0  0  0  0  0
    4.1092   28.7912    4.9732 H   0  0  0  0  0  0
    9.0073   24.9439    7.2241 H   0  0  0  0  0  0
    9.0073   26.0590    5.9359 H   0  0  0  0  0  0
   -2.6818   29.0617   12.3001 H   0  0  0  0  0  0
    0.6325   27.6801   10.3962 H   0  0  0  0  0  0
  1 21  2  0  0  0
  1  2  1  0  0  0
  1 26  1  0  0  0
  2  4  2  0  0  0
  2 27  1  0  0  0
  3 22  2  0  0  0
  3  7  1  0  0  0
  3  4  1  0  0  0
  4  5  1  0  0  0
  5  6  1  0  0  0
  5 28  1  0  0  0
  6  7  1  0  0  0
  6  8  2  0  0  0
  7  9  2  0  0  0
  9 10  1  0  0  0
 10 11  1  0  0  0
 10 29  1  0  0  0
 11 12  2  0  0  0
 11 16  1  0  0  0
 12 13  1  0  0  0
 12 30  1  0  0  0
 13 14  2  0  0  0
 13 31  1  0  0  0
 14 15  1  0  0  0
 14 17  1  0  0  0
 15 16  2  0  0  0
 15 32  1  0  0  0
 16 33  1  0  0  0
 17 18  1  0  0  0
 17 19  2  0  0  0
 17 20  2  0  0  0
 18 34  1  0  0  0
 18 35  1  0  0  0
 21 22  1  0  0  0
 21 24  1  0  0  0
 22 25  1  0  0  0
 23 25  2  0  0  0
 23 24  1  0  0  0
 24 36  1  0  0  0
 25 37  1  0  0  0
M  END
> <s_m_entry_id>
32712

> <s_m_entry_name>
dock_pv.113

> <s_m_Source_Path>
/home/csk/Desktop/cluster/DUD-E-result/cdk2

> <s_m_Source_File>
dock_pv.maegz

> <i_m_Source_File_Index>
113

> <chembl_id>
CHEMBL272833

> <chembl_pref_name>
None

> <i_lp_mmshare_version>
53161

> <i_f3d_flags>
0

> <r_lp_tautomer_probability>
1

> <s_lp_Force_Field>
OPLS_2005

> <r_lp_Energy>
58.068488

> <b_lp_Chiralities_Consistent>
1

> <s_lp_Variant>
CHEMBL301_lig315-1

> <s_i_glide_gridfile>
glide-grid_1h00

> <i_i_glide_lignum>
491

> <i_i_glide_rotatable_bonds>
3

> <r_i_docking_score>
-8.06632061620245

> <r_i_glide_ligand_efficiency>
-0.322652824648098

> <r_i_glide_ligand_efficiency_sa>
-0.943442581543249

> <r_i_glide_ligand_efficiency_ln>
-1.91195971416259

> <r_i_glide_gscore>
-8.06632061620245

> <r_i_glide_lipo>
-2.06826072609022

> <r_i_glide_hbond>
-0.542380287683639

> <r_i_glide_metal>
0

> <r_i_glide_rewards>
-2.50299058241599

> <r_i_glide_evdw>
-38.3607444763184

> <r_i_glide_ecoul>
-8.01799297332764

> <r_i_glide_erotb>
0.210910017468746

> <r_i_glide_esite>
-0.0428628676662894

> <r_i_glide_emodel>
-67.1418081452974

> <r_i_glide_energy>
-46.378737449646

> <r_i_glide_einternal>
2.88547730445862

> <i_i_glide_confnum>
1

> <i_i_glide_posenum>
34

> <r_i_glide_eff_state_penalty>
0

> <s_user_duplicate_titles>
CHEMBL301_lig315,440832,225668

> <s_m_subgroup_title>
dock_pv

> <s_m_subgroupid>
dock_pv

> <b_m_subgroup_collapsed>
1

$$$$
CHEMBL301_lig309
                    3D
 Schrodinger Suite 2021-1.
 38 40  0  0  1  0            999 V2000
    0.2334   32.3289    7.7760 N   0  0  0  0  0  0
    1.2567   31.5589    7.3760 C   0  0  0  0  0  0
    1.2040   30.3627    8.1996 C   0  0  0  0  0  0
   -0.6492   29.6134    9.8940 C   0  0  0  0  0  0
   -1.8467   30.0196   10.4929 C   0  0  0  0  0  0
   -2.4075   31.2618   10.1760 C   0  0  0  0  0  0
   -1.7708   32.1114    9.2690 C   0  0  0  0  0  0
   -0.5798   31.6889    8.6824 C   0  0  0  0  0  0
   -0.0252   30.4617    8.9760 C   0  0  0  0  0  0
    2.0580   31.8520    6.4979 O   0  0  0  0  0  0
    2.1554   29.4072    8.1654 C   0  0  0  0  0  0
    3.2827   29.3735    7.3734 N   0  0  0  0  0  0
    4.1023   28.2754    7.1044 C   0  0  0  0  0  0
    4.4581   27.3619    8.0982 C   0  0  0  0  0  0
    5.3192   26.3131    7.7923 C   0  0  0  0  0  0
    5.8079   26.1645    6.4969 C   0  0  0  0  0  0
    5.4195   27.0518    5.4927 C   0  0  0  0  0  0
    4.5826   28.1202    5.8041 C   0  0  0  0  0  0
    6.9690   24.8497    6.1532 S   0  0  0  0  0  0
    6.5667   23.7033    6.9760 O   0  0  0  0  0  0
    7.1013   24.7252    4.6979 O   0  0  0  0  0  0
    8.5013   25.4233    6.7983 N   0  0  2  0  0  0
    9.4018   26.2366    5.9590 C   0  0  0  0  0  0
    0.0585   33.2476    7.3933 H   0  0  0  0  0  0
   -0.2225   28.6545   10.1487 H   0  0  0  0  0  0
   -2.3407   29.3789   11.2096 H   0  0  0  0  0  0
   -3.3302   31.5694   10.6470 H   0  0  0  0  0  0
   -2.2061   33.0713    9.0367 H   0  0  0  0  0  0
    2.0698   28.5409    8.8063 H   0  0  0  0  0  0
    3.3838   30.1204    6.6910 H   0  0  0  0  0  0
    4.1077   27.4755    9.1139 H   0  0  0  0  0  0
    5.6182   25.6306    8.5756 H   0  0  0  0  0  0
    5.8022   26.9463    4.4874 H   0  0  0  0  0  0
    4.3172   28.8286    5.0324 H   0  0  0  0  0  0
    8.9289   24.8567    7.5344 H   0  0  0  0  0  0
   10.1966   26.6519    6.5759 H   0  0  0  0  0  0
    9.8648   25.6067    5.1986 H   0  0  0  0  0  0
    8.8579   27.0516    5.4841 H   0  0  0  0  0  0
  1  2  1  0  0  0
  1  8  1  0  0  0
  1 24  1  0  0  0
  2  3  1  0  0  0
  2 10  2  0  0  0
  3  9  1  0  0  0
  3 11  2  0  0  0
  4  5  2  0  0  0
  4  9  1  0  0  0
  4 25  1  0  0  0
  5  6  1  0  0  0
  5 26  1  0  0  0
  6  7  2  0  0  0
  6 27  1  0  0  0
  7  8  1  0  0  0
  7 28  1  0  0  0
  8  9  2  0  0  0
 11 12  1  0  0  0
 11 29  1  0  0  0
 12 13  1  0  0  0
 12 30  1  0  0  0
 13 14  2  0  0  0
 13 18  1  0  0  0
 14 15  1  0  0  0
 14 31  1  0  0  0
 15 16  2  0  0  0
 15 32  1  0  0  0
 16 17  1  0  0  0
 16 19  1  0  0  0
 17 18  2  0  0  0
 17 33  1  0  0  0
 18 34  1  0  0  0
 19 20  2  0  0  0
 19 21  2  0  0  0
 19 22  1  0  0  0
 22 23  1  0  0  0
 22 35  1  0  0  0
 23 36  1  0  0  0
 23 37  1  0  0  0
 23 38  1  0  0  0
M  END
> <s_m_entry_id>
32713

> <s_m_entry_name>
dock_pv.114

> <s_m_Source_Path>
/home/csk/Desktop/cluster/DUD-E-result/cdk2

> <s_m_Source_File>
dock_pv.maegz

> <i_m_Source_File_Index>
114

> <chembl_id>
CHEMBL1234085

> <chembl_pref_name>
None

> <i_lp_mmshare_version>
53161

> <i_f3d_flags>
0

> <r_lp_tautomer_probability>
0.499999999999422

> <s_lp_Force_Field>
OPLS_2005

> <r_lp_Energy>
33.445173

> <b_lp_Chiralities_Consistent>
1

> <s_lp_Variant>
CHEMBL301_lig309-1

> <s_i_glide_gridfile>
glide-grid_1h00

> <i_i_glide_lignum>
485

> <i_i_glide_rotatable_bonds>
4

> <r_i_docking_score>
-8.06546965576382

> <r_i_glide_ligand_efficiency>
-0.350672593728862

> <r_i_glide_ligand_efficiency_sa>
-0.997266209002105

> <r_i_glide_ligand_efficiency_ln>
-1.95030369639912

> <r_i_glide_gscore>
-8.06546965576382

> <r_i_glide_lipo>
-2.30295324500189

> <r_i_glide_hbond>
-0.635136392584751

> <r_i_glide_metal>
0

> <r_i_glide_rewards>
-2.51610633464633

> <r_i_glide_evdw>
-34.6262969970703

> <r_i_glide_ecoul>
-8.24217796325684

> <r_i_glide_erotb>
0.363796841464677

> <r_i_glide_esite>
-0.00742898065348739

> <r_i_glide_emodel>
-58.5053013897339

> <r_i_glide_energy>
-42.8684749603271

> <r_i_glide_einternal>
7.82167911529541

> <i_i_glide_confnum>
16

> <i_i_glide_posenum>
214

> <r_i_glide_eff_state_penalty>
0

> <s_user_duplicate_titles>
CHEMBL301_lig309

> <s_m_subgroup_title>
dock_pv

> <s_m_subgroupid>
dock_pv

> <b_m_subgroup_collapsed>
1

$$$$
CHEMBL301_lig288
                    3D
 Schrodinger Suite 2021-1.
 36 38  0  0  1  0            999 V2000
    4.8788   22.6970    6.9760 S   0  0  0  0  0  0
    1.9985   29.0509    8.9820 C   0  0  0  0  0  0
    1.6277   30.6775    7.4964 N   0  0  0  0  0  0
    3.1473   29.1619    8.2222 C   0  0  0  0  0  0
    1.0947   30.0162    8.5024 C   0  0  0  0  0  0
    2.8579   30.1852    7.3750 N   0  0  0  0  0  0
    4.7673   24.4341    7.3797 C   0  0  0  0  0  0
    4.3596   28.5244    8.1747 N   0  0  0  0  0  0
    6.1844   22.4632    6.3521 O   0  0  0  0  0  0
    4.4558   21.9437    8.1621 O   0  0  0  0  0  0
   -0.2838   30.3279    8.9911 C   0  0  0  0  0  0
    3.6580   22.4633    5.7583 N   0  0  0  0  0  0
    5.6417   25.3575    6.8041 C   0  0  0  0  0  0
    3.7885   24.8591    8.2778 C   0  0  0  0  0  0
   -0.9366   29.4537    9.8674 C   0  0  0  0  0  0
   -0.9323   31.4992    8.5768 C   0  0  0  0  0  0
    4.5016   27.1457    7.9678 C   0  0  0  0  0  0
   -2.8869   30.8640    9.8191 C   0  0  0  0  0  0
    5.5095   26.7113    7.1044 C   0  0  0  0  0  0
    3.6581   26.2102    8.5760 C   0  0  0  0  0  0
   -2.2360   29.7266   10.2847 C   0  0  0  0  0  0
   -2.2353   31.7616    8.9826 C   0  0  0  0  0  0
   -4.1665   31.0952   10.1759 F   0  0  0  0  0  0
    1.8380   28.3699    9.8026 H   0  0  0  0  0  0
    3.5147   30.5571    6.6939 H   0  0  0  0  0  0
    5.1392   29.0311    7.7833 H   0  0  0  0  0  0
    2.7184   22.6872    6.1061 H   0  0  0  0  0  0
    3.8609   22.9408    4.8770 H   0  0  0  0  0  0
    6.4093   25.0360    6.1135 H   0  0  0  0  0  0
    3.1133   24.1480    8.7313 H   0  0  0  0  0  0
   -0.4502   28.5550   10.2161 H   0  0  0  0  0  0
   -0.4383   32.2040    7.9224 H   0  0  0  0  0  0
    6.1725   27.4218    6.6307 H   0  0  0  0  0  0
    2.8956   26.5168    9.2719 H   0  0  0  0  0  0
   -2.7486   29.0526   10.9546 H   0  0  0  0  0  0
   -2.7420   32.6521    8.6448 H   0  0  0  0  0  0
  1  7  1  0  0  0
  1  9  2  0  0  0
  1 10  2  0  0  0
  1 12  1  0  0  0
  2  4  2  0  0  0
  2  5  1  0  0  0
  2 24  1  0  0  0
  3  5  2  0  0  0
  3  6  1  0  0  0
  4  6  1  0  0  0
  4  8  1  0  0  0
  5 11  1  0  0  0
  6 25  1  0  0  0
  7 13  2  0  0  0
  7 14  1  0  0  0
  8 17  1  0  0  0
  8 26  1  0  0  0
 11 15  2  0  0  0
 11 16  1  0  0  0
 12 27  1  0  0  0
 12 28  1  0  0  0
 13 19  1  0  0  0
 13 29  1  0  0  0
 14 20  2  0  0  0
 14 30  1  0  0  0
 15 21  1  0  0  0
 15 31  1  0  0  0
 16 22  2  0  0  0
 16 32  1  0  0  0
 17 20  1  0  0  0
 17 19  2  0  0  0
 18 22  1  0  0  0
 18 23  1  0  0  0
 18 21  2  0  0  0
 19 33  1  0  0  0
 20 34  1  0  0  0
 21 35  1  0  0  0
 22 36  1  0  0  0
M  END
> <s_m_entry_id>
32714

> <s_m_entry_name>
dock_pv.115

> <s_m_Source_Path>
/home/csk/Desktop/cluster/DUD-E-result/cdk2

> <s_m_Source_File>
dock_pv.maegz

> <i_m_Source_File_Index>
115

> <chembl_id>
CHEMBL103382

> <chembl_pref_name>
None

> <i_lp_mmshare_version>
53161

> <i_f3d_flags>
0

> <r_lp_tautomer_probability>
0.157399999843308

> <s_lp_Force_Field>
OPLS_2005

> <r_lp_Energy>
21.254978

> <b_lp_Chiralities_Consistent>
1

> <s_lp_Variant>
CHEMBL301_lig288-2

> <s_i_glide_gridfile>
glide-grid_1h00

> <i_i_glide_lignum>
459

> <i_i_glide_rotatable_bonds>
4

> <r_i_docking_score>
-8.06367626686374

> <r_i_glide_ligand_efficiency>
-0.350594620298424

> <r_i_glide_ligand_efficiency_sa>
-0.997044462938209

> <r_i_glide_ligand_efficiency_ln>
-1.94987003870153

> <r_i_glide_gscore>
-8.06367626686374

> <r_i_glide_lipo>
-2.46332013861025

> <r_i_glide_hbond>
-0.608

> <r_i_glide_metal>
0

> <r_i_glide_rewards>
-2.31337949504439

> <r_i_glide_evdw>
-30.7953453063965

> <r_i_glide_ecoul>
-10.2426881790161

> <r_i_glide_erotb>
0.511502296574759

> <r_i_glide_esite>
-0.114308437611623

> <r_i_glide_emodel>
-57.6167926221779

> <r_i_glide_energy>
-41.0380334854126

> <r_i_glide_einternal>
6.63854837417603

> <i_i_glide_confnum>
6

> <i_i_glide_posenum>
298

> <r_i_glide_eff_state_penalty>
0

> <s_user_duplicate_titles>
CHEMBL301_lig288,CHEMBL301_lig288,166103

> <s_m_subgroup_title>
dock_pv

> <s_m_subgroupid>
dock_pv

> <b_m_subgroup_collapsed>
1

$$$$
CHEMBL301_lig827
                    3D
 Schrodinger Suite 2021-1.
 49 51  0  0  1  0            999 V2000
   -0.3363   28.7022   12.1744 C   0  0  0  0  0  0
   -0.7965   29.8275   11.6753 N   0  0  0  0  0  0
   -1.9409   29.4856   11.1320 C   0  0  0  0  0  0
   -2.3115   28.2047   11.3759 O   0  0  0  0  0  0
   -1.2617   27.6772   12.0493 C   0  0  0  0  0  0
   -2.8146   30.2998   10.1952 C   0  0  0  0  0  0
   -2.1839   31.9572    9.7764 S   0  0  0  0  0  0
   -0.7282   31.6264    8.8237 C   0  0  0  0  0  0
    0.0446   32.5758    8.1647 C   0  0  0  0  0  0
    1.0926   32.1510    7.4758 N   0  0  0  0  0  0
    1.3064   30.8770    7.6828 C   0  0  0  0  0  0
    0.0447   30.0779    8.5757 S   0  0  0  0  0  0
    2.4579   30.2528    7.2148 N   0  0  0  0  0  0
    3.0971   29.1853    7.7477 C   0  0  0  0  0  0
    4.3115   28.6567    6.9411 C   0  0  2  0  0  0
    2.7725   28.6514    8.8094 O   0  0  0  0  0  0
   -1.3270   26.2012   12.4264 C   0  0  0  0  0  0
   -1.4461   25.3459   11.1438 C   0  0  0  0  0  0
   -2.5603   25.9590   13.3225 C   0  0  0  0  0  0
   -0.0492   25.7923   13.1926 C   0  0  0  0  0  0
    3.8703   28.4529    5.4603 C   0  0  0  0  0  0
    4.8980   27.6380    4.6538 C   0  0  0  0  0  0
    5.4075   26.3987    5.4149 C   0  0  0  0  0  0
    5.9534   26.8100    6.7059 N   0  0  2  0  0  0
    4.8961   27.3554    7.5608 C   0  0  0  0  0  0
    0.6572   28.6424   12.5822 H   0  0  0  0  0  0
   -2.9766   29.7654    9.2632 H   0  0  0  0  0  0
   -3.8075   30.4307   10.6201 H   0  0  0  0  0  0
   -0.1916   33.6269    8.1757 H   0  0  0  0  0  0
    2.9724   30.7404    6.4924 H   0  0  0  0  0  0
    5.0631   29.4503    6.9759 H   0  0  0  0  0  0
   -1.4966   24.2804   11.3725 H   0  0  0  0  0  0
   -0.5954   25.5023   10.4802 H   0  0  0  0  0  0
   -2.3414   25.5990   10.5755 H   0  0  0  0  0  0
   -2.5160   26.5635   14.2307 H   0  0  0  0  0  0
   -3.4846   26.2296   12.8105 H   0  0  0  0  0  0
   -2.6479   24.9142   13.6210 H   0  0  0  0  0  0
    0.0759   26.3853   14.1011 H   0  0  0  0  0  0
   -0.0707   24.7411   13.4858 H   0  0  0  0  0  0
    0.8466   25.9439   12.5864 H   0  0  0  0  0  0
    2.9591   27.8574    5.3947 H   0  0  0  0  0  0
    3.7501   29.4194    4.9763 H   0  0  0  0  0  0
    4.4364   27.3070    3.7223 H   0  0  0  0  0  0
    5.7333   28.2577    4.3336 H   0  0  0  0  0  0
    4.6082   25.6687    5.5609 H   0  0  0  0  0  0
    6.1968   25.9051    4.8460 H   0  0  0  0  0  0
    6.6105   27.5561    6.4944 H   0  0  0  0  0  0
    5.2806   27.5242    8.5680 H   0  0  0  0  0  0
    4.1236   26.5863    7.6309 H   0  0  0  0  0  0
  1  5  2  0  0  0
  1  2  1  0  0  0
  1 26  1  0  0  0
  2  3  2  0  0  0
  3  6  1  0  0  0
  3  4  1  0  0  0
  4  5  1  0  0  0
  5 17  1  0  0  0
  6  7  1  0  0  0
  6 27  1  0  0  0
  6 28  1  0  0  0
  7  8  1  0  0  0
  8 12  1  0  0  0
  8  9  2  0  0  0
  9 10  1  0  0  0
  9 29  1  0  0  0
 10 11  2  0  0  0
 11 13  1  0  0  0
 11 12  1  0  0  0
 13 14  1  0  0  0
 13 30  1  0  0  0
 14 15  1  0  0  0
 14 16  2  0  0  0
 15 21  1  0  0  0
 15 25  1  0  0  0
 15 31  1  0  0  0
 17 18  1  0  0  0
 17 19  1  0  0  0
 17 20  1  0  0  0
 18 32  1  0  0  0
 18 33  1  0  0  0
 18 34  1  0  0  0
 19 35  1  0  0  0
 19 36  1  0  0  0
 19 37  1  0  0  0
 20 38  1  0  0  0
 20 39  1  0  0  0
 20 40  1  0  0  0
 21 22  1  0  0  0
 21 41  1  0  0  0
 21 42  1  0  0  0
 22 23  1  0  0  0
 22 43  1  0  0  0
 22 44  1  0  0  0
 23 24  1  0  0  0
 23 45  1  0  0  0
 23 46  1  0  0  0
 24 25  1  0  0  0
 24 47  1  0  0  0
 25 48  1  0  0  0
 25 49  1  0  0  0
M  END
> <s_m_entry_id>
32715

> <s_m_entry_name>
dock_pv.116

> <s_m_Source_Path>
/home/csk/Desktop/cluster/DUD-E-result/cdk2

> <s_m_Source_File>
dock_pv.maegz

> <i_m_Source_File_Index>
116

> <chembl_id>
CHEMBL297570

> <chembl_pref_name>
None

> <i_lp_mmshare_version>
53161

> <i_f3d_flags>
0

> <r_lp_tautomer_probability>
0.999000488399163

> <s_lp_Force_Field>
OPLS_2005

> <r_lp_Energy>
18.416147

> <b_lp_Chiralities_Consistent>
1

> <s_lp_Variant>
CHEMBL301_lig827-1

> <s_i_glide_gridfile>
glide-grid_1h00

> <i_i_glide_lignum>
1175

> <i_i_glide_rotatable_bonds>
7

> <r_i_docking_score>
-8.06351190391823

> <r_i_glide_ligand_efficiency>
-0.322540476156729

> <r_i_glide_ligand_efficiency_sa>
-0.943114072561978

> <r_i_glide_ligand_efficiency_ln>
-1.91129396518091

> <r_i_glide_gscore>
-8.06351190391823

> <r_i_glide_lipo>
-2.92314967160872

> <r_i_glide_hbond>
-0.575705353665431

> <r_i_glide_metal>
0

> <r_i_glide_rewards>
-2.24409895761416

> <r_i_glide_evdw>
-42.9746322631836

> <r_i_glide_ecoul>
-6.50491333007812

> <r_i_glide_erotb>
0.803910691640973

> <r_i_glide_esite>
0

> <r_i_glide_emodel>
-69.7709517567356

> <r_i_glide_energy>
-49.4795455932617

> <r_i_glide_einternal>
4.09040594100952

> <i_i_glide_confnum>
55

> <i_i_glide_posenum>
383

> <r_i_glide_eff_state_penalty>
0

> <s_user_duplicate_titles>
CHEMBL301_lig827,71352

> <s_m_subgroup_title>
dock_pv

> <s_m_subgroupid>
dock_pv

> <b_m_subgroup_collapsed>
1

$$$$
CHEMBL301_lig332
                    3D
 Schrodinger Suite 2021-1.
 36 39  0  0  1  0            999 V2000
   -2.4485   31.2805   10.1520 C   0  0  0  0  0  0
   -1.7585   32.0806    9.2395 C   0  0  0  0  0  0
    0.0080   30.4233    8.9534 C   0  0  0  0  0  0
   -0.5653   31.6478    8.6688 C   0  0  0  0  0  0
    0.2352   32.3088    7.7766 N   0  0  0  0  0  0
    1.2580   31.5512    7.3722 C   0  0  0  0  0  0
    1.2361   30.3278    8.1803 C   0  0  0  0  0  0
    2.0580   31.8520    6.4949 O   0  0  0  0  0  0
    2.1241   29.4076    8.2148 N   0  0  0  0  0  0
    3.2581   29.4520    7.3791 N   0  0  0  0  0  0
    4.0579   28.3475    7.0876 C   0  0  0  0  0  0
    4.4578   27.4617    8.0885 C   0  0  0  0  0  0
    5.2928   26.3936    7.7761 C   0  0  0  0  0  0
    5.7107   26.2009    6.4609 C   0  0  0  0  0  0
    5.2684   27.0530    5.4480 C   0  0  0  0  0  0
    4.4580   28.1380    5.7681 C   0  0  0  0  0  0
    6.8696   24.8918    6.0986 S   0  0  0  0  0  0
    8.4027   25.5207    6.6360 N   0  0  0  0  0  0
    6.5404   23.7639    6.9761 O   0  0  0  0  0  0
    6.9473   24.7347    4.6439 O   0  0  0  0  0  0
   -1.8583   30.0544   10.4880 C   0  0  0  0  0  0
   -0.6456   29.6101    9.8955 C   0  0  0  0  0  0
   -0.3279   28.3848   10.4044 N   0  0  0  0  0  0
   -1.2933   28.0588   11.3324 N   0  0  0  0  0  0
   -2.1994   29.0520   11.3759 N   0  0  0  0  0  0
   -3.3840   31.6136   10.5760 H   0  0  0  0  0  0
   -2.1634   33.0477    8.9834 H   0  0  0  0  0  0
    0.0576   33.2332    7.4078 H   0  0  0  0  0  0
    3.2366   30.2265    6.7191 H   0  0  0  0  0  0
    4.1406   27.6148    9.1096 H   0  0  0  0  0  0
    5.6277   25.7265    8.5565 H   0  0  0  0  0  0
    5.5931   26.9107    4.4271 H   0  0  0  0  0  0
    4.1507   28.8188    4.9888 H   0  0  0  0  0  0
    8.9354   24.8581    7.2033 H   0  0  0  0  0  0
    8.9562   25.9413    5.8847 H   0  0  0  0  0  0
   -2.9645   29.0354   12.0417 H   0  0  0  0  0  0
  1 21  2  0  0  0
  1  2  1  0  0  0
  1 26  1  0  0  0
  2  4  2  0  0  0
  2 27  1  0  0  0
  3 22  2  0  0  0
  3  7  1  0  0  0
  3  4  1  0  0  0
  4  5  1  0  0  0
  5  6  1  0  0  0
  5 28  1  0  0  0
  6  7  1  0  0  0
  6  8  2  0  0  0
  7  9  2  0  0  0
  9 10  1  0  0  0
 10 11  1  0  0  0
 10 29  1  0  0  0
 11 12  2  0  0  0
 11 16  1  0  0  0
 12 13  1  0  0  0
 12 30  1  0  0  0
 13 14  2  0  0  0
 13 31  1  0  0  0
 14 15  1  0  0  0
 14 17  1  0  0  0
 15 16  2  0  0  0
 15 32  1  0  0  0
 16 33  1  0  0  0
 17 18  1  0  0  0
 17 19  2  0  0  0
 17 20  2  0  0  0
 18 34  1  0  0  0
 18 35  1  0  0  0
 21 22  1  0  0  0
 21 25  1  0  0  0
 22 23  1  0  0  0
 23 24  2  0  0  0
 24 25  1  0  0  0
 25 36  1  0  0  0
M  END
> <s_m_entry_id>
32716

> <s_m_entry_name>
dock_pv.117

> <s_m_Source_Path>
/home/csk/Desktop/cluster/DUD-E-result/cdk2

> <s_m_Source_File>
dock_pv.maegz

> <i_m_Source_File_Index>
117

> <chembl_id>
CHEMBL271952

> <chembl_pref_name>
None

> <i_lp_mmshare_version>
53161

> <i_f3d_flags>
0

> <r_lp_tautomer_probability>
0.25

> <s_lp_Force_Field>
OPLS_2005

> <r_lp_Energy>
65.932473

> <b_lp_Chiralities_Consistent>
1

> <s_lp_Variant>
CHEMBL301_lig332-2

> <s_i_glide_gridfile>
glide-grid_1h00

> <i_i_glide_lignum>
510

> <i_i_glide_rotatable_bonds>
3

> <r_i_docking_score>
-8.05784850581721

> <r_i_glide_ligand_efficiency>
-0.322313940232688

> <r_i_glide_ligand_efficiency_sa>
-0.942451677502451

> <r_i_glide_ligand_efficiency_ln>
-1.90995157011262

> <r_i_glide_gscore>
-8.05784850581721

> <r_i_glide_lipo>
-1.94000357800778

> <r_i_glide_hbond>
-0.567374453557026

> <r_i_glide_metal>
0

> <r_i_glide_rewards>
-2.59382318609652

> <r_i_glide_evdw>
-38.8770446777344

> <r_i_glide_ecoul>
-7.87205982208252

> <r_i_glide_erotb>
0.209872463547784

> <r_i_glide_esite>
-0.0418585445045704

> <r_i_glide_emodel>
-68.3905647520869

> <r_i_glide_energy>
-46.7491044998169

> <r_i_glide_einternal>
2.3228178024292

> <i_i_glide_confnum>
1

> <i_i_glide_posenum>
15

> <r_i_glide_eff_state_penalty>
0

> <s_user_duplicate_titles>
CHEMBL301_lig332,CHEMBL301_lig332,CHEMBL301_lig332,440675,226159

> <s_m_subgroup_title>
dock_pv

> <s_m_subgroupid>
dock_pv

> <b_m_subgroup_collapsed>
1

$$$$
CHEMBL301_lig1365
                    3D
 Schrodinger Suite 2021-1.
 63 65  0  0  1  0            999 V2000
   -0.7227   28.3328   12.9783 C   0  0  0  0  0  0
   -1.1927   27.5985   11.7085 C   0  0  0  0  0  0
   -0.0891   26.7702   10.9887 C   0  0  1  0  0  0
    1.1258   27.5464   10.7808 N   0  0  0  0  0  0
    1.2772   28.4418    9.7335 C   0  0  0  0  0  0
    2.4858   28.3608    9.1288 N   0  0  0  0  0  0
    2.7835   29.2813    8.1766 C   0  0  0  0  0  0
    4.0493   29.2866    7.5813 N   0  0  0  0  0  0
    4.9660   28.1515    7.6431 C   0  0  0  0  0  0
    4.7543   27.2257    6.4516 C   0  0  0  0  0  0
    4.6582   25.8414    6.6318 C   0  0  0  0  0  0
    4.4572   25.0135    5.5239 C   0  0  0  0  0  0
    4.3638   25.5992    4.2591 C   0  0  0  0  0  0
    4.4591   26.9383    4.0588 N   0  0  0  0  0  0
    4.6566   27.7263    5.1455 C   0  0  0  0  0  0
    1.8516   30.2814    7.8580 C   0  0  0  0  0  0
    1.9106   31.3720    7.0296 N   0  0  0  0  0  0
    0.8574   32.0658    7.3760 C   0  0  0  0  0  0
   -0.0264   31.4150    8.2231 N   0  0  0  0  0  0
   -1.2773   31.9738    8.7767 C   0  0  0  0  0  0
   -1.0411   32.4213   10.2194 C   0  0  0  0  0  0
   -2.4627   30.9842    8.7655 C   0  0  0  0  0  0
    0.6303   30.2515    8.5752 C   0  0  0  0  0  0
    0.2849   29.3304    9.4773 N   0  0  0  0  0  0
    0.2071   25.3966   11.6870 C   0  0  1  0  0  0
   -0.9399   24.5778   11.4814 O   0  0  0  0  0  0
    1.5230   24.6000   11.2984 C   0  0  0  0  0  0
    2.8161   25.2820   11.8003 C   0  0  0  0  0  0
    1.6834   24.4326    9.7761 C   0  0  0  0  0  0
    1.4997   23.1838   11.9406 C   0  0  0  0  0  0
   -1.5419   28.8752   13.4476 H   0  0  0  0  0  0
   -0.3203   27.6365   13.7143 H   0  0  0  0  0  0
    0.0546   29.0640   12.7527 H   0  0  0  0  0  0
   -1.6072   28.3340   11.0191 H   0  0  0  0  0  0
   -2.0367   26.9592   11.9670 H   0  0  0  0  0  0
   -0.4622   26.5459    9.9861 H   0  0  0  0  0  0
    1.9702   27.0153   10.9278 H   0  0  0  0  0  0
    4.2504   30.0318    6.9206 H   0  0  0  0  0  0
    5.9818   28.5415    7.6009 H   0  0  0  0  0  0
    4.8649   27.6074    8.5847 H   0  0  0  0  0  0
    4.7260   25.4121    7.6212 H   0  0  0  0  0  0
    4.3702   23.9439    5.6434 H   0  0  0  0  0  0
    4.2076   24.9940    3.3761 H   0  0  0  0  0  0
    4.7374   28.7865    4.9529 H   0  0  0  0  0  0
    0.5998   33.0462    6.9975 H   0  0  0  0  0  0
   -1.5421   32.8455    8.1761 H   0  0  0  0  0  0
   -1.8944   32.9791   10.6073 H   0  0  0  0  0  0
   -0.8871   31.5561   10.8679 H   0  0  0  0  0  0
   -0.1652   33.0521   10.3081 H   0  0  0  0  0  0
   -3.3527   31.4529    9.1878 H   0  0  0  0  0  0
   -2.7418   30.6522    7.7761 H   0  0  0  0  0  0
   -2.2649   30.0975    9.3675 H   0  0  0  0  0  0
    0.2838   25.5777   12.7603 H   0  0  0  0  0  0
   -1.7203   25.0617   11.7642 H   0  0  0  0  0  0
    3.6580   24.6520   11.5903 H   0  0  0  0  0  0
    2.8375   25.4520   12.8671 H   0  0  0  0  0  0
    3.0762   26.2157   11.3120 H   0  0  0  0  0  0
    0.8580   23.8664    9.3760 H   0  0  0  0  0  0
    1.7232   25.3860    9.2525 H   0  0  0  0  0  0
    2.5919   23.8898    9.5126 H   0  0  0  0  0  0
    0.6850   22.5725   11.5501 H   0  0  0  0  0  0
    2.4184   22.6287   11.7498 H   0  0  0  0  0  0
    1.3698   23.2387   13.0216 H   0  0  0  0  0  0
  1  2  1  0  0  0
  1 31  1  0  0  0
  1 32  1  0  0  0
  1 33  1  0  0  0
  2  3  1  0  0  0
  2 34  1  0  0  0
  2 35  1  0  0  0
  3  4  1  0  0  0
  3 25  1  0  0  0
  3 36  1  0  0  0
  4  5  1  0  0  0
  4 37  1  0  0  0
  5  6  2  0  0  0
  5 24  1  0  0  0
  6  7  1  0  0  0
  7  8  1  0  0  0
  7 16  2  0  0  0
  8  9  1  0  0  0
  8 38  1  0  0  0
  9 10  1  0  0  0
  9 39  1  0  0  0
  9 40  1  0  0  0
 10 11  2  0  0  0
 10 15  1  0  0  0
 11 12  1  0  0  0
 11 41  1  0  0  0
 12 13  2  0  0  0
 12 42  1  0  0  0
 13 14  1  0  0  0
 13 43  1  0  0  0
 14 15  2  0  0  0
 15 44  1  0  0  0
 16 17  1  0  0  0
 16 23  1  0  0  0
 17 18  2  0  0  0
 18 19  1  0  0  0
 18 45  1  0  0  0
 19 20  1  0  0  0
 19 23  1  0  0  0
 20 21  1  0  0  0
 20 22  1  0  0  0
 20 46  1  0  0  0
 21 47  1  0  0  0
 21 48  1  0  0  0
 21 49  1  0  0  0
 22 50  1  0  0  0
 22 51  1  0  0  0
 22 52  1  0  0  0
 23 24  2  0  0  0
 25 26  1  0  0  0
 25 27  1  0  0  0
 25 53  1  0  0  0
 26 54  1  0  0  0
 27 28  1  0  0  0
 27 29  1  0  0  0
 27 30  1  0  0  0
 28 55  1  0  0  0
 28 56  1  0  0  0
 28 57  1  0  0  0
 29 58  1  0  0  0
 29 59  1  0  0  0
 29 60  1  0  0  0
 30 61  1  0  0  0
 30 62  1  0  0  0
 30 63  1  0  0  0
M  END
> <s_m_entry_id>
32717

> <s_m_entry_name>
dock_pv.118

> <s_m_Source_Path>
/home/csk/Desktop/cluster/DUD-E-result/cdk2

> <s_m_Source_File>
dock_pv.maegz

> <i_m_Source_File_Index>
118

> <chembl_id>
CHEMBL1922122

> <chembl_pref_name>
None

> <i_lp_mmshare_version>
53161

> <i_f3d_flags>
0

> <r_lp_tautomer_probability>
1

> <s_lp_Force_Field>
OPLS_2005

> <r_lp_Energy>
26.550087

> <b_lp_Chiralities_Consistent>
1

> <s_lp_Variant>
CHEMBL301_lig1365-2

> <s_i_glide_gridfile>
glide-grid_1h00

> <i_i_glide_lignum>
1825

> <i_i_glide_rotatable_bonds>
10

> <r_i_docking_score>
-8.04912799395793

> <r_i_glide_ligand_efficiency>
-0.268304266465264

> <r_i_glide_ligand_efficiency_sa>
-0.833683737301801

> <r_i_glide_ligand_efficiency_ln>
-1.82884958250114

> <r_i_glide_gscore>
-8.04912799395793

> <r_i_glide_lipo>
-2.90354471094362

> <r_i_glide_hbond>
-0.348451329960855

> <r_i_glide_metal>
0

> <r_i_glide_rewards>
-2.4982096903373

> <r_i_glide_evdw>
-40.5579566955566

> <r_i_glide_ecoul>
-5.00282001495361

> <r_i_glide_erotb>
0.488783614327632

> <r_i_glide_esite>
-0.00938504002290978

> <r_i_glide_emodel>
-60.7905241590134

> <r_i_glide_energy>
-45.5607767105103

> <r_i_glide_einternal>
11.0521717071533

> <i_i_glide_confnum>
24

> <i_i_glide_posenum>
373

> <r_i_glide_eff_state_penalty>
0

> <s_user_duplicate_titles>
CHEMBL301_lig1365

> <s_m_subgroup_title>
dock_pv

> <s_m_subgroupid>
dock_pv

> <b_m_subgroup_collapsed>
1

$$$$
CHEMBL301_lig415
                    3D
 Schrodinger Suite 2021-1.
 49 52  0  0  1  0            999 V2000
    0.9041   31.0520    7.8378 N   0  0  0  0  0  0
    1.6711   29.9736    8.1461 C   0  0  0  0  0  0
    1.3332   29.0587    9.1568 C   0  0  0  0  0  0
    0.1395   29.2268    9.8607 C   0  0  0  0  0  0
   -0.1927   31.2487    8.5760 C   0  0  0  0  0  0
   -0.5868   30.3504    9.5652 N   0  0  0  0  0  0
   -1.7227   30.8039   10.1500 N   0  0  0  0  0  0
   -1.9134   31.9462    9.5200 C   0  0  0  0  0  0
   -1.0581   32.2907    8.5760 N   0  0  0  0  0  0
   -0.3545   28.3659   10.8556 N   0  0  0  0  0  0
   -0.0757   27.0698   11.3194 C   0  0  0  0  0  0
    0.7758   26.1713   10.6684 C   0  0  0  0  0  0
    0.9392   24.8764   11.1505 C   0  0  0  0  0  0
    0.2513   24.4685   12.2930 C   0  0  0  0  0  0
   -0.5980   25.3580   12.9532 C   0  0  0  0  0  0
   -0.7595   26.6525   12.4641 C   0  0  0  0  0  0
    0.4921   22.8094   12.9203 S   0  0  0  0  0  0
   -0.5805   21.8013   11.9874 N   0  0  0  0  0  0
    1.8625   22.4134   12.5754 O   0  0  0  0  0  0
    0.0167   22.7864   14.3076 O   0  0  0  0  0  0
    2.8414   29.8624    7.3758 N   0  0  0  0  0  0
    3.6345   28.6440    7.2745 C   0  0  1  0  0  0
    4.0500   28.3517    5.8193 C   0  0  0  0  0  0
    4.6678   26.9403    5.7043 C   0  0  0  0  0  0
    5.7612   26.6472    6.7665 C   0  0  1  0  0  0
    5.4483   27.2128    8.1760 C   0  0  0  0  0  0
    4.8626   28.6445    8.1753 C   0  0  0  0  0  0
    5.9843   25.2553    6.8606 O   0  0  0  0  0  0
    2.0161   28.2739    9.4184 H   0  0  0  0  0  0
   -2.7419   32.5895    9.7797 H   0  0  0  0  0  0
   -1.1256   28.8063   11.3389 H   0  0  0  0  0  0
    1.3063   26.4332    9.7758 H   0  0  0  0  0  0
    1.5989   24.1966   10.6308 H   0  0  0  0  0  0
   -1.1354   25.0528   13.8391 H   0  0  0  0  0  0
   -1.4300   27.3277   12.9773 H   0  0  0  0  0  0
   -0.0663   21.1893   11.3490 H   0  0  0  0  0  0
   -1.2174   21.2552   12.5766 H   0  0  0  0  0  0
    3.1419   30.6618    6.8332 H   0  0  0  0  0  0
    3.0033   27.8518    7.6423 H   0  0  0  0  0  0
    3.1941   28.4347    5.1495 H   0  0  0  0  0  0
    4.7754   29.0918    5.4785 H   0  0  0  0  0  0
    3.8730   26.1959    5.7771 H   0  0  0  0  0  0
    5.0901   26.8195    4.7056 H   0  0  0  0  0  0
    6.7180   27.0521    6.4401 H   0  0  0  0  0  0
    4.7390   26.5489    8.6723 H   0  0  0  0  0  0
    6.3481   27.1802    8.7901 H   0  0  0  0  0  0
    5.6038   29.3588    7.8122 H   0  0  0  0  0  0
    4.6081   28.9519    9.1873 H   0  0  0  0  0  0
    5.9543   24.8839    5.9754 H   0  0  0  0  0  0
  1  2  2  0  0  0
  1  5  1  0  0  0
  2  3  1  0  0  0
  2 21  1  0  0  0
  3  4  2  0  0  0
  3 29  1  0  0  0
  4  6  1  0  0  0
  4 10  1  0  0  0
  5  9  2  0  0  0
  5  6  1  0  0  0
  6  7  1  0  0  0
  7  8  2  0  0  0
  8  9  1  0  0  0
  8 30  1  0  0  0
 10 11  1  0  0  0
 10 31  1  0  0  0
 11 16  2  0  0  0
 11 12  1  0  0  0
 12 13  2  0  0  0
 12 32  1  0  0  0
 13 14  1  0  0  0
 13 33  1  0  0  0
 14 15  2  0  0  0
 14 17  1  0  0  0
 15 16  1  0  0  0
 15 34  1  0  0  0
 16 35  1  0  0  0
 17 18  1  0  0  0
 17 19  2  0  0  0
 17 20  2  0  0  0
 18 36  1  0  0  0
 18 37  1  0  0  0
 21 22  1  0  0  0
 21 38  1  0  0  0
 22 23  1  0  0  0
 22 27  1  0  0  0
 22 39  1  0  0  0
 23 24  1  0  0  0
 23 40  1  0  0  0
 23 41  1  0  0  0
 24 25  1  0  0  0
 24 42  1  0  0  0
 24 43  1  0  0  0
 25 26  1  0  0  0
 25 28  1  0  0  0
 25 44  1  0  0  0
 26 27  1  0  0  0
 26 45  1  0  0  0
 26 46  1  0  0  0
 27 47  1  0  0  0
 27 48  1  0  0  0
 28 49  1  0  0  0
M  END
> <s_m_entry_id>
32718

> <s_m_entry_name>
dock_pv.119

> <s_m_Source_Path>
/home/csk/Desktop/cluster/DUD-E-result/cdk2

> <s_m_Source_File>
dock_pv.maegz

> <i_m_Source_File_Index>
119

> <chembl_id>
CHEMBL203573

> <chembl_pref_name>
None

> <i_lp_mmshare_version>
53161

> <i_f3d_flags>
0

> <r_lp_tautomer_probability>
1

> <s_lp_Force_Field>
OPLS_2005

> <r_lp_Energy>
28.343031

> <b_lp_Chiralities_Consistent>
1

> <s_lp_Variant>
CHEMBL301_lig415-1

> <s_i_glide_gridfile>
glide-grid_1h00

> <i_i_glide_lignum>
603

> <i_i_glide_rotatable_bonds>
6

> <r_i_docking_score>
-8.03676677388452

> <r_i_glide_ligand_efficiency>
-0.28702738478159

> <r_i_glide_ligand_efficiency_sa>
-0.87158419028599

> <r_i_glide_ligand_efficiency_ln>
-1.85512174113855

> <r_i_glide_gscore>
-8.03676677388452

> <r_i_glide_lipo>
-2.32092446770899

> <r_i_glide_hbond>
-0.280003678824518

> <r_i_glide_metal>
0

> <r_i_glide_rewards>
-2.55236136828153

> <r_i_glide_evdw>
-46.781005859375

> <r_i_glide_ecoul>
-6.44603681564331

> <r_i_glide_erotb>
0.482459790797131

> <r_i_glide_esite>
-0.0599812345513654

> <r_i_glide_emodel>
-76.1310598775503

> <r_i_glide_energy>
-53.2270426750183

> <r_i_glide_einternal>
6.01967000961304

> <i_i_glide_confnum>
9

> <i_i_glide_posenum>
242

> <r_i_glide_eff_state_penalty>
0

> <s_user_duplicate_titles>
CHEMBL301_lig415

> <s_m_subgroup_title>
dock_pv

> <s_m_subgroupid>
dock_pv

> <b_m_subgroup_collapsed>
1

$$$$
CHEMBL301_lig1392
                    3D
 Schrodinger Suite 2021-1.
 54 56  0  0  1  0            999 V2000
   -1.3894   28.8312   12.8512 C   0  0  0  0  0  0
   -1.8951   27.7194   11.9098 C   0  0  0  0  0  0
   -0.8384   26.6382   11.5153 C   0  0  1  0  0  0
    0.4469   27.0991   10.9290 N   0  0  0  0  0  0
    0.6437   28.1816   10.0544 C   0  0  0  0  0  0
    1.8546   28.2296    9.4306 N   0  0  0  0  0  0
    2.1011   29.2717    8.5791 C   0  0  0  0  0  0
    3.3466   29.4156    7.9472 N   0  0  0  0  0  0
    4.4761   28.5285    8.2079 C   0  0  0  0  0  0
    4.4641   27.3336    7.2687 C   0  0  0  0  0  0
    4.4842   27.5014    5.8772 C   0  0  0  0  0  0
    4.4743   26.3779    5.0468 C   0  0  0  0  0  0
    4.4586   25.1132    5.6387 C   0  0  0  0  0  0
    4.4582   24.9268    6.9836 N   0  0  0  0  0  0
    4.4600   26.0297    7.7758 C   0  0  0  0  0  0
    1.1268   30.2650    8.3970 C   0  0  0  0  0  0
    1.1042   31.4380    7.6853 N   0  0  0  0  0  0
    0.0396   32.0581    8.1373 C   0  0  0  0  0  0
   -0.7343   31.3158    9.0099 N   0  0  0  0  0  0
   -1.9750   31.6951    9.6975 C   0  0  0  0  0  0
   -3.1838   31.3024    8.8360 C   0  0  0  0  0  0
   -1.9756   33.1771   10.1181 C   0  0  0  0  0  0
   -0.0510   30.1268    9.1508 C   0  0  0  0  0  0
   -0.3485   29.0940    9.9247 N   0  0  0  0  0  0
   -0.6451   25.6262   12.6847 C   0  0  2  0  0  0
    0.0579   26.2482   13.7496 O   0  0  0  0  0  0
    0.0055   24.2753   12.2917 C   0  0  0  0  0  0
    1.2354   24.4224   11.7948 F   0  0  0  0  0  0
    0.1007   23.4577   13.3422 F   0  0  0  0  0  0
   -0.7266   23.6432   11.3760 F   0  0  0  0  0  0
   -1.9420   29.7552   12.6875 H   0  0  0  0  0  0
   -1.5352   28.5467   13.8931 H   0  0  0  0  0  0
   -0.3336   29.0628   12.7071 H   0  0  0  0  0  0
   -2.3341   28.1627   11.0182 H   0  0  0  0  0  0
   -2.7541   27.2433   12.3850 H   0  0  0  0  0  0
   -1.3040   26.0801   10.7009 H   0  0  0  0  0  0
    1.2180   26.4477   10.9476 H   0  0  0  0  0  0
    3.5113   30.2503    7.3994 H   0  0  0  0  0  0
    5.3928   29.0936    8.0391 H   0  0  0  0  0  0
    4.4872   28.2045    9.2499 H   0  0  0  0  0  0
    4.5036   28.4919    5.4457 H   0  0  0  0  0  0
    4.4822   26.4835    3.9713 H   0  0  0  0  0  0
    4.4487   24.2217    5.0293 H   0  0  0  0  0  0
    4.4511   25.8522    8.8421 H   0  0  0  0  0  0
   -0.2770   33.0494    7.8433 H   0  0  0  0  0  0
   -2.0192   31.1100   10.6195 H   0  0  0  0  0  0
   -4.1177   31.4546    9.3764 H   0  0  0  0  0  0
   -3.1485   30.2497    8.5756 H   0  0  0  0  0  0
   -3.2241   31.8674    7.9055 H   0  0  0  0  0  0
   -2.8765   33.4174   10.6832 H   0  0  0  0  0  0
   -1.1243   33.4132   10.7560 H   0  0  0  0  0  0
   -1.9420   33.8508    9.2656 H   0  0  0  0  0  0
   -1.6270   25.3822   13.0940 H   0  0  0  0  0  0
    0.7987   26.7447   13.3766 H   0  0  0  0  0  0
  1  2  1  0  0  0
  1 31  1  0  0  0
  1 32  1  0  0  0
  1 33  1  0  0  0
  2  3  1  0  0  0
  2 34  1  0  0  0
  2 35  1  0  0  0
  3  4  1  0  0  0
  3 25  1  0  0  0
  3 36  1  0  0  0
  4  5  1  0  0  0
  4 37  1  0  0  0
  5  6  2  0  0  0
  5 24  1  0  0  0
  6  7  1  0  0  0
  7  8  1  0  0  0
  7 16  2  0  0  0
  8  9  1  0  0  0
  8 38  1  0  0  0
  9 10  1  0  0  0
  9 39  1  0  0  0
  9 40  1  0  0  0
 10 11  2  0  0  0
 10 15  1  0  0  0
 11 12  1  0  0  0
 11 41  1  0  0  0
 12 13  2  0  0  0
 12 42  1  0  0  0
 13 14  1  0  0  0
 13 43  1  0  0  0
 14 15  2  0  0  0
 15 44  1  0  0  0
 16 17  1  0  0  0
 16 23  1  0  0  0
 17 18  2  0  0  0
 18 19  1  0  0  0
 18 45  1  0  0  0
 19 20  1  0  0  0
 19 23  1  0  0  0
 20 21  1  0  0  0
 20 22  1  0  0  0
 20 46  1  0  0  0
 21 47  1  0  0  0
 21 48  1  0  0  0
 21 49  1  0  0  0
 22 50  1  0  0  0
 22 51  1  0  0  0
 22 52  1  0  0  0
 23 24  2  0  0  0
 25 26  1  0  0  0
 25 27  1  0  0  0
 25 53  1  0  0  0
 26 54  1  0  0  0
 27 28  1  0  0  0
 27 29  1  0  0  0
 27 30  1  0  0  0
M  END
> <s_m_entry_id>
32719

> <s_m_entry_name>
dock_pv.120

> <s_m_Source_Path>
/home/csk/Desktop/cluster/DUD-E-result/cdk2

> <s_m_Source_File>
dock_pv.maegz

> <i_m_Source_File_Index>
120

> <chembl_id>
CHEMBL3655777

> <chembl_pref_name>
None

> <i_lp_mmshare_version>
53161

> <i_f3d_flags>
0

> <r_lp_tautomer_probability>
1

> <s_lp_Force_Field>
OPLS_2005

> <r_lp_Energy>
28.212429

> <b_lp_Chiralities_Consistent>
1

> <s_lp_Variant>
CHEMBL301_lig1392-2

> <s_i_glide_gridfile>
glide-grid_1h00

> <i_i_glide_lignum>
1884

> <i_i_glide_rotatable_bonds>
10

> <r_i_docking_score>
-8.03275997544413

> <r_i_glide_ligand_efficiency>
-0.267758665848138

> <r_i_glide_ligand_efficiency_sa>
-0.831988429330919

> <r_i_glide_ligand_efficiency_ln>
-1.82513059035096

> <r_i_glide_gscore>
-8.03275997544413

> <r_i_glide_lipo>
-2.73283878242169

> <r_i_glide_hbond>
-0.481943663833297

> <r_i_glide_metal>
0

> <r_i_glide_rewards>
-2.3696396891973

> <r_i_glide_evdw>
-43.3090209960938

> <r_i_glide_ecoul>
-6.30747556686401

> <r_i_glide_erotb>
0.663234544842453

> <r_i_glide_esite>
0

> <r_i_glide_emodel>
-69.2104366292228

> <r_i_glide_energy>
-49.6164965629578

> <r_i_glide_einternal>
7.29156827926636

> <i_i_glide_confnum>
13

> <i_i_glide_posenum>
12

> <r_i_glide_eff_state_penalty>
0

> <s_user_duplicate_titles>
CHEMBL301_lig1392

> <s_m_subgroup_title>
dock_pv

> <s_m_subgroupid>
dock_pv

> <b_m_subgroup_collapsed>
1

$$$$
CHEMBL301_lig1090
                    3D
 Schrodinger Suite 2021-1.
 54 57  0  0  1  0            999 V2000
   -1.2674   31.8345    9.5379 C   0  0  0  0  0  0
   -0.7282   32.6884    8.5760 C   0  0  0  0  0  0
    0.3290   32.3966    7.7761 N   0  0  0  0  0  0
   -0.6951   30.5672    9.7520 C   0  0  0  0  0  0
   -1.2539   29.7597   10.7586 N   0  0  0  0  0  0
   -0.4999   28.7362   11.4668 C   0  0  0  0  0  0
    0.4514   30.2520    8.9694 C   0  0  0  0  0  0
    0.8580   31.1978    7.9920 C   0  0  0  0  0  0
    1.9680   30.6608    7.3949 N   0  0  0  0  0  0
    2.2398   29.4868    8.0546 C   0  0  0  0  0  0
    1.3425   29.2047    8.9796 N   0  0  0  0  0  0
    3.3841   28.6112    7.6748 C   0  0  0  0  0  0
    3.8790   27.6611    8.5707 C   0  0  0  0  0  0
    4.8417   26.7494    8.1468 C   0  0  0  0  0  0
    5.3387   26.7749    6.8478 C   0  0  0  0  0  0
    4.8580   27.7428    5.9571 C   0  0  0  0  0  0
    3.8925   28.6520    6.3707 C   0  0  0  0  0  0
    6.2818   25.8158    6.5346 O   0  0  0  0  0  0
    6.7884   25.7484    5.2057 C   0  0  0  0  0  0
   -2.7421   32.4655   10.5750 Br  0  0  0  0  0  0
   -1.3054   28.1786   12.6565 C   0  0  0  0  0  0
   -0.6047   27.0644   13.4528 C   0  0  0  0  0  0
   -0.7253   25.7520   12.8213 N   0  0  0  0  0  0
   -0.8153   24.5906   13.4897 C   0  0  0  0  0  0
   -0.9449   23.3278   12.6181 C   0  0  2  0  0  0
   -0.7417   24.5135   14.7185 O   0  0  0  0  0  0
   -1.3168   22.0337   13.3724 C   0  0  0  0  0  0
   -0.2576   21.3029   12.5304 C   0  0  2  0  0  0
    0.4093   22.6724   12.3008 C   0  0  0  0  0  0
   -0.7434   20.6521   11.3760 O   0  0  0  0  0  0
   -1.1476   33.6720    8.4289 H   0  0  0  0  0  0
   -1.9495   30.2369   11.3197 H   0  0  0  0  0  0
    0.4444   29.1492   11.8270 H   0  0  0  0  0  0
   -0.2020   27.9418   10.7809 H   0  0  0  0  0  0
    2.5682   31.0495    6.6802 H   0  0  0  0  0  0
    3.4962   27.5967    9.5787 H   0  0  0  0  0  0
    5.1947   25.9908    8.8248 H   0  0  0  0  0  0
    5.2258   27.8034    4.9446 H   0  0  0  0  0  0
    3.5259   29.3737    5.6559 H   0  0  0  0  0  0
    7.4838   24.9132    5.1302 H   0  0  0  0  0  0
    5.9928   25.5795    4.4779 H   0  0  0  0  0  0
    7.3342   26.6520    4.9354 H   0  0  0  0  0  0
   -2.2860   27.8331   12.3229 H   0  0  0  0  0  0
   -1.5228   29.0051   13.3332 H   0  0  0  0  0  0
   -1.0105   27.0522   14.4666 H   0  0  0  0  0  0
    0.4550   27.2965   13.5671 H   0  0  0  0  0  0
   -0.7113   25.7340   11.8127 H   0  0  0  0  0  0
   -1.5422   23.5087   11.7215 H   0  0  0  0  0  0
   -2.3417   21.6916   13.2303 H   0  0  0  0  0  0
   -1.0618   22.0080   14.4342 H   0  0  0  0  0  0
    0.3609   20.5996   13.0915 H   0  0  0  0  0  0
    1.2012   22.8577   13.0311 H   0  0  0  0  0  0
    0.7816   22.8539   11.2915 H   0  0  0  0  0  0
   -1.1120   19.7936   11.6518 H   0  0  0  0  0  0
  1  2  2  0  0  0
  1  4  1  0  0  0
  1 20  1  0  0  0
  2  3  1  0  0  0
  2 31  1  0  0  0
  3  8  2  0  0  0
  4  7  2  0  0  0
  4  5  1  0  0  0
  5  6  1  0  0  0
  5 32  1  0  0  0
  6 21  1  0  0  0
  6 33  1  0  0  0
  6 34  1  0  0  0
  7  8  1  0  0  0
  7 11  1  0  0  0
  8  9  1  0  0  0
  9 10  1  0  0  0
  9 35  1  0  0  0
 10 11  2  0  0  0
 10 12  1  0  0  0
 12 17  1  0  0  0
 12 13  2  0  0  0
 13 14  1  0  0  0
 13 36  1  0  0  0
 14 15  2  0  0  0
 14 37  1  0  0  0
 15 16  1  0  0  0
 15 18  1  0  0  0
 16 17  2  0  0  0
 16 38  1  0  0  0
 17 39  1  0  0  0
 18 19  1  0  0  0
 19 40  1  0  0  0
 19 41  1  0  0  0
 19 42  1  0  0  0
 21 22  1  0  0  0
 21 43  1  0  0  0
 21 44  1  0  0  0
 22 23  1  0  0  0
 22 45  1  0  0  0
 22 46  1  0  0  0
 23 24  1  0  0  0
 23 47  1  0  0  0
 24 25  1  0  0  0
 24 26  2  0  0  0
 25 27  1  0  0  0
 25 29  1  0  0  0
 25 48  1  0  0  0
 27 28  1  0  0  0
 27 49  1  0  0  0
 27 50  1  0  0  0
 28 29  1  0  0  0
 28 30  1  0  0  0
 28 51  1  0  0  0
 29 52  1  0  0  0
 29 53  1  0  0  0
 30 54  1  0  0  0
M  END
> <s_m_entry_id>
32720

> <s_m_entry_name>
dock_pv.121

> <s_m_Source_Path>
/home/csk/Desktop/cluster/DUD-E-result/cdk2

> <s_m_Source_File>
dock_pv.maegz

> <i_m_Source_File_Index>
121

> <chembl_id>
CHEMBL2011935

> <chembl_pref_name>
None

> <i_lp_mmshare_version>
53161

> <i_f3d_flags>
0

> <r_lp_tautomer_probability>
1

> <s_lp_Force_Field>
OPLS_2005

> <r_lp_Energy>
24.299636

> <b_lp_Chiralities_Consistent>
1

> <s_lp_Variant>
CHEMBL301_lig1090-1

> <s_i_glide_gridfile>
glide-grid_1h00

> <i_i_glide_lignum>
1493

> <i_i_glide_rotatable_bonds>
10

> <r_i_docking_score>
-8.03271391587344

> <r_i_glide_ligand_efficiency>
-0.267757130529115

> <r_i_glide_ligand_efficiency_sa>
-0.831983658737748

> <r_i_glide_ligand_efficiency_ln>
-1.82512012511463

> <r_i_glide_gscore>
-8.03271391587344

> <r_i_glide_lipo>
-2.70608679658207

> <r_i_glide_hbond>
-0.46489870441515

> <r_i_glide_metal>
0

> <r_i_glide_rewards>
-1.98355200543662

> <r_i_glide_evdw>
-41.5001602172852

> <r_i_glide_ecoul>
-10.1505498886108

> <r_i_glide_erotb>
0.719414084716289

> <r_i_glide_esite>
0

> <r_i_glide_emodel>
-73.1912747711308

> <r_i_glide_energy>
-51.650710105896

> <r_i_glide_einternal>
5.58132076263428

> <i_i_glide_confnum>
107

> <i_i_glide_posenum>
385

> <r_i_glide_eff_state_penalty>
0

> <s_user_duplicate_titles>
CHEMBL301_lig1090

> <s_m_subgroup_title>
dock_pv

> <s_m_subgroupid>
dock_pv

> <b_m_subgroup_collapsed>
1

$$$$
CHEMBL301_lig1402
                    3D
 Schrodinger Suite 2021-1.
 46 47  0  0  1  0            999 V2000
   -2.2902   26.5009   11.7968 C   0  0  0  0  0  0
   -1.3580   26.3908   10.5760 C   0  0  0  0  0  0
   -0.4933   27.6388   10.2525 C   0  0  1  0  0  0
   -1.4017   29.2234   10.1760 S   0  0  0  0  0  0
   -0.4720   30.3410    9.1512 C   0  0  0  0  0  0
    0.6086   29.8520    8.4830 N   0  0  0  0  0  0
    1.2780   30.6984    7.6563 C   0  0  0  0  0  0
    2.3812   30.2416    6.9211 N   0  0  0  0  0  0
    3.2266   29.1289    7.0609 C   0  0  0  0  0  0
    3.4479   28.5341    8.2963 C   0  0  0  0  0  0
    4.3593   27.4944    8.4055 C   0  0  0  0  0  0
    5.0925   27.0622    7.2952 C   0  0  0  0  0  0
    4.8447   27.6333    6.0498 C   0  0  0  0  0  0
    3.9082   28.6520    5.9390 C   0  0  0  0  0  0
    6.3427   25.7833    7.4655 S   0  0  2  0  0  0
    5.5064   24.5087    7.3760 N   0  0  0  0  0  0
    7.2392   26.1212    8.5760 O   0  0  0  0  0  0
    7.3324   25.6925    5.8677 C   0  0  0  0  0  0
    0.9536   31.9999    7.4564 N   0  0  0  0  0  0
   -0.0950   32.4781    8.1760 C   0  0  0  0  0  0
   -0.8572   31.6820    9.0296 C   0  0  0  0  0  0
   -2.3362   32.4391    9.9690 Br  0  0  0  0  0  0
    0.7890   27.7624   11.1066 C   0  0  2  0  0  0
    1.7602   26.5737   10.9760 C   0  0  0  0  0  0
    0.4580   27.9610   12.4629 O   0  0  0  0  0  0
   -2.7420   25.5354   12.0142 H   0  0  0  0  0  0
   -1.7623   26.8029   12.6993 H   0  0  0  0  0  0
   -3.0936   27.2189   11.6310 H   0  0  0  0  0  0
   -1.9420   26.1406    9.6930 H   0  0  0  0  0  0
   -0.7169   25.5215   10.7151 H   0  0  0  0  0  0
   -0.1554   27.4796    9.2305 H   0  0  0  0  0  0
    2.7880   30.9561    6.3334 H   0  0  0  0  0  0
    2.9296   28.8778    9.1756 H   0  0  0  0  0  0
    4.4580   27.0520    9.3723 H   0  0  0  0  0  0
    5.3763   27.3172    5.1663 H   0  0  0  0  0  0
    3.7513   29.0963    4.9760 H   0  0  0  0  0  0
    6.0755   23.6852    7.2597 H   0  0  0  0  0  0
    6.6699   25.4430    5.0401 H   0  0  0  0  0  0
    7.8156   26.6520    5.6970 H   0  0  0  0  0  0
    8.0925   24.9211    5.9775 H   0  0  0  0  0  0
   -0.3424   33.5162    8.0493 H   0  0  0  0  0  0
    1.3282   28.6520   10.7884 H   0  0  0  0  0  0
    1.9070   26.2988    9.9310 H   0  0  0  0  0  0
    1.4042   25.6895   11.5046 H   0  0  0  0  0  0
    2.7442   26.8200   11.3760 H   0  0  0  0  0  0
    1.2905   27.8520   12.9603 H   0  0  0  0  0  0
  1  2  1  0  0  0
  1 26  1  0  0  0
  1 27  1  0  0  0
  1 28  1  0  0  0
  2  3  1  0  0  0
  2 29  1  0  0  0
  2 30  1  0  0  0
  3  4  1  0  0  0
  3 23  1  0  0  0
  3 31  1  0  0  0
  4  5  1  0  0  0
  5  6  2  0  0  0
  5 21  1  0  0  0
  6  7  1  0  0  0
  7  8  1  0  0  0
  7 19  2  0  0  0
  8  9  1  0  0  0
  8 32  1  0  0  0
  9 10  2  0  0  0
  9 14  1  0  0  0
 10 11  1  0  0  0
 10 33  1  0  0  0
 11 12  2  0  0  0
 11 34  1  0  0  0
 12 13  1  0  0  0
 12 15  1  0  0  0
 13 14  2  0  0  0
 13 35  1  0  0  0
 14 36  1  0  0  0
 15 16  2  0  0  0
 15 17  2  0  0  0
 15 18  1  0  0  0
 16 37  1  0  0  0
 18 38  1  0  0  0
 18 39  1  0  0  0
 18 40  1  0  0  0
 19 20  1  0  0  0
 20 21  2  0  0  0
 20 41  1  0  0  0
 21 22  1  0  0  0
 23 24  1  0  0  0
 23 25  1  0  0  0
 23 42  1  0  0  0
 24 43  1  0  0  0
 24 44  1  0  0  0
 24 45  1  0  0  0
 25 46  1  0  0  0
M  END
> <s_m_entry_id>
32721

> <s_m_entry_name>
dock_pv.122

> <s_m_Source_Path>
/home/csk/Desktop/cluster/DUD-E-result/cdk2

> <s_m_Source_File>
dock_pv.maegz

> <i_m_Source_File_Index>
122

> <chembl_id>
CHEMBL3648103

> <chembl_pref_name>
None

> <i_lp_mmshare_version>
53161

> <i_f3d_flags>
0

> <r_lp_tautomer_probability>
0.999999987636

> <s_lp_Force_Field>
OPLS_2005

> <r_lp_Energy>
5.439722

> <b_lp_Chiralities_Consistent>
1

> <s_lp_Variant>
CHEMBL301_lig1402-2

> <s_i_glide_gridfile>
glide-grid_1h00

> <i_i_glide_lignum>
1905

> <i_i_glide_rotatable_bonds>
8

> <r_i_docking_score>
-8.02492975785359

> <r_i_glide_ligand_efficiency>
-0.320997190314144

> <r_i_glide_ligand_efficiency_sa>
-0.938601477387967

> <r_i_glide_ligand_efficiency_ln>
-1.90214884034998

> <r_i_glide_gscore>
-8.02492975785359

> <r_i_glide_lipo>
-2.75003965053537

> <r_i_glide_hbond>
-0.581139587641148

> <r_i_glide_metal>
0

> <r_i_glide_rewards>
-1.49842746027852

> <r_i_glide_evdw>
-35.0807113647461

> <r_i_glide_ecoul>
-12.9704484939575

> <r_i_glide_erotb>
0.504279782932378

> <r_i_glide_esite>
0

> <r_i_glide_emodel>
-67.5698194257052

> <r_i_glide_energy>
-48.0511598587036

> <r_i_glide_einternal>
4.40962314605713

> <i_i_glide_confnum>
25

> <i_i_glide_posenum>
179

> <r_i_glide_eff_state_penalty>
0

> <s_user_duplicate_titles>
CHEMBL301_lig1402

> <s_m_subgroup_title>
dock_pv

> <s_m_subgroupid>
dock_pv

> <b_m_subgroup_collapsed>
1

$$$$
CHEMBL301_lig334
                    3D
 Schrodinger Suite 2021-1.
 40 42  0  0  1  0            999 V2000
    0.2311   32.3224    7.7760 N   0  0  0  0  0  0
    1.2579   31.5575    7.3760 C   0  0  0  0  0  0
    1.2168   30.3663    8.2073 C   0  0  0  0  0  0
   -0.6375   29.6034    9.8948 C   0  0  0  0  0  0
   -1.8372   30.0029   10.4930 C   0  0  0  0  0  0
   -2.4052   31.2419   10.1758 C   0  0  0  0  0  0
   -1.7741   32.0941    9.2670 C   0  0  0  0  0  0
   -0.5805   31.6777    8.6806 C   0  0  0  0  0  0
   -0.0183   30.4544    8.9762 C   0  0  0  0  0  0
    2.0580   31.8521    6.4965 O   0  0  0  0  0  0
    2.1844   29.4265    8.1891 C   0  0  0  0  0  0
    3.3287   29.4123    7.4221 N   0  0  0  0  0  0
    4.1001   28.2973    7.0910 C   0  0  0  0  0  0
    4.5099   28.1681    5.7659 C   0  0  0  0  0  0
    5.2578   27.0629    5.3767 C   0  0  0  0  0  0
    5.6234   26.1063    6.3230 C   0  0  0  0  0  0
    5.2280   26.2386    7.6559 C   0  0  0  0  0  0
    4.4580   27.3342    8.0388 C   0  0  0  0  0  0
    6.6120   24.7176    5.7904 S   0  0  0  0  0  0
    6.9511   23.9234    6.9761 O   0  0  0  0  0  0
    5.8828   24.1158    4.6702 O   0  0  0  0  0  0
    8.0644   25.4488    5.1189 N   0  0  0  0  0  0
    9.2439   25.8304    5.8321 C   0  0  0  0  0  0
    9.5854   25.4495    6.9760 N   0  0  0  0  0  0
   10.0581   26.7165    5.1121 N   0  0  0  0  0  0
    0.0573   33.2423    7.3958 H   0  0  0  0  0  0
   -0.2044   28.6481   10.1520 H   0  0  0  0  0  0
   -2.3269   29.3602   11.2108 H   0  0  0  0  0  0
   -3.3291   31.5449   10.6476 H   0  0  0  0  0  0
   -2.2142   33.0521    9.0349 H   0  0  0  0  0  0
    2.1051   28.5612    8.8324 H   0  0  0  0  0  0
    3.4303   30.1710    6.7528 H   0  0  0  0  0  0
    4.2425   28.9151    5.0320 H   0  0  0  0  0  0
    5.5651   26.9609    4.3458 H   0  0  0  0  0  0
    5.5143   25.5059    8.3979 H   0  0  0  0  0  0
    4.1627   27.4352    9.0735 H   0  0  0  0  0  0
    7.9361   25.8678    4.1971 H   0  0  0  0  0  0
   10.4748   25.8427    7.2452 H   0  0  0  0  0  0
   10.8796   27.0617    5.5904 H   0  0  0  0  0  0
    9.5812   27.4828    4.6593 H   0  0  0  0  0  0
  1  2  1  0  0  0
  1  8  1  0  0  0
  1 26  1  0  0  0
  2  3  1  0  0  0
  2 10  2  0  0  0
  3  9  1  0  0  0
  3 11  2  0  0  0
  4  5  2  0  0  0
  4  9  1  0  0  0
  4 27  1  0  0  0
  5  6  1  0  0  0
  5 28  1  0  0  0
  6  7  2  0  0  0
  6 29  1  0  0  0
  7  8  1  0  0  0
  7 30  1  0  0  0
  8  9  2  0  0  0
 11 12  1  0  0  0
 11 31  1  0  0  0
 12 13  1  0  0  0
 12 32  1  0  0  0
 13 14  2  0  0  0
 13 18  1  0  0  0
 14 15  1  0  0  0
 14 33  1  0  0  0
 15 16  2  0  0  0
 15 34  1  0  0  0
 16 17  1  0  0  0
 16 19  1  0  0  0
 17 18  2  0  0  0
 17 35  1  0  0  0
 18 36  1  0  0  0
 19 20  2  0  0  0
 19 21  2  0  0  0
 19 22  1  0  0  0
 22 23  1  0  0  0
 22 37  1  0  0  0
 23 24  2  0  0  0
 23 25  1  0  0  0
 24 38  1  0  0  0
 25 39  1  0  0  0
 25 40  1  0  0  0
M  END
> <s_m_entry_id>
32722

> <s_m_entry_name>
dock_pv.123

> <s_m_Source_Path>
/home/csk/Desktop/cluster/DUD-E-result/cdk2

> <s_m_Source_File>
dock_pv.maegz

> <i_m_Source_File_Index>
123

> <chembl_id>
CHEMBL1234089

> <chembl_pref_name>
None

> <i_lp_mmshare_version>
53161

> <i_f3d_flags>
0

> <r_lp_tautomer_probability>
0.499999999999422

> <s_lp_Force_Field>
OPLS_2005

> <r_lp_Energy>
37.194921

> <b_lp_Chiralities_Consistent>
1

> <s_lp_Variant>
CHEMBL301_lig334-1

> <s_i_glide_gridfile>
glide-grid_1h00

> <i_i_glide_lignum>
513

> <i_i_glide_rotatable_bonds>
5

> <r_i_docking_score>
-8.02430912158513

> <r_i_glide_ligand_efficiency>
-0.320972364863405

> <r_i_glide_ligand_efficiency_sa>
-0.938528887329726

> <r_i_glide_ligand_efficiency_ln>
-1.90200173095538

> <r_i_glide_gscore>
-8.02430912158513

> <r_i_glide_lipo>
-2.41133618564066

> <r_i_glide_hbond>
-0.830068369649596

> <r_i_glide_metal>
0

> <r_i_glide_rewards>
-1.49724669943065

> <r_i_glide_evdw>
-38.9289321899414

> <r_i_glide_ecoul>
-12.2784328460693

> <r_i_glide_erotb>
0.524577182620251

> <r_i_glide_esite>
-0.0220235130770131

> <r_i_glide_emodel>
-68.0663823389086

> <r_i_glide_energy>
-51.2073650360107

> <r_i_glide_einternal>
7.8572301864624

> <i_i_glide_confnum>
48

> <i_i_glide_posenum>
328

> <r_i_glide_eff_state_penalty>
0

> <s_user_duplicate_titles>
CHEMBL301_lig334

> <s_m_subgroup_title>
dock_pv

> <s_m_subgroupid>
dock_pv

> <b_m_subgroup_collapsed>
1

$$$$
CHEMBL301_lig336
                    3D
 Schrodinger Suite 2021-1.
 41 44  0  0  1  0            999 V2000
   -2.4317   31.0701   10.1760 C   0  0  0  0  0  0
   -1.7992   31.9205    9.2653 C   0  0  0  0  0  0
   -1.8143   29.8492   10.5032 C   0  0  0  0  0  0
   -0.5725   29.4911    9.9058 C   0  0  0  0  0  0
   -0.0643   27.9250   10.5367 S   0  0  0  0  0  0
   -1.5215   27.9101   11.4944 C   0  0  0  0  0  0
   -2.3144   28.9345   11.3751 N   0  0  0  0  0  0
    0.0348   30.3487    8.9760 C   0  0  0  0  0  0
   -0.5896   31.5419    8.6861 C   0  0  0  0  0  0
    0.1944   32.2181    7.7761 N   0  0  0  0  0  0
    1.2581   31.5050    7.3760 C   0  0  0  0  0  0
    1.2635   30.3063    8.1962 C   0  0  0  0  0  0
    2.2551   29.3936    8.1748 C   0  0  0  0  0  0
    2.0579   31.8520    6.5146 O   0  0  0  0  0  0
    3.3965   29.3824    7.4074 N   0  0  0  0  0  0
    4.1659   28.2533    7.1161 C   0  0  0  0  0  0
    4.5159   27.3310    8.1062 C   0  0  0  0  0  0
    5.2824   26.2183    7.7759 C   0  0  0  0  0  0
    5.6808   26.0139    6.4542 C   0  0  0  0  0  0
    5.3194   26.9307    5.4644 C   0  0  0  0  0  0
    4.5790   28.0598    5.7994 C   0  0  0  0  0  0
    6.5229   24.7986    6.0980 C   0  0  0  0  0  0
    5.5230   23.1989    6.0766 S   0  0  0  0  0  0
    4.8562   23.0521    7.3745 O   0  0  0  0  0  0
    6.3993   22.1307    5.5886 O   0  0  0  0  0  0
    4.2092   23.5078    4.7729 C   0  0  0  0  0  0
   -3.3667   31.3519   10.6393 H   0  0  0  0  0  0
   -2.2581   32.8671    9.0174 H   0  0  0  0  0  0
   -1.7413   27.0822   12.1529 H   0  0  0  0  0  0
   -0.0064   33.1383    7.4089 H   0  0  0  0  0  0
    2.1955   28.5329    8.8250 H   0  0  0  0  0  0
    3.4436   30.0921    6.6817 H   0  0  0  0  0  0
    4.2184   27.4751    9.1349 H   0  0  0  0  0  0
    5.5582   25.5127    8.5457 H   0  0  0  0  0  0
    5.6327   26.7860    4.4404 H   0  0  0  0  0  0
    4.3207   28.7748    5.0312 H   0  0  0  0  0  0
    7.3293   24.6633    6.8177 H   0  0  0  0  0  0
    6.9744   24.9040    5.1118 H   0  0  0  0  0  0
    3.5410   22.6485    4.7368 H   0  0  0  0  0  0
    4.6926   23.6546    3.8076 H   0  0  0  0  0  0
    3.6580   24.4017    5.0558 H   0  0  0  0  0  0
  1  3  2  0  0  0
  1  2  1  0  0  0
  1 27  1  0  0  0
  2  9  2  0  0  0
  2 28  1  0  0  0
  3  7  1  0  0  0
  3  4  1  0  0  0
  4  8  2  0  0  0
  4  5  1  0  0  0
  5  6  1  0  0  0
  6  7  2  0  0  0
  6 29  1  0  0  0
  8 12  1  0  0  0
  8  9  1  0  0  0
  9 10  1  0  0  0
 10 11  1  0  0  0
 10 30  1  0  0  0
 11 14  2  0  0  0
 11 12  1  0  0  0
 12 13  2  0  0  0
 13 15  1  0  0  0
 13 31  1  0  0  0
 15 16  1  0  0  0
 15 32  1  0  0  0
 16 17  2  0  0  0
 16 21  1  0  0  0
 17 18  1  0  0  0
 17 33  1  0  0  0
 18 19  2  0  0  0
 18 34  1  0  0  0
 19 20  1  0  0  0
 19 22  1  0  0  0
 20 21  2  0  0  0
 20 35  1  0  0  0
 21 36  1  0  0  0
 22 23  1  0  0  0
 22 37  1  0  0  0
 22 38  1  0  0  0
 23 24  2  0  0  0
 23 25  2  0  0  0
 23 26  1  0  0  0
 26 39  1  0  0  0
 26 40  1  0  0  0
 26 41  1  0  0  0
M  END
> <s_m_entry_id>
32723

> <s_m_entry_name>
dock_pv.124

> <s_m_Source_Path>
/home/csk/Desktop/cluster/DUD-E-result/cdk2

> <s_m_Source_File>
dock_pv.maegz

> <i_m_Source_File_Index>
124

> <chembl_id>
CHEMBL235849

> <chembl_pref_name>
None

> <i_lp_mmshare_version>
53161

> <i_f3d_flags>
0

> <r_lp_tautomer_probability>
0.499999999999422

> <s_lp_Force_Field>
OPLS_2005

> <r_lp_Energy>
35.378621

> <b_lp_Chiralities_Consistent>
1

> <s_lp_Variant>
CHEMBL301_lig336-1

> <s_i_glide_gridfile>
glide-grid_1h00

> <i_i_glide_lignum>
516

> <i_i_glide_rotatable_bonds>
4

> <r_i_docking_score>
-8.01502423777128

> <r_i_glide_ligand_efficiency>
-0.308270162991203

> <r_i_glide_ligand_efficiency_sa>
-0.913249144876921

> <r_i_glide_ligand_efficiency_ln>
-1.88230214280098

> <r_i_glide_gscore>
-8.01502423777128

> <r_i_glide_lipo>
-2.64280078840553

> <r_i_glide_hbond>
-0.544875704527157

> <r_i_glide_metal>
0

> <r_i_glide_rewards>
-2.08239847204689

> <r_i_glide_evdw>
-40.3339157104492

> <r_i_glide_ecoul>
-7.34100914001465

> <r_i_glide_erotb>
0.392781050998009

> <r_i_glide_esite>
-0.019883167265054

> <r_i_glide_emodel>
-66.5529557612648

> <r_i_glide_energy>
-47.6749248504639

> <r_i_glide_einternal>
7.99110794067383

> <i_i_glide_confnum>
13

> <i_i_glide_posenum>
312

> <r_i_glide_eff_state_penalty>
0

> <s_user_duplicate_titles>
CHEMBL301_lig336,226581

> <s_m_subgroup_title>
dock_pv

> <s_m_subgroupid>
dock_pv

> <b_m_subgroup_collapsed>
1

$$$$
CHEMBL301_lig13
                    3D
 Schrodinger Suite 2021-1.
 58 60  0  0  1  0            999 V2000
    2.4578   27.7217    9.8994 N   0  0  0  0  0  0
    3.3921   28.1855    9.0600 C   0  0  0  0  0  0
    3.3094   29.1871    8.1760 N   0  0  0  0  0  0
    2.1296   29.8488    8.0689 C   0  0  0  0  0  0
    1.2937   28.4033    9.7761 C   0  0  0  0  0  0
    1.0543   29.4520    8.9064 C   0  0  0  0  0  0
   -0.2159   29.8791    9.0125 N   0  0  0  0  0  0
   -0.7351   29.1190    9.9486 C   0  0  0  0  0  0
    0.1372   28.2369   10.4823 N   0  0  0  0  0  0
    2.0580   30.8461    7.1026 N   0  0  0  0  0  0
   -0.0424   27.2207   11.5955 C   0  0  2  0  0  0
    0.1643   25.9111   11.1646 O   0  0  0  0  0  0
   -0.0460   25.0899   12.3053 C   0  0  1  0  0  0
   -1.2791   25.7474   12.9582 C   0  0  2  0  0  0
   -1.3983   27.1363   12.2892 C   0  0  1  0  0  0
   -1.1472   25.8338   14.3687 O   0  0  0  0  0  0
   -1.5420   28.2524   13.1519 O   0  0  0  0  0  0
   -0.1783   23.6020   11.9340 C   0  0  0  0  0  0
   -0.1563   22.8629   13.1475 O   0  0  0  0  0  0
    0.0580   21.2450   13.2132 P   0  0  2  0  0  0
    1.3007   20.9565   12.2155 O   0  0  0  0  0  0
   -1.2210   20.6520   12.4079 O   0  0  0  0  0  0
    0.2377   20.7092   14.5889 O   0  0  0  0  0  0
    1.5449   20.5987   10.5744 P   0  0  1  0  0  0
    2.7528   21.6242    9.9468 O   0  0  0  0  0  0
    2.2716   19.0589   10.5684 O   0  0  0  0  0  0
    0.2683   20.6520    9.7760 O   0  0  0  0  0  0
    3.6107   21.6274    8.5760 P   0  0  1  0  0  0
    4.0580   23.1789    8.3608 O   0  0  0  0  0  0
    4.7095   20.6279    8.5277 O   0  0  0  0  0  0
    2.4580   21.4468    7.4623 O   0  0  0  0  0  0
    4.4556   23.6165    7.0655 C   0  0  0  0  0  0
    5.9845   23.7978    6.9760 C   0  0  0  0  0  0
    6.5367   25.0521    7.6866 C   0  0  0  0  0  0
    6.0799   26.3252    7.1024 C   0  0  0  0  0  0
    5.6575   27.3530    6.5975 C   0  0  0  0  0  0
    4.3527   27.6971    9.1322 H   0  0  0  0  0  0
   -1.7475   29.1880   10.3207 H   0  0  0  0  0  0
    1.2511   31.4508    7.0770 H   0  0  0  0  0  0
    2.9174   31.0520    6.6013 H   0  0  0  0  0  0
    0.7446   27.4812   12.3103 H   0  0  0  0  0  0
    0.8356   25.2045   12.9416 H   0  0  0  0  0  0
   -2.1776   25.1737   12.7227 H   0  0  0  0  0  0
   -2.1724   27.1202   11.5195 H   0  0  0  0  0  0
   -0.9065   26.7461   14.5623 H   0  0  0  0  0  0
   -2.4784   28.3680   13.3953 H   0  0  0  0  0  0
    0.6640   23.3197   11.3026 H   0  0  0  0  0  0
   -1.0945   23.4067   11.3760 H   0  0  0  0  0  0
   -1.4592   19.6905   12.5760 H   0  0  0  0  0  0
    3.0957   18.8553   11.0449 H   0  0  0  0  0  0
    1.8740   22.2380    7.3760 H   0  0  0  0  0  0
    3.9381   24.5509    6.8450 H   0  0  0  0  0  0
    4.1322   22.9194    6.2899 H   0  0  0  0  0  0
    6.2720   23.8336    5.9233 H   0  0  0  0  0  0
    6.4699   22.9069    7.3760 H   0  0  0  0  0  0
    7.6262   25.0576    7.6457 H   0  0  0  0  0  0
    6.2583   25.0523    8.7395 H   0  0  0  0  0  0
    5.2580   28.2496    6.1763 H   0  0  0  0  0  0
  1  2  2  0  0  0
  1  5  1  0  0  0
  2  3  1  0  0  0
  2 37  1  0  0  0
  3  4  2  0  0  0
  4  6  1  0  0  0
  4 10  1  0  0  0
  5  9  1  0  0  0
  5  6  2  0  0  0
  6  7  1  0  0  0
  7  8  2  0  0  0
  8  9  1  0  0  0
  8 38  1  0  0  0
  9 11  1  0  0  0
 10 39  1  0  0  0
 10 40  1  0  0  0
 11 12  1  0  0  0
 11 15  1  0  0  0
 11 41  1  0  0  0
 12 13  1  0  0  0
 13 18  1  0  0  0
 13 14  1  0  0  0
 13 42  1  0  0  0
 14 15  1  0  0  0
 14 16  1  0  0  0
 14 43  1  0  0  0
 15 17  1  0  0  0
 15 44  1  0  0  0
 16 45  1  0  0  0
 17 46  1  0  0  0
 18 19  1  0  0  0
 18 47  1  0  0  0
 18 48  1  0  0  0
 19 20  1  0  0  0
 20 21  1  0  0  0
 20 22  1  0  0  0
 20 23  2  0  0  0
 21 24  1  0  0  0
 22 49  1  0  0  0
 24 25  1  0  0  0
 24 26  1  0  0  0
 24 27  2  0  0  0
 25 28  1  0  0  0
 26 50  1  0  0  0
 28 29  1  0  0  0
 28 30  2  0  0  0
 28 31  1  0  0  0
 29 32  1  0  0  0
 31 51  1  0  0  0
 32 33  1  0  0  0
 32 52  1  0  0  0
 32 53  1  0  0  0
 33 34  1  0  0  0
 33 54  1  0  0  0
 33 55  1  0  0  0
 34 35  1  0  0  0
 34 56  1  0  0  0
 34 57  1  0  0  0
 35 36  3  0  0  0
 36 58  1  0  0  0
M  END
> <s_m_entry_id>
32724

> <s_m_entry_name>
dock_pv.125

> <s_m_Source_Path>
/home/csk/Desktop/cluster/DUD-E-result/cdk2

> <s_m_Source_File>
dock_pv.maegz

> <i_m_Source_File_Index>
125

> <chembl_id>
CHEMBL564508

> <chembl_pref_name>
None

> <i_lp_mmshare_version>
53161

> <i_f3d_flags>
0

> <r_lp_tautomer_probability>
0.999997216410988

> <s_lp_Force_Field>
OPLS_2005

> <r_lp_Energy>
32.420394

> <b_lp_Chiralities_Consistent>
1

> <s_lp_Variant>
CHEMBL301_lig13-7

> <s_i_glide_gridfile>
glide-grid_1h00

> <i_i_glide_lignum>
62

> <i_i_glide_rotatable_bonds>
18

> <r_i_docking_score>
-8.00554384023269

> <r_i_glide_ligand_efficiency>
-0.222376217784241

> <r_i_glide_ligand_efficiency_sa>
-0.734270092130822

> <r_i_glide_ligand_efficiency_ln>
-1.746593381139

> <r_i_glide_gscore>
-8.00554384023269

> <r_i_glide_lipo>
-1.19754249674073

> <r_i_glide_hbond>
-0.398966887525087

> <r_i_glide_metal>
0

> <r_i_glide_rewards>
-1.16941506075951

> <r_i_glide_evdw>
-37.8672027587891

> <r_i_glide_ecoul>
-26.3956031799316

> <r_i_glide_erotb>
0.732139657484648

> <r_i_glide_esite>
-0.119058437762808

> <r_i_glide_emodel>
-88.37970241421

> <r_i_glide_energy>
-64.2628059387207

> <r_i_glide_einternal>
15.0663681030273

> <i_i_glide_confnum>
207

> <i_i_glide_posenum>
263

> <r_i_glide_eff_state_penalty>
0

> <s_user_duplicate_titles>
CHEMBL301_lig13

> <s_m_subgroup_title>
dock_pv

> <s_m_subgroupid>
dock_pv

> <b_m_subgroup_collapsed>
1

$$$$
CHEMBL301_lig580
                    3D
 Schrodinger Suite 2021-1.
 48 50  0  0  1  0            999 V2000
    0.0431   28.6331   11.8052 C   0  0  0  0  0  0
   -0.4719   29.7912   11.4514 N   0  0  0  0  0  0
   -1.6315   29.4689   10.9273 C   0  0  0  0  0  0
   -1.9420   28.1540   11.0286 O   0  0  0  0  0  0
   -0.8532   27.5932   11.6034 C   0  0  0  0  0  0
   -0.8673   26.0843   11.8270 C   0  0  0  0  0  0
   -2.0038   25.7268   12.8091 C   0  0  0  0  0  0
    0.4791   25.6215   12.4208 C   0  0  0  0  0  0
   -1.1016   25.3571   10.4843 C   0  0  0  0  0  0
   -2.5752   30.3412   10.1244 C   0  0  0  0  0  0
   -1.9452   31.9998    9.7111 S   0  0  0  0  0  0
   -0.5480   31.6805    8.6709 C   0  0  0  0  0  0
    0.2303   32.6520    8.0680 C   0  0  0  0  0  0
    1.2606   32.2473    7.3511 N   0  0  0  0  0  0
    1.4126   30.9469    7.3758 C   0  0  0  0  0  0
    0.1624   30.1338    8.2599 S   0  0  0  0  0  0
    2.4580   30.2989    6.7463 N   0  0  0  0  0  0
    3.1393   29.0286    7.0188 C   0  0  0  0  0  0
    3.8709   28.5524    5.7460 C   0  0  0  0  0  0
    4.6139   27.2171    5.9729 C   0  0  0  0  0  0
    5.5314   27.2562    7.2116 C   0  0  0  0  0  0
    4.8414   27.8372    8.4630 C   0  0  0  0  0  0
    4.1278   29.1761    8.1751 C   0  0  0  0  0  0
    1.0491   28.5655   12.1762 H   0  0  0  0  0  0
   -2.0543   24.6537   12.9970 H   0  0  0  0  0  0
   -2.9768   26.0366   12.4242 H   0  0  0  0  0  0
   -1.8716   26.2269   13.7699 H   0  0  0  0  0  0
    1.3128   25.8600   11.7583 H   0  0  0  0  0  0
    0.6807   26.1164   13.3708 H   0  0  0  0  0  0
    0.4970   24.5455   12.5967 H   0  0  0  0  0  0
   -0.3192   25.5957    9.7629 H   0  0  0  0  0  0
   -1.1138   24.2739   10.6110 H   0  0  0  0  0  0
   -2.0523   25.6415   10.0307 H   0  0  0  0  0  0
   -2.8521   29.8521    9.1926 H   0  0  0  0  0  0
   -3.5110   30.4766   10.6634 H   0  0  0  0  0  0
    0.0388   33.7062    8.1760 H   0  0  0  0  0  0
    3.1122   30.8928    6.2441 H   0  0  0  0  0  0
    2.4580   28.2585    7.3389 H   0  0  0  0  0  0
    3.1515   28.4189    4.9431 H   0  0  0  0  0  0
    4.5803   29.3073    5.4018 H   0  0  0  0  0  0
    3.9014   26.4007    6.0801 H   0  0  0  0  0  0
    5.2052   26.9722    5.0891 H   0  0  0  0  0  0
    5.9085   26.2561    7.4289 H   0  0  0  0  0  0
    6.4060   27.8530    6.9756 H   0  0  0  0  0  0
    4.1175   27.1141    8.8430 H   0  0  0  0  0  0
    5.5759   27.9646    9.2574 H   0  0  0  0  0  0
    4.8529   29.9709    7.9914 H   0  0  0  0  0  0
    3.5386   29.4520    9.0392 H   0  0  0  0  0  0
  1  2  1  0  0  0
  1  5  2  0  0  0
  1 24  1  0  0  0
  2  3  2  0  0  0
  3  4  1  0  0  0
  3 10  1  0  0  0
  4  5  1  0  0  0
  5  6  1  0  0  0
  6  7  1  0  0  0
  6  8  1  0  0  0
  6  9  1  0  0  0
  7 25  1  0  0  0
  7 26  1  0  0  0
  7 27  1  0  0  0
  8 28  1  0  0  0
  8 29  1  0  0  0
  8 30  1  0  0  0
  9 31  1  0  0  0
  9 32  1  0  0  0
  9 33  1  0  0  0
 10 11  1  0  0  0
 10 34  1  0  0  0
 10 35  1  0  0  0
 11 12  1  0  0  0
 12 13  2  0  0  0
 12 16  1  0  0  0
 13 14  1  0  0  0
 13 36  1  0  0  0
 14 15  2  0  0  0
 15 16  1  0  0  0
 15 17  1  0  0  0
 17 18  1  0  0  0
 17 37  1  0  0  0
 18 19  1  0  0  0
 18 23  1  0  0  0
 18 38  1  0  0  0
 19 20  1  0  0  0
 19 39  1  0  0  0
 19 40  1  0  0  0
 20 21  1  0  0  0
 20 41  1  0  0  0
 20 42  1  0  0  0
 21 22  1  0  0  0
 21 43  1  0  0  0
 21 44  1  0  0  0
 22 23  1  0  0  0
 22 45  1  0  0  0
 22 46  1  0  0  0
 23 47  1  0  0  0
 23 48  1  0  0  0
M  END
> <s_m_entry_id>
32725

> <s_m_entry_name>
dock_pv.126

> <s_m_Source_Path>
/home/csk/Desktop/cluster/DUD-E-result/cdk2

> <s_m_Source_File>
dock_pv.maegz

> <i_m_Source_File_Index>
126

> <chembl_id>
CHEMBL496785

> <chembl_pref_name>
None

> <i_lp_mmshare_version>
53161

> <i_f3d_flags>
0

> <r_lp_tautomer_probability>
1

> <s_lp_Force_Field>
OPLS_2005

> <r_lp_Energy>
7.300976

> <b_lp_Chiralities_Consistent>
1

> <s_lp_Variant>
CHEMBL301_lig580-1

> <s_i_glide_gridfile>
glide-grid_1h00

> <i_i_glide_lignum>
817

> <i_i_glide_rotatable_bonds>
6

> <r_i_docking_score>
-8.00195086457568

> <r_i_glide_ligand_efficiency>
-0.347910907155465

> <r_i_glide_ligand_efficiency_sa>
-0.989412339755531

> <r_i_glide_ligand_efficiency_ln>
-1.93494427673328

> <r_i_glide_gscore>
-8.00195086457568

> <r_i_glide_lipo>
-3.31014980760989

> <r_i_glide_hbond>
-0.351101492869884

> <r_i_glide_metal>
0

> <r_i_glide_rewards>
-2.35637601417616

> <r_i_glide_evdw>
-34.2141494750977

> <r_i_glide_ecoul>
-5.4256591796875

> <r_i_glide_erotb>
0.540232800788259

> <r_i_glide_esite>
0

> <r_i_glide_emodel>
-55.138519713309

> <r_i_glide_energy>
-39.6398086547852

> <r_i_glide_einternal>
3.09077501296997

> <i_i_glide_confnum>
65

> <i_i_glide_posenum>
94

> <r_i_glide_eff_state_penalty>
0

> <s_user_duplicate_titles>
CHEMBL301_lig580,494789

> <s_m_subgroup_title>
dock_pv

> <s_m_subgroupid>
dock_pv

> <b_m_subgroup_collapsed>
1

$$$$
CHEMBL301_lig500
                    3D
 Schrodinger Suite 2021-1.
 51 54  0  0  1  0            999 V2000
    9.7514   26.4885    4.8782 C   0  0  0  0  0  0
    8.6630   25.4052    4.8086 C   0  0  0  0  0  0
    7.3723   25.8516    5.3367 N   0  0  0  0  0  0
    7.0640   25.9836    6.6417 C   0  0  0  0  0  0
    7.8638   25.6570    7.5222 O   0  0  0  0  0  0
    5.8704   26.5850    6.9150 N   0  0  0  0  0  0
    4.7187   26.5765    5.9813 C   0  0  0  0  0  0
    4.0902   27.9893    6.0116 C   0  0  0  0  0  0
    3.6956   28.4307    7.4353 C   0  0  0  0  0  0
    4.9133   28.3233    8.3543 C   0  0  0  0  0  0
    5.5318   26.9088    8.3167 C   0  0  0  0  0  0
    3.2559   29.8156    7.3758 N   0  0  0  0  0  0
    2.0033   30.2523    7.8121 C   0  0  0  0  0  0
    1.2935   29.5304    8.7196 N   0  0  0  0  0  0
    0.1073   30.0346    9.1673 C   0  0  0  0  0  0
   -0.3631   31.2735    8.6731 C   0  0  0  0  0  0
    0.4580   31.9576    7.7760 C   0  0  0  0  0  0
    1.6296   31.4560    7.3197 N   0  0  0  0  0  0
   -1.8613   32.0194    9.1128 Cl  0  0  0  0  0  0
   -0.5500   29.1830   10.2300 C   0  0  0  0  0  0
   -0.1261   27.8829   10.7369 C   0  0  0  0  0  0
    0.9427   27.0054   10.4619 C   0  0  0  0  0  0
    1.0381   25.7924   11.1407 C   0  0  0  0  0  0
    0.0988   25.4316   12.1009 C   0  0  0  0  0  0
   -0.9673   26.2647   12.4318 C   0  0  0  0  0  0
   -1.0604   27.4797   11.7454 C   0  0  0  0  0  0
   -1.9703   28.4974   11.8656 N   0  0  0  0  0  0
   -1.6793   29.4928   10.9761 C   0  0  0  0  0  0
   10.6947   26.1155    4.4741 H   0  0  0  0  0  0
    9.9439   26.8020    5.9042 H   0  0  0  0  0  0
    9.4761   27.3697    4.2975 H   0  0  0  0  0  0
    8.5185   25.1100    3.7697 H   0  0  0  0  0  0
    8.9940   24.5062    5.3315 H   0  0  0  0  0  0
    6.7138   26.1998    4.6592 H   0  0  0  0  0  0
    4.9928   26.3419    4.9530 H   0  0  0  0  0  0
    3.9988   25.8370    6.3342 H   0  0  0  0  0  0
    4.7864   28.7013    5.5634 H   0  0  0  0  0  0
    3.2111   28.0014    5.3705 H   0  0  0  0  0  0
    2.8891   27.8215    7.8284 H   0  0  0  0  0  0
    4.6107   28.5463    9.3760 H   0  0  0  0  0  0
    5.6580   29.0743    8.0932 H   0  0  0  0  0  0
    4.8059   26.1758    8.6705 H   0  0  0  0  0  0
    6.4017   26.8961    8.9754 H   0  0  0  0  0  0
    3.7969   30.4494    6.7875 H   0  0  0  0  0  0
    0.1800   32.9316    7.3991 H   0  0  0  0  0  0
    1.6989   27.2566    9.7363 H   0  0  0  0  0  0
    1.8618   25.1266   10.9235 H   0  0  0  0  0  0
    0.2089   24.4860   12.6119 H   0  0  0  0  0  0
   -1.6859   25.9815   13.1861 H   0  0  0  0  0  0
   -2.7426   28.5669   12.5200 H   0  0  0  0  0  0
   -2.3193   30.3615   10.9805 H   0  0  0  0  0  0
  1  2  1  0  0  0
  1 29  1  0  0  0
  1 30  1  0  0  0
  1 31  1  0  0  0
  2  3  1  0  0  0
  2 32  1  0  0  0
  2 33  1  0  0  0
  3  4  1  0  0  0
  3 34  1  0  0  0
  4  5  2  0  0  0
  4  6  1  0  0  0
  6  7  1  0  0  0
  6 11  1  0  0  0
  7  8  1  0  0  0
  7 35  1  0  0  0
  7 36  1  0  0  0
  8  9  1  0  0  0
  8 37  1  0  0  0
  8 38  1  0  0  0
  9 10  1  0  0  0
  9 12  1  0  0  0
  9 39  1  0  0  0
 10 11  1  0  0  0
 10 40  1  0  0  0
 10 41  1  0  0  0
 11 42  1  0  0  0
 11 43  1  0  0  0
 12 13  1  0  0  0
 12 44  1  0  0  0
 13 14  2  0  0  0
 13 18  1  0  0  0
 14 15  1  0  0  0
 15 20  1  0  0  0
 15 16  2  0  0  0
 16 17  1  0  0  0
 16 19  1  0  0  0
 17 18  2  0  0  0
 17 45  1  0  0  0
 20 21  1  0  0  0
 20 28  2  0  0  0
 21 22  2  0  0  0
 21 26  1  0  0  0
 22 23  1  0  0  0
 22 46  1  0  0  0
 23 24  2  0  0  0
 23 47  1  0  0  0
 24 25  1  0  0  0
 24 48  1  0  0  0
 25 26  2  0  0  0
 25 49  1  0  0  0
 26 27  1  0  0  0
 27 28  1  0  0  0
 27 50  1  0  0  0
 28 51  1  0  0  0
M  END
> <s_m_entry_id>
32726

> <s_m_entry_name>
dock_pv.127

> <s_m_Source_Path>
/home/csk/Desktop/cluster/DUD-E-result/cdk2

> <s_m_Source_File>
dock_pv.maegz

> <i_m_Source_File_Index>
127

> <chembl_id>
CHEMBL248176

> <chembl_pref_name>
None

> <i_lp_mmshare_version>
53161

> <i_f3d_flags>
0

> <r_lp_tautomer_probability>
0.999999987636

> <s_lp_Force_Field>
OPLS_2005

> <r_lp_Energy>
31.413521

> <b_lp_Chiralities_Consistent>
1

> <s_lp_Variant>
CHEMBL301_lig500-1

> <s_i_glide_gridfile>
glide-grid_1h00

> <i_i_glide_lignum>
692

> <i_i_glide_rotatable_bonds>
6

> <r_i_docking_score>
-7.99725173177184

> <r_i_glide_ligand_efficiency>
-0.285616133277566

> <r_i_glide_ligand_efficiency_sa>
-0.867298799537086

> <r_i_glide_ligand_efficiency_ln>
-1.8460005092069

> <r_i_glide_gscore>
-7.99725173177184

> <r_i_glide_lipo>
-2.89915935712063

> <r_i_glide_hbond>
-0.408562751614992

> <r_i_glide_metal>
0

> <r_i_glide_rewards>
-2.03018343931134

> <r_i_glide_evdw>
-40.4715690612793

> <r_i_glide_ecoul>
-7.87259340286255

> <r_i_glide_erotb>
0.61557398411359

> <r_i_glide_esite>
-0.0704527043451231

> <r_i_glide_emodel>
-68.1024270739761

> <r_i_glide_energy>
-48.3441624641418

> <r_i_glide_einternal>
5.9937801361084

> <i_i_glide_confnum>
13

> <i_i_glide_posenum>
260

> <r_i_glide_eff_state_penalty>
0

> <s_user_duplicate_titles>
CHEMBL301_lig500

> <s_m_subgroup_title>
dock_pv

> <s_m_subgroupid>
dock_pv

> <b_m_subgroup_collapsed>
1

$$$$
CHEMBL301_lig148
                    3D
 Schrodinger Suite 2021-1.
 40 43  0  0  1  0            999 V2000
    1.2586   30.2954    8.1908 C   0  0  0  0  0  0
    0.0313   30.3427    8.9758 C   0  0  0  0  0  0
    7.0351   24.8160    6.1362 S   0  0  0  0  0  0
    1.2580   31.4994    7.3760 C   0  0  0  0  0  0
    0.1969   32.2143    7.7778 N   0  0  0  0  0  0
   -0.5881   31.5392    8.6877 C   0  0  0  0  0  0
    2.2425   29.3724    8.1521 C   0  0  0  0  0  0
   -0.5815   29.4879    9.9066 C   0  0  0  0  0  0
   -2.3312   28.9386   11.3759 N   0  0  0  0  0  0
   -0.0828   27.9193   10.5380 S   0  0  0  0  0  0
   -1.5409   27.9119   11.4955 C   0  0  0  0  0  0
    5.8828   26.1390    6.4805 C   0  0  0  0  0  0
   -1.8230   29.8511   10.5040 C   0  0  0  0  0  0
    7.1486   24.6777    4.6807 O   0  0  0  0  0  0
    6.6402   23.6793    6.9760 O   0  0  0  0  0  0
    3.3692   29.3618    7.3622 N   0  0  0  0  0  0
    2.0580   31.8520    6.5164 O   0  0  0  0  0  0
    8.5764   25.3935    6.7544 N   0  0  3  0  0  0
   -1.7960   31.9226    9.2663 C   0  0  0  0  0  0
   -2.4341   31.0750   10.1760 C   0  0  0  0  0  0
    5.4988   27.0288    5.4759 C   0  0  0  0  0  0
    5.3981   26.2934    7.7766 C   0  0  0  0  0  0
    4.1915   28.2644    7.0879 C   0  0  0  0  0  0
    4.6689   28.1033    5.7869 C   0  0  0  0  0  0
    4.5469   27.3494    8.0816 C   0  0  0  0  0  0
    9.4515   26.2518    5.9332 C   0  0  0  0  0  0
   -0.0017   33.1358    7.4139 H   0  0  0  0  0  0
    2.1841   28.5049    8.7929 H   0  0  0  0  0  0
   -1.7648   27.0850   12.1536 H   0  0  0  0  0  0
    3.4592   30.1114    6.6816 H   0  0  0  0  0  0
    8.9790   24.9161    7.5639 H   0  0  0  0  0  0
   -2.2503   32.8718    9.0187 H   0  0  0  0  0  0
   -3.3682   31.3612   10.6393 H   0  0  0  0  0  0
    5.8784   26.9188    4.4697 H   0  0  0  0  0  0
    5.6908   25.6102    8.5621 H   0  0  0  0  0  0
    4.4049   28.8106    5.0121 H   0  0  0  0  0  0
    4.2005   27.4663    9.0984 H   0  0  0  0  0  0
    8.8580   26.8505    5.2414 H   0  0  0  0  0  0
   10.1275   25.6253    5.3505 H   0  0  0  0  0  0
   10.0545   26.8953    6.5739 H   0  0  0  0  0  0
  1  2  1  0  0  0
  1  4  1  0  0  0
  1  7  2  0  0  0
  2  6  2  0  0  0
  2  8  1  0  0  0
  3 12  1  0  0  0
  3 14  2  0  0  0
  3 15  2  0  0  0
  3 18  1  0  0  0
  4  5  1  0  0  0
  4 17  2  0  0  0
  5  6  1  0  0  0
  5 27  1  0  0  0
  6 19  1  0  0  0
  7 16  1  0  0  0
  7 28  1  0  0  0
  8 10  1  0  0  0
  8 13  2  0  0  0
  9 13  1  0  0  0
  9 11  2  0  0  0
 10 11  1  0  0  0
 11 29  1  0  0  0
 12 22  2  0  0  0
 12 21  1  0  0  0
 13 20  1  0  0  0
 16 23  1  0  0  0
 16 30  1  0  0  0
 18 26  1  0  0  0
 18 31  1  0  0  0
 19 20  2  0  0  0
 19 32  1  0  0  0
 20 33  1  0  0  0
 21 24  2  0  0  0
 21 34  1  0  0  0
 22 25  1  0  0  0
 22 35  1  0  0  0
 23 24  1  0  0  0
 23 25  2  0  0  0
 24 36  1  0  0  0
 25 37  1  0  0  0
 26 38  1  0  0  0
 26 39  1  0  0  0
 26 40  1  0  0  0
M  END
> <s_m_entry_id>
32727

> <s_m_entry_name>
dock_pv.128

> <s_m_Source_Path>
/home/csk/Desktop/cluster/DUD-E-result/cdk2

> <s_m_Source_File>
dock_pv.maegz

> <i_m_Source_File_Index>
128

> <chembl_id>
CHEMBL1964245

> <chembl_pref_name>
None

> <i_lp_mmshare_version>
53161

> <i_f3d_flags>
0

> <r_lp_tautomer_probability>
0.499999999999422

> <s_lp_Force_Field>
OPLS_2005

> <r_lp_Energy>
37.717904

> <b_lp_Chiralities_Consistent>
1

> <s_lp_Variant>
CHEMBL301_lig148-1

> <s_i_glide_gridfile>
glide-grid_1h00

> <i_i_glide_lignum>
287

> <i_i_glide_rotatable_bonds>
4

> <r_i_docking_score>
-7.99601747980149

> <r_i_glide_ligand_efficiency>
-0.307539133838519

> <r_i_glide_ligand_efficiency_sa>
-0.911083473888555

> <r_i_glide_ligand_efficiency_ln>
-1.87783846805804

> <r_i_glide_gscore>
-7.99601747980149

> <r_i_glide_lipo>
-2.54546868160251

> <r_i_glide_hbond>
-0.565748488260406

> <r_i_glide_metal>
0

> <r_i_glide_rewards>
-2.12936356226931

> <r_i_glide_evdw>
-40.2364807128906

> <r_i_glide_ecoul>
-7.51398086547852

> <r_i_glide_erotb>
0.390981041112625

> <r_i_glide_esite>
-0.00749662331558772

> <r_i_glide_emodel>
-65.3275205011755

> <r_i_glide_energy>
-47.7504615783691

> <r_i_glide_einternal>
9.19702911376953

> <i_i_glide_confnum>
14

> <i_i_glide_posenum>
143

> <r_i_glide_eff_state_penalty>
0

> <s_user_duplicate_titles>
CHEMBL301_lig148,137201

> <s_m_subgroup_title>
dock_pv

> <s_m_subgroupid>
dock_pv

> <b_m_subgroup_collapsed>
1

$$$$
CHEMBL301_lig1424
                    3D
 Schrodinger Suite 2021-1.
 50 54  0  0  1  0            999 V2000
    4.0590   23.8147    6.2339 N   0  0  2  0  0  0
    4.4624   24.2260    7.5816 C   0  0  0  0  0  0
    5.7772   25.0417    7.5913 C   0  0  0  0  0  0
    5.6991   26.2619    6.6488 C   0  0  0  0  0  0
    5.4144   25.6597    5.2518 C   0  0  0  0  0  0
    4.0989   24.8619    5.2099 C   0  0  0  0  0  0
    4.7479   27.3137    7.1150 N   0  0  0  0  0  0
    4.4164   27.3753    8.4135 N   0  0  0  0  0  0
    3.5883   28.3786    8.5248 C   0  0  0  0  0  0
    3.3356   29.0261    7.3144 C   0  0  0  0  0  0
    4.1737   28.3587    6.4209 C   0  0  0  0  0  0
    2.5474   30.1192    7.0390 N   0  0  0  0  0  0
    1.4242   30.6239    7.6992 C   0  0  0  0  0  0
    0.7493   29.8505    8.5882 N   0  0  0  0  0  0
   -0.3399   30.3801    9.2108 C   0  0  0  0  0  0
   -0.7121   31.7221    8.9759 C   0  0  0  0  0  0
    0.0580   32.4344    8.0573 C   0  0  0  0  0  0
    1.1031   31.8988    7.3760 N   0  0  0  0  0  0
   -1.9912   32.5592    9.7843 Cl  0  0  0  0  0  0
   -1.0782   29.4399   10.1253 C   0  0  0  0  0  0
   -0.6359   28.2318   10.6607 N   0  0  0  0  0  0
   -1.7066   27.7400   11.4383 C   0  0  0  0  0  0
   -2.7708   28.5640   11.3760 N   0  0  0  0  0  0
   -2.3900   29.5355   10.5904 C   0  0  0  0  0  0
   -1.5625   26.5223   12.1272 C   0  0  0  0  0  0
   -0.3575   25.8264   12.0302 C   0  0  0  0  0  0
    0.6874   26.3217   11.2597 C   0  0  0  0  0  0
    0.5398   27.5262   10.5770 C   0  0  0  0  0  0
    4.4583   28.6465    4.9770 C   0  0  0  0  0  0
    3.1166   23.4364    6.2918 H   0  0  0  0  0  0
    3.6487   24.8017    8.0256 H   0  0  0  0  0  0
    4.5735   23.3215    8.1765 H   0  0  0  0  0  0
    6.0411   25.3683    8.5939 H   0  0  0  0  0  0
    6.6381   24.4149    7.3501 H   0  0  0  0  0  0
    6.6745   26.7496    6.6314 H   0  0  0  0  0  0
    6.2518   25.0299    4.9442 H   0  0  0  0  0  0
    5.4613   26.3934    4.4548 H   0  0  0  0  0  0
    3.2588   25.5348    5.3755 H   0  0  0  0  0  0
    3.9630   24.4075    4.2255 H   0  0  0  0  0  0
    3.1942   28.6517    9.4858 H   0  0  0  0  0  0
    2.9004   30.7592    6.3400 H   0  0  0  0  0  0
   -0.1899   33.4518    7.8247 H   0  0  0  0  0  0
   -3.0987   30.3172   10.3643 H   0  0  0  0  0  0
   -2.3786   26.1375   12.7204 H   0  0  0  0  0  0
   -0.2327   24.8932   12.5589 H   0  0  0  0  0  0
    1.6204   25.7783   11.1994 H   0  0  0  0  0  0
    1.3251   27.9353    9.9751 H   0  0  0  0  0  0
    4.2386   29.6848    4.7702 H   0  0  0  0  0  0
    5.5096   28.5263    4.7202 H   0  0  0  0  0  0
    3.8576   28.0411    4.3006 H   0  0  0  0  0  0
  1  2  1  0  0  0
  1  6  1  0  0  0
  1 30  1  0  0  0
  2  3  1  0  0  0
  2 31  1  0  0  0
  2 32  1  0  0  0
  3  4  1  0  0  0
  3 33  1  0  0  0
  3 34  1  0  0  0
  4  5  1  0  0  0
  4  7  1  0  0  0
  4 35  1  0  0  0
  5  6  1  0  0  0
  5 36  1  0  0  0
  5 37  1  0  0  0
  6 38  1  0  0  0
  6 39  1  0  0  0
  7  8  1  0  0  0
  7 11  1  0  0  0
  8  9  2  0  0  0
  9 10  1  0  0  0
  9 40  1  0  0  0
 10 11  2  0  0  0
 10 12  1  0  0  0
 11 29  1  0  0  0
 12 13  1  0  0  0
 12 41  1  0  0  0
 13 14  2  0  0  0
 13 18  1  0  0  0
 14 15  1  0  0  0
 15 16  2  0  0  0
 15 20  1  0  0  0
 16 17  1  0  0  0
 16 19  1  0  0  0
 17 18  2  0  0  0
 17 42  1  0  0  0
 20 21  1  0  0  0
 20 24  2  0  0  0
 21 22  1  0  0  0
 21 28  1  0  0  0
 22 23  2  0  0  0
 22 25  1  0  0  0
 23 24  1  0  0  0
 24 43  1  0  0  0
 25 26  2  0  0  0
 25 44  1  0  0  0
 26 27  1  0  0  0
 26 45  1  0  0  0
 27 28  2  0  0  0
 27 46  1  0  0  0
 28 47  1  0  0  0
 29 48  1  0  0  0
 29 49  1  0  0  0
 29 50  1  0  0  0
M  END
> <s_m_entry_id>
32728

> <s_m_entry_name>
dock_pv.129

> <s_m_Source_Path>
/home/csk/Desktop/cluster/DUD-E-result/cdk2

> <s_m_Source_File>
dock_pv.maegz

> <i_m_Source_File_Index>
129

> <chembl_id>
CHEMBL3822543

> <chembl_pref_name>
None

> <i_lp_mmshare_version>
53161

> <i_f3d_flags>
0

> <r_lp_tautomer_probability>
0.999999987636

> <s_lp_Force_Field>
OPLS_2005

> <r_lp_Energy>
19.745773

> <b_lp_Chiralities_Consistent>
1

> <s_lp_Variant>
CHEMBL301_lig1424-1

> <s_i_glide_gridfile>
glide-grid_1h00

> <i_i_glide_lignum>
1936

> <i_i_glide_rotatable_bonds>
4

> <r_i_docking_score>
-7.9932549208994

> <r_i_glide_ligand_efficiency>
-0.275629480031014

> <r_i_glide_ligand_efficiency_sa>
-0.846821088203826

> <r_i_glide_ligand_efficiency_ln>
-1.83025268542987

> <r_i_glide_gscore>
-7.9932549208994

> <r_i_glide_lipo>
-2.92544372292262

> <r_i_glide_hbond>
-0.490697152781007

> <r_i_glide_metal>
0

> <r_i_glide_rewards>
-2.16352897292409

> <r_i_glide_evdw>
-41.7670135498047

> <r_i_glide_ecoul>
-5.30808782577515

> <r_i_glide_erotb>
0.470978779084823

> <r_i_glide_esite>
0

> <r_i_glide_emodel>
-68.0447544808249

> <r_i_glide_energy>
-47.0751013755798

> <r_i_glide_einternal>
3.91318297386169

> <i_i_glide_confnum>
126

> <i_i_glide_posenum>
206

> <r_i_glide_eff_state_penalty>
0

> <s_user_duplicate_titles>
CHEMBL301_lig1424

> <s_m_subgroup_title>
dock_pv

> <s_m_subgroupid>
dock_pv

> <b_m_subgroup_collapsed>
1

$$$$
CHEMBL301_lig1399
                    3D
 Schrodinger Suite 2021-1.
 47 48  0  0  1  0            999 V2000
   -0.1649   29.7259   12.2239 C   0  0  0  0  0  0
   -0.4570   28.7665   11.0539 C   0  0  2  0  0  0
   -1.1547   29.4911    9.9871 N   0  0  0  0  0  0
   -0.4235   30.3438    9.1496 C   0  0  0  0  0  0
    0.6774   29.8521    8.5193 N   0  0  0  0  0  0
    1.3432   30.6971    7.6884 C   0  0  0  0  0  0
    2.4577   30.2469    6.9735 N   0  0  0  0  0  0
    3.2708   29.1141    7.0978 C   0  0  0  0  0  0
    3.9252   28.6520    5.9532 C   0  0  0  0  0  0
    4.8554   27.6212    6.0393 C   0  0  0  0  0  0
    5.1365   27.0531    7.2812 C   0  0  0  0  0  0
    4.4576   27.4937    8.4175 C   0  0  0  0  0  0
    3.5295   28.5241    8.3329 C   0  0  0  0  0  0
    6.3790   25.7732    7.4543 S   0  0  2  0  0  0
    5.5402   24.4998    7.3748 N   0  0  0  0  0  0
    7.2583   26.1149    8.5759 O   0  0  0  0  0  0
    7.3754   25.6881    5.8614 C   0  0  0  0  0  0
    1.0156   31.9955    7.4692 N   0  0  0  0  0  0
   -0.0376   32.4839    8.1759 C   0  0  0  0  0  0
   -0.8122   31.6830    9.0142 C   0  0  0  0  0  0
   -2.3125   32.4239    9.9329 Br  0  0  0  0  0  0
   -1.1814   27.4365   11.4606 C   0  0  0  0  0  0
   -1.1655   26.4285   10.2894 C   0  0  0  0  0  0
   -0.5736   26.7597   12.7085 C   0  0  0  0  0  0
   -2.5429   27.6870   11.7759 O   0  0  0  0  0  0
    0.4549   29.2454   12.9758 H   0  0  0  0  0  0
    0.3834   30.6057   11.8827 H   0  0  0  0  0  0
   -1.0819   30.0698   12.7063 H   0  0  0  0  0  0
    0.5216   28.4670   10.6737 H   0  0  0  0  0  0
   -2.0249   29.8926   10.3057 H   0  0  0  0  0  0
    2.9130   30.9680    6.4275 H   0  0  0  0  0  0
    3.7460   29.1188    4.9967 H   0  0  0  0  0  0
    5.3675   27.2999    5.1459 H   0  0  0  0  0  0
    4.6557   27.0522    9.3760 H   0  0  0  0  0  0
    3.0475   28.8787    9.2311 H   0  0  0  0  0  0
    6.1073   23.6735    7.2698 H   0  0  0  0  0  0
    6.7160   25.4393    5.0312 H   0  0  0  0  0  0
    7.8534   26.6513    5.6947 H   0  0  0  0  0  0
    8.1389   24.9199    5.9737 H   0  0  0  0  0  0
   -0.2811   33.5258    8.0241 H   0  0  0  0  0  0
   -0.1525   26.0804   10.0827 H   0  0  0  0  0  0
   -1.5419   26.8676    9.3661 H   0  0  0  0  0  0
   -1.7763   25.5499   10.5021 H   0  0  0  0  0  0
    0.4923   26.5747   12.5765 H   0  0  0  0  0  0
   -0.6936   27.3649   13.6073 H   0  0  0  0  0  0
   -1.0495   25.8000   12.9131 H   0  0  0  0  0  0
   -2.5970   28.2885   12.5270 H   0  0  0  0  0  0
  1  2  1  0  0  0
  1 26  1  0  0  0
  1 27  1  0  0  0
  1 28  1  0  0  0
  2  3  1  0  0  0
  2 22  1  0  0  0
  2 29  1  0  0  0
  3  4  1  0  0  0
  3 30  1  0  0  0
  4  5  2  0  0  0
  4 20  1  0  0  0
  5  6  1  0  0  0
  6  7  1  0  0  0
  6 18  2  0  0  0
  7  8  1  0  0  0
  7 31  1  0  0  0
  8  9  2  0  0  0
  8 13  1  0  0  0
  9 10  1  0  0  0
  9 32  1  0  0  0
 10 11  2  0  0  0
 10 33  1  0  0  0
 11 12  1  0  0  0
 11 14  1  0  0  0
 12 13  2  0  0  0
 12 34  1  0  0  0
 13 35  1  0  0  0
 14 15  2  0  0  0
 14 16  2  0  0  0
 14 17  1  0  0  0
 15 36  1  0  0  0
 17 37  1  0  0  0
 17 38  1  0  0  0
 17 39  1  0  0  0
 18 19  1  0  0  0
 19 20  2  0  0  0
 19 40  1  0  0  0
 20 21  1  0  0  0
 22 23  1  0  0  0
 22 24  1  0  0  0
 22 25  1  0  0  0
 23 41  1  0  0  0
 23 42  1  0  0  0
 23 43  1  0  0  0
 24 44  1  0  0  0
 24 45  1  0  0  0
 24 46  1  0  0  0
 25 47  1  0  0  0
M  END
> <s_m_entry_id>
32729

> <s_m_entry_name>
dock_pv.130

> <s_m_Source_Path>
/home/csk/Desktop/cluster/DUD-E-result/cdk2

> <s_m_Source_File>
dock_pv.maegz

> <i_m_Source_File_Index>
130

> <chembl_id>
CHEMBL3648116

> <chembl_pref_name>
None

> <i_lp_mmshare_version>
53161

> <i_f3d_flags>
0

> <r_lp_tautomer_probability>
0.999999624730965

> <s_lp_Force_Field>
OPLS_2005

> <r_lp_Energy>
9.314364

> <b_lp_Chiralities_Consistent>
1

> <s_lp_Variant>
CHEMBL301_lig1399-1

> <s_i_glide_gridfile>
glide-grid_1h00

> <i_i_glide_lignum>
1899

> <i_i_glide_rotatable_bonds>
7

> <r_i_docking_score>
-7.99234129957866

> <r_i_glide_ligand_efficiency>
-0.319693651983146

> <r_i_glide_ligand_efficiency_sa>
-0.93478990818978

> <r_i_glide_ligand_efficiency_ln>
-1.89442439914153

> <r_i_glide_gscore>
-7.99234129957866

> <r_i_glide_lipo>
-3.0494088490074

> <r_i_glide_hbond>
-0.367587449065105

> <r_i_glide_metal>
0

> <r_i_glide_rewards>
-1.78404418296619

> <r_i_glide_evdw>
-40.9754447937012

> <r_i_glide_ecoul>
-8.5586986541748

> <r_i_glide_erotb>
0.541276219271308

> <r_i_glide_esite>
0

> <r_i_glide_emodel>
-66.6323562162188

> <r_i_glide_energy>
-49.534143447876

> <r_i_glide_einternal>
11.1621284484863

> <i_i_glide_confnum>
33

> <i_i_glide_posenum>
395

> <r_i_glide_eff_state_penalty>
0

> <s_user_duplicate_titles>
CHEMBL301_lig1399

> <s_m_subgroup_title>
dock_pv

> <s_m_subgroupid>
dock_pv

> <b_m_subgroup_collapsed>
1

$$$$
CHEMBL301_lig317
                    3D
 Schrodinger Suite 2021-1.
 49 51  0  0  1  0            999 V2000
    1.1651   30.4229    8.2028 C   0  0  0  0  0  0
    6.6596   24.7596    6.0130 S   0  0  0  0  0  0
    1.2356   31.6151    7.3761 C   0  0  0  0  0  0
    0.2206   32.3988    7.7760 N   0  0  0  0  0  0
    2.1173   29.4671    8.1791 C   0  0  0  0  0  0
   -0.0674   30.5324    8.9734 C   0  0  0  0  0  0
   -0.6019   31.7687    8.6816 C   0  0  0  0  0  0
    5.6132   26.1372    6.4583 C   0  0  0  0  0  0
    6.6207   23.7967    7.1184 O   0  0  0  0  0  0
    6.2998   24.3607    4.6479 O   0  0  0  0  0  0
    8.2703   25.4501    5.9711 N   0  0  3  0  0  0
    3.2605   29.4499    7.4099 N   0  0  0  0  0  0
    2.0580   31.8937    6.5129 O   0  0  0  0  0  0
    5.2579   27.0596    5.4752 C   0  0  0  0  0  0
    5.1867   26.3076    7.7762 C   0  0  0  0  0  0
    8.7483   26.2097    4.7967 C   0  0  0  0  0  0
    4.0582   28.3391    7.1280 C   0  0  0  0  0  0
   10.6532   24.5904    4.3909 N   0  0  0  0  0  0
    4.4940   28.1711    5.8150 C   0  0  0  0  0  0
    4.4005   27.4056    8.1100 C   0  0  0  0  0  0
   -0.7050   29.6910    9.8892 C   0  0  0  0  0  0
   -1.7848   32.2100    9.2711 C   0  0  0  0  0  0
    9.5377   25.3376    3.7966 C   0  0  0  0  0  0
   11.2787   23.7611    3.3646 C   0  0  0  0  0  0
   11.6610   25.4819    4.9600 C   0  0  0  0  0  0
   -1.8966   30.1144   10.4874 C   0  0  0  0  0  0
   -2.4344   31.3685   10.1760 C   0  0  0  0  0  0
    0.0587   33.3185    7.3908 H   0  0  0  0  0  0
    2.0257   28.5966    8.8144 H   0  0  0  0  0  0
    8.9503   25.1628    6.6788 H   0  0  0  0  0  0
    3.3747   30.2036    6.7364 H   0  0  0  0  0  0
    5.5866   26.9301    4.4544 H   0  0  0  0  0  0
    5.4670   25.6060    8.5509 H   0  0  0  0  0  0
    7.8902   26.6555    4.2951 H   0  0  0  0  0  0
    9.3565   27.0478    5.1389 H   0  0  0  0  0  0
    4.2325   28.8913    5.0532 H   0  0  0  0  0  0
    4.0821   27.5332    9.1342 H   0  0  0  0  0  0
   -0.2915   28.7263   10.1411 H   0  0  0  0  0  0
   -2.2006   33.1806    9.0497 H   0  0  0  0  0  0
    8.8417   24.6329    3.3368 H   0  0  0  0  0  0
    9.9053   25.9673    2.9833 H   0  0  0  0  0  0
   12.0902   23.1691    3.7876 H   0  0  0  0  0  0
   10.5585   23.0598    2.9426 H   0  0  0  0  0  0
   11.6866   24.3634    2.5496 H   0  0  0  0  0  0
   12.4958   24.9120    5.3699 H   0  0  0  0  0  0
   12.0579   26.1695    4.2130 H   0  0  0  0  0  0
   11.2539   26.0746    5.7767 H   0  0  0  0  0  0
   -2.4006   29.4815   11.2041 H   0  0  0  0  0  0
   -3.3495   31.6930   10.6514 H   0  0  0  0  0  0
  1  3  1  0  0  0
  1  5  2  0  0  0
  1  6  1  0  0  0
  2  8  1  0  0  0
  2  9  2  0  0  0
  2 10  2  0  0  0
  2 11  1  0  0  0
  3  4  1  0  0  0
  3 13  2  0  0  0
  4  7  1  0  0  0
  4 28  1  0  0  0
  5 12  1  0  0  0
  5 29  1  0  0  0
  6  7  2  0  0  0
  6 21  1  0  0  0
  7 22  1  0  0  0
  8 15  2  0  0  0
  8 14  1  0  0  0
 11 16  1  0  0  0
 11 30  1  0  0  0
 12 17  1  0  0  0
 12 31  1  0  0  0
 14 19  2  0  0  0
 14 32  1  0  0  0
 15 20  1  0  0  0
 15 33  1  0  0  0
 16 23  1  0  0  0
 16 34  1  0  0  0
 16 35  1  0  0  0
 17 19  1  0  0  0
 17 20  2  0  0  0
 18 23  1  0  0  0
 18 24  1  0  0  0
 18 25  1  0  0  0
 19 36  1  0  0  0
 20 37  1  0  0  0
 21 26  2  0  0  0
 21 38  1  0  0  0
 22 27  2  0  0  0
 22 39  1  0  0  0
 23 40  1  0  0  0
 23 41  1  0  0  0
 24 42  1  0  0  0
 24 43  1  0  0  0
 24 44  1  0  0  0
 25 45  1  0  0  0
 25 46  1  0  0  0
 25 47  1  0  0  0
 26 27  1  0  0  0
 26 48  1  0  0  0
 27 49  1  0  0  0
M  END
> <s_m_entry_id>
32730

> <s_m_entry_name>
dock_pv.131

> <s_m_Source_Path>
/home/csk/Desktop/cluster/DUD-E-result/cdk2

> <s_m_Source_File>
dock_pv.maegz

> <i_m_Source_File_Index>
131

> <chembl_id>
CHEMBL1964248

> <chembl_pref_name>
None

> <i_lp_mmshare_version>
53161

> <i_f3d_flags>
0

> <r_lp_tautomer_probability>
0.499999999999422

> <s_lp_Force_Field>
OPLS_2005

> <r_lp_Energy>
35.063621

> <b_lp_Chiralities_Consistent>
1

> <s_lp_Variant>
CHEMBL301_lig317-1

> <s_i_glide_gridfile>
glide-grid_1h00

> <i_i_glide_lignum>
493

> <i_i_glide_rotatable_bonds>
7

> <r_i_docking_score>
-7.99117524101635

> <r_i_glide_ligand_efficiency>
-0.295969453370976

> <r_i_glide_ligand_efficiency_sa>
-0.887908359137461

> <r_i_glide_ligand_efficiency_ln>
-1.86021385128834

> <r_i_glide_gscore>
-7.99117524101635

> <r_i_glide_lipo>
-2.39372225373083

> <r_i_glide_hbond>
-0.684668313482159

> <r_i_glide_metal>
0

> <r_i_glide_rewards>
-2.08609489368535

> <r_i_glide_evdw>
-36.9421882629395

> <r_i_glide_ecoul>
-10.0086822509766

> <r_i_glide_erotb>
0.547325372621992

> <r_i_glide_esite>
-0.0256034019465418

> <r_i_glide_emodel>
-65.8919902133092

> <r_i_glide_energy>
-46.950870513916

> <r_i_glide_einternal>
7.78327178955078

> <i_i_glide_confnum>
64

> <i_i_glide_posenum>
399

> <r_i_glide_eff_state_penalty>
0

> <s_user_duplicate_titles>
CHEMBL301_lig317

> <s_m_subgroup_title>
dock_pv

> <s_m_subgroupid>
dock_pv

> <b_m_subgroup_collapsed>
1

$$$$
CHEMBL301_lig346
                    3D
 Schrodinger Suite 2021-1.
 36 39  0  0  1  0            999 V2000
   -2.4076   30.9237   10.1760 C   0  0  0  0  0  0
   -1.8005   31.7899    9.2634 C   0  0  0  0  0  0
    0.0752   30.2642    8.9597 C   0  0  0  0  0  0
   -0.5832   31.4448    8.6779 C   0  0  0  0  0  0
    0.1739   32.1573    7.7760 N   0  0  0  0  0  0
    1.2580   31.4809    7.3760 C   0  0  0  0  0  0
    1.3003   30.2520    8.1828 C   0  0  0  0  0  0
    2.0580   31.8520    6.5242 O   0  0  0  0  0  0
    2.2257   29.3719    8.2178 N   0  0  0  0  0  0
    3.3412   29.4520    7.3760 N   0  0  0  0  0  0
    4.1476   28.3582    7.0780 C   0  0  0  0  0  0
    4.4580   28.0949    5.7449 C   0  0  0  0  0  0
    5.2898   27.0266    5.4234 C   0  0  0  0  0  0
    5.8350   26.2457    6.4454 C   0  0  0  0  0  0
    5.5066   26.4944    7.7760 C   0  0  0  0  0  0
    4.6546   27.5457    8.0925 C   0  0  0  0  0  0
    7.0133   24.9577    6.0768 S   0  0  0  0  0  0
    8.5430   25.6242    6.5760 N   0  0  0  0  0  0
    6.7246   23.8356    6.9760 O   0  0  0  0  0  0
    7.0670   24.7794    4.6235 O   0  0  0  0  0  0
   -1.7579   29.7198   10.5004 C   0  0  0  0  0  0
   -0.5114   29.3941    9.8943 C   0  0  0  0  0  0
   -1.4109   27.7887   11.4896 C   0  0  0  0  0  0
    0.0423   27.8430   10.5265 S   0  0  0  0  0  0
   -2.2301   28.7933   11.3760 N   0  0  0  0  0  0
   -3.3468   31.1819   10.6446 H   0  0  0  0  0  0
   -2.2846   32.7256    9.0209 H   0  0  0  0  0  0
   -0.0557   33.0758    7.4208 H   0  0  0  0  0  0
    3.2971   30.2199    6.7096 H   0  0  0  0  0  0
    4.0677   28.7249    4.9593 H   0  0  0  0  0  0
    5.5466   26.8399    4.3902 H   0  0  0  0  0  0
    5.9227   25.8909    8.5712 H   0  0  0  0  0  0
    4.4146   27.7445    9.1273 H   0  0  0  0  0  0
    9.1623   24.9173    6.9760 H   0  0  0  0  0  0
    9.0075   26.1463    5.8283 H   0  0  0  0  0  0
   -1.6056   26.9540   12.1472 H   0  0  0  0  0  0
  1 21  2  0  0  0
  1  2  1  0  0  0
  1 26  1  0  0  0
  2  4  2  0  0  0
  2 27  1  0  0  0
  3 22  2  0  0  0
  3  7  1  0  0  0
  3  4  1  0  0  0
  4  5  1  0  0  0
  5  6  1  0  0  0
  5 28  1  0  0  0
  6  7  1  0  0  0
  6  8  2  0  0  0
  7  9  2  0  0  0
  9 10  1  0  0  0
 10 11  1  0  0  0
 10 29  1  0  0  0
 11 12  2  0  0  0
 11 16  1  0  0  0
 12 13  1  0  0  0
 12 30  1  0  0  0
 13 14  2  0  0  0
 13 31  1  0  0  0
 14 15  1  0  0  0
 14 17  1  0  0  0
 15 16  2  0  0  0
 15 32  1  0  0  0
 16 33  1  0  0  0
 17 18  1  0  0  0
 17 19  2  0  0  0
 17 20  2  0  0  0
 18 34  1  0  0  0
 18 35  1  0  0  0
 21 22  1  0  0  0
 21 25  1  0  0  0
 22 24  1  0  0  0
 23 24  1  0  0  0
 23 25  2  0  0  0
 23 36  1  0  0  0
M  END
> <s_m_entry_id>
32731

> <s_m_entry_name>
dock_pv.132

> <s_m_Source_Path>
/home/csk/Desktop/cluster/DUD-E-result/cdk2

> <s_m_Source_File>
dock_pv.maegz

> <i_m_Source_File_Index>
132

> <chembl_id>
CHEMBL407709

> <chembl_pref_name>
None

> <i_lp_mmshare_version>
53161

> <i_f3d_flags>
0

> <r_lp_tautomer_probability>
1

> <s_lp_Force_Field>
OPLS_2005

> <r_lp_Energy>
47.051538

> <b_lp_Chiralities_Consistent>
1

> <s_lp_Variant>
CHEMBL301_lig346-1

> <s_i_glide_gridfile>
glide-grid_1h00

> <i_i_glide_lignum>
526

> <i_i_glide_rotatable_bonds>
3

> <r_i_docking_score>
-7.98751050136047

> <r_i_glide_ligand_efficiency>
-0.319500420054419

> <r_i_glide_ligand_efficiency_sa>
-0.934224894603198

> <r_i_glide_ligand_efficiency_ln>
-1.89327935519648

> <r_i_glide_gscore>
-7.98751050136047

> <r_i_glide_lipo>
-2.27627915440936

> <r_i_glide_hbond>
-0.507192728182263

> <r_i_glide_metal>
0

> <r_i_glide_rewards>
-2.50467088143593

> <r_i_glide_evdw>
-40.3762741088867

> <r_i_glide_ecoul>
-6.34911203384399

> <r_i_glide_erotb>
0.277184859556142

> <r_i_glide_esite>
-0.00537208636812595

> <r_i_glide_emodel>
-67.6400284464319

> <r_i_glide_energy>
-46.7253861427307

> <r_i_glide_einternal>
3.53778862953186

> <i_i_glide_confnum>
3

> <i_i_glide_posenum>
40

> <r_i_glide_eff_state_penalty>
0

> <s_user_duplicate_titles>
CHEMBL301_lig346,440595,226158

> <s_m_subgroup_title>
dock_pv

> <s_m_subgroupid>
dock_pv

> <b_m_subgroup_collapsed>
1

$$$$
CHEMBL301_lig825
                    3D
 Schrodinger Suite 2021-1.
 52 54  0  0  1  0            999 V2000
   -0.2906   28.6840   12.1731 C   0  0  0  0  0  0
   -0.7727   29.8094   11.6927 N   0  0  0  0  0  0
   -1.9147   29.4555   11.1548 C   0  0  0  0  0  0
   -2.2596   28.1643   11.3760 O   0  0  0  0  0  0
   -1.1989   27.6426   12.0389 C   0  0  0  0  0  0
   -2.8177   30.2639   10.2455 C   0  0  0  0  0  0
   -2.2082   31.9204    9.7800 S   0  0  0  0  0  0
   -0.7448   31.6067    8.8331 C   0  0  0  0  0  0
    0.0133   32.5684    8.1751 C   0  0  0  0  0  0
    1.0714   32.1586    7.4953 N   0  0  0  0  0  0
    1.2986   30.8864    7.6993 C   0  0  0  0  0  0
    0.0364   30.0675    8.5754 S   0  0  0  0  0  0
    2.4567   30.2761    7.2308 N   0  0  0  0  0  0
    3.0904   29.1968    7.7440 C   0  0  0  0  0  0
    4.2855   28.6656    6.9119 C   0  0  2  0  0  0
    2.7720   28.6519    8.8028 O   0  0  0  0  0  0
   -1.2455   26.1602   12.4018 C   0  0  0  0  0  0
    0.0549   25.7446   13.1237 C   0  0  0  0  0  0
   -1.4048   25.3171   11.1157 C   0  0  0  0  0  0
   -2.4470   25.9030   13.3360 C   0  0  0  0  0  0
    3.7990   28.4814    5.4463 C   0  0  0  0  0  0
    4.8265   27.7089    4.6096 C   0  0  0  0  0  0
    5.3292   26.4224    5.3032 C   0  0  2  0  0  0
    5.8704   26.7599    6.6171 N   0  0  2  0  0  0
    4.8618   27.3490    7.5036 C   0  0  0  0  0  0
    6.3579   25.6861    4.4359 C   0  0  0  0  0  0
    0.7047   28.6394   12.5767 H   0  0  0  0  0  0
   -3.0222   29.7093    9.3362 H   0  0  0  0  0  0
   -3.7907   30.3986   10.7134 H   0  0  0  0  0  0
   -0.2366   33.6170    8.1762 H   0  0  0  0  0  0
    2.9754   30.7765    6.5196 H   0  0  0  0  0  0
    5.0477   29.4482    6.9383 H   0  0  0  0  0  0
    0.0436   24.6911   13.4087 H   0  0  0  0  0  0
    0.2093   26.3305   14.0330 H   0  0  0  0  0  0
    0.9314   25.9015   12.4915 H   0  0  0  0  0  0
   -2.3230   25.5668   10.5811 H   0  0  0  0  0  0
   -0.5787   25.4826   10.4223 H   0  0  0  0  0  0
   -1.4394   24.2496   11.3366 H   0  0  0  0  0  0
   -3.3904   26.1789   12.8601 H   0  0  0  0  0  0
   -2.5205   24.8528   13.6221 H   0  0  0  0  0  0
   -2.3732   26.4949   14.2501 H   0  0  0  0  0  0
    2.8974   27.8743    5.3856 H   0  0  0  0  0  0
    3.6576   29.4511    4.9760 H   0  0  0  0  0  0
    4.4120   27.4691    3.6302 H   0  0  0  0  0  0
    5.6584   28.3803    4.4135 H   0  0  0  0  0  0
    4.4855   25.7491    5.4701 H   0  0  0  0  0  0
    6.6153   27.4279    6.4494 H   0  0  0  0  0  0
    5.2859   27.5089    8.4968 H   0  0  0  0  0  0
    4.0708   26.6011    7.6023 H   0  0  0  0  0  0
    5.9229   25.3847    3.4817 H   0  0  0  0  0  0
    7.2221   26.3153    4.2240 H   0  0  0  0  0  0
    6.7143   24.7831    4.9320 H   0  0  0  0  0  0
  1  5  2  0  0  0
  1  2  1  0  0  0
  1 27  1  0  0  0
  2  3  2  0  0  0
  3  6  1  0  0  0
  3  4  1  0  0  0
  4  5  1  0  0  0
  5 17  1  0  0  0
  6  7  1  0  0  0
  6 28  1  0  0  0
  6 29  1  0  0  0
  7  8  1  0  0  0
  8  9  2  0  0  0
  8 12  1  0  0  0
  9 10  1  0  0  0
  9 30  1  0  0  0
 10 11  2  0  0  0
 11 13  1  0  0  0
 11 12  1  0  0  0
 13 14  1  0  0  0
 13 31  1  0  0  0
 14 15  1  0  0  0
 14 16  2  0  0  0
 15 21  1  0  0  0
 15 25  1  0  0  0
 15 32  1  0  0  0
 17 18  1  0  0  0
 17 19  1  0  0  0
 17 20  1  0  0  0
 18 33  1  0  0  0
 18 34  1  0  0  0
 18 35  1  0  0  0
 19 36  1  0  0  0
 19 37  1  0  0  0
 19 38  1  0  0  0
 20 39  1  0  0  0
 20 40  1  0  0  0
 20 41  1  0  0  0
 21 22  1  0  0  0
 21 42  1  0  0  0
 21 43  1  0  0  0
 22 23  1  0  0  0
 22 44  1  0  0  0
 22 45  1  0  0  0
 23 24  1  0  0  0
 23 26  1  0  0  0
 23 46  1  0  0  0
 24 25  1  0  0  0
 24 47  1  0  0  0
 25 48  1  0  0  0
 25 49  1  0  0  0
 26 50  1  0  0  0
 26 51  1  0  0  0
 26 52  1  0  0  0
M  END
> <s_m_entry_id>
32732

> <s_m_entry_name>
dock_pv.133

> <s_m_Source_Path>
/home/csk/Desktop/cluster/DUD-E-result/cdk2

> <s_m_Source_File>
dock_pv.maegz

> <i_m_Source_File_Index>
133

> <chembl_id>
CHEMBL454645

> <chembl_pref_name>
None

> <i_lp_mmshare_version>
53161

> <i_f3d_flags>
0

> <r_lp_tautomer_probability>
0.999000488399163

> <s_lp_Force_Field>
OPLS_2005

> <r_lp_Energy>
16.948241

> <b_lp_Chiralities_Consistent>
1

> <s_lp_Variant>
CHEMBL301_lig825-1

> <s_i_glide_gridfile>
glide-grid_1h00

> <i_i_glide_lignum>
1167

> <i_i_glide_rotatable_bonds>
7

> <r_i_docking_score>
-7.98404924479436

> <r_i_glide_ligand_efficiency>
-0.307078817107475

> <r_i_glide_ligand_efficiency_sa>
-0.909719787384097

> <r_i_glide_ligand_efficiency_ln>
-1.87502776733759

> <r_i_glide_gscore>
-7.98404924479436

> <r_i_glide_lipo>
-2.92168925005185

> <r_i_glide_hbond>
-0.550206951082695

> <r_i_glide_metal>
0

> <r_i_glide_rewards>
-2.1928213072096

> <r_i_glide_evdw>
-43.4198036193848

> <r_i_glide_ecoul>
-6.01122093200684

> <r_i_glide_erotb>
0.753341584320047

> <r_i_glide_esite>
0

> <r_i_glide_emodel>
-69.5543692207794

> <r_i_glide_energy>
-49.4310245513916

> <r_i_glide_einternal>
4.05245971679688

> <i_i_glide_confnum>
55

> <i_i_glide_posenum>
106

> <r_i_glide_eff_state_penalty>
0

> <s_user_duplicate_titles>
CHEMBL301_lig825,453192

> <s_m_subgroup_title>
dock_pv

> <s_m_subgroupid>
dock_pv

> <b_m_subgroup_collapsed>
1

$$$$
CHEMBL301_lig1380
                    3D
 Schrodinger Suite 2021-1.
 43 44  0  0  1  0            999 V2000
   -1.9387   26.9882   12.5418 C   0  0  0  0  0  0
   -0.7364   27.9466   12.6269 C   0  0  2  0  0  0
   -1.1420   29.0782   13.3700 O   0  0  0  0  0  0
   -0.1426   28.3845   11.2608 C   0  0  1  0  0  0
    0.5240   27.2040   10.5274 C   0  0  0  0  0  0
   -1.3144   29.3060   10.2074 S   0  0  0  0  0  0
   -0.3931   30.3836    9.1486 C   0  0  0  0  0  0
    0.6719   29.8597    8.4832 N   0  0  0  0  0  0
    1.3484   30.7022    7.6537 C   0  0  0  0  0  0
    2.4579   30.2467    6.9371 N   0  0  0  0  0  0
    3.2745   29.1183    7.0763 C   0  0  0  0  0  0
    3.9327   28.6520    5.9375 C   0  0  0  0  0  0
    4.8579   27.6183    6.0335 C   0  0  0  0  0  0
    5.1369   27.0563    7.2791 C   0  0  0  0  0  0
    4.4571   27.5032    8.4127 C   0  0  0  0  0  0
    3.5335   28.5380    8.3166 C   0  0  0  0  0  0
    6.3754   25.7726    7.4553 S   0  0  2  0  0  0
    5.5299   24.5025    7.3754 N   0  0  0  0  0  0
    7.2583   26.1125    8.5757 O   0  0  0  0  0  0
    7.3682   25.6866    5.8614 C   0  0  0  0  0  0
    1.0487   32.0094    7.4437 N   0  0  0  0  0  0
    0.0236   32.5193    8.1758 C   0  0  0  0  0  0
   -0.7496   31.7363    9.0305 C   0  0  0  0  0  0
   -2.1972   32.5280    9.9894 Br  0  0  0  0  0  0
   -1.6705   26.0533   12.0507 H   0  0  0  0  0  0
   -2.7658   27.4259   11.9813 H   0  0  0  0  0  0
   -2.3148   26.7373   13.5343 H   0  0  0  0  0  0
    0.0527   27.4670   13.2101 H   0  0  0  0  0  0
   -2.1093   29.1179   13.3760 H   0  0  0  0  0  0
    0.6579   29.0923   11.4831 H   0  0  0  0  0  0
    1.1955   26.6529   11.1882 H   0  0  0  0  0  0
   -0.2153   26.5032   10.1410 H   0  0  0  0  0  0
    1.1224   27.5402    9.6834 H   0  0  0  0  0  0
    2.9218   30.9658    6.3946 H   0  0  0  0  0  0
    3.7566   29.1124    4.9761 H   0  0  0  0  0  0
    5.3703   27.2906    5.1423 H   0  0  0  0  0  0
    4.6478   27.0633    9.3760 H   0  0  0  0  0  0
    3.0536   28.9050    9.2110 H   0  0  0  0  0  0
    6.0908   23.6760    7.2390 H   0  0  0  0  0  0
    6.7088   25.4326    5.0335 H   0  0  0  0  0  0
    7.8415   26.6520    5.6909 H   0  0  0  0  0  0
    8.1358   24.9223    5.9706 H   0  0  0  0  0  0
   -0.1946   33.5680    8.0349 H   0  0  0  0  0  0
  1  2  1  0  0  0
  1 25  1  0  0  0
  1 26  1  0  0  0
  1 27  1  0  0  0
  2  3  1  0  0  0
  2  4  1  0  0  0
  2 28  1  0  0  0
  3 29  1  0  0  0
  4  5  1  0  0  0
  4  6  1  0  0  0
  4 30  1  0  0  0
  5 31  1  0  0  0
  5 32  1  0  0  0
  5 33  1  0  0  0
  6  7  1  0  0  0
  7  8  2  0  0  0
  7 23  1  0  0  0
  8  9  1  0  0  0
  9 10  1  0  0  0
  9 21  2  0  0  0
 10 11  1  0  0  0
 10 34  1  0  0  0
 11 12  2  0  0  0
 11 16  1  0  0  0
 12 13  1  0  0  0
 12 35  1  0  0  0
 13 14  2  0  0  0
 13 36  1  0  0  0
 14 15  1  0  0  0
 14 17  1  0  0  0
 15 16  2  0  0  0
 15 37  1  0  0  0
 16 38  1  0  0  0
 17 18  2  0  0  0
 17 19  2  0  0  0
 17 20  1  0  0  0
 18 39  1  0  0  0
 20 40  1  0  0  0
 20 41  1  0  0  0
 20 42  1  0  0  0
 21 22  1  0  0  0
 22 23  2  0  0  0
 22 43  1  0  0  0
 23 24  1  0  0  0
M  END
> <s_m_entry_id>
32733

> <s_m_entry_name>
dock_pv.134

> <s_m_Source_Path>
/home/csk/Desktop/cluster/DUD-E-result/cdk2

> <s_m_Source_File>
dock_pv.maegz

> <i_m_Source_File_Index>
134

> <chembl_id>
CHEMBL3648102

> <chembl_pref_name>
None

> <i_lp_mmshare_version>
53161

> <i_f3d_flags>
0

> <r_lp_tautomer_probability>
0.999999987636

> <s_lp_Force_Field>
OPLS_2005

> <r_lp_Energy>
4.39918

> <b_lp_Chiralities_Consistent>
1

> <s_lp_Variant>
CHEMBL301_lig1380-3

> <s_i_glide_gridfile>
glide-grid_1h00

> <i_i_glide_lignum>
1854

> <i_i_glide_rotatable_bonds>
7

> <r_i_docking_score>
-7.98321618283267

> <r_i_glide_ligand_efficiency>
-0.332634007618028

> <r_i_glide_ligand_efficiency_sa>
-0.959482508097035

> <r_i_glide_ligand_efficiency_ln>
-1.91074995847237

> <r_i_glide_gscore>
-7.98321618283267

> <r_i_glide_lipo>
-2.78229201565007

> <r_i_glide_hbond>
-0.462970179673703

> <r_i_glide_metal>
0

> <r_i_glide_rewards>
-1.90038813436374

> <r_i_glide_evdw>
-39.5656852722168

> <r_i_glide_ecoul>
-9.29135227203369

> <r_i_glide_erotb>
0.534421251270742

> <r_i_glide_esite>
0

> <r_i_glide_emodel>
-69.3573404821114

> <r_i_glide_energy>
-48.8570375442505

> <r_i_glide_einternal>
7.34984111785889

> <i_i_glide_confnum>
77

> <i_i_glide_posenum>
102

> <r_i_glide_eff_state_penalty>
0

> <s_user_duplicate_titles>
CHEMBL301_lig1380

> <s_m_subgroup_title>
dock_pv

> <s_m_subgroupid>
dock_pv

> <b_m_subgroup_collapsed>
1

$$$$
CHEMBL301_lig625
                    3D
 Schrodinger Suite 2021-1.
 29 31  0  0  1  0            999 V2000
    0.3868   27.3629   10.9759 C   0  0  0  0  0  0
   -0.6411   28.1779   11.2496 O   0  0  0  0  0  0
    0.0087   29.8440    9.5367 C   0  0  0  0  0  0
   -0.8628   29.3243   10.5229 C   0  0  0  0  0  0
   -2.0539   29.9482   10.8626 C   0  0  0  0  0  0
   -2.4375   31.1051   10.2104 C   0  0  0  0  0  0
   -1.6392   31.6301    9.2115 C   0  0  0  0  0  0
   -0.4239   31.0268    8.8692 C   0  0  0  0  0  0
    1.4464   27.8265   10.0167 C   0  0  0  0  0  0
    1.2883   29.0520    9.3182 C   0  0  0  0  0  0
    2.3377   29.4520    8.4617 C   0  0  0  0  0  0
    3.4759   28.6745    8.2720 C   0  0  0  0  0  0
    3.6114   27.4875    8.9600 C   0  0  0  0  0  0
    2.6123   27.0623    9.8211 C   0  0  0  0  0  0
    2.8580   25.8885   10.4724 O   0  0  0  0  0  0
    4.4732   29.0520    7.4126 O   0  0  0  0  0  0
    0.3718   26.2938   11.5862 O   0  0  0  0  0  0
   -3.5857   31.7420   10.5760 O   0  0  0  0  0  0
    0.3459   31.7406    7.7764 C   0  0  0  0  0  0
   -2.6807   29.5291   11.6384 H   0  0  0  0  0  0
   -1.9669   32.5353    8.7201 H   0  0  0  0  0  0
    2.3266   30.3686    7.9124 H   0  0  0  0  0  0
    4.5027   26.8931    8.8198 H   0  0  0  0  0  0
    3.8230   25.8207   10.5760 H   0  0  0  0  0  0
    4.3755   29.9286    7.0186 H   0  0  0  0  0  0
   -3.8801   31.4520   11.4655 H   0  0  0  0  0  0
    0.5683   31.0580    6.9595 H   0  0  0  0  0  0
    1.2580   32.1616    8.1760 H   0  0  0  0  0  0
   -0.2002   32.5927    7.3760 H   0  0  0  0  0  0
  1  9  1  0  0  0
  1  2  1  0  0  0
  1 17  2  0  0  0
  2  4  1  0  0  0
  3 10  1  0  0  0
  3  4  1  0  0  0
  3  8  2  0  0  0
  4  5  2  0  0  0
  5  6  1  0  0  0
  5 20  1  0  0  0
  6  7  2  0  0  0
  6 18  1  0  0  0
  7  8  1  0  0  0
  7 21  1  0  0  0
  8 19  1  0  0  0
  9 10  2  0  0  0
  9 14  1  0  0  0
 10 11  1  0  0  0
 11 12  2  0  0  0
 11 22  1  0  0  0
 12 13  1  0  0  0
 12 16  1  0  0  0
 13 14  2  0  0  0
 13 23  1  0  0  0
 14 15  1  0  0  0
 15 24  1  0  0  0
 16 25  1  0  0  0
 18 26  1  0  0  0
 19 27  1  0  0  0
 19 28  1  0  0  0
 19 29  1  0  0  0
M  END
> <s_m_entry_id>
32734

> <s_m_entry_name>
dock_pv.135

> <s_m_Source_Path>
/home/csk/Desktop/cluster/DUD-E-result/cdk2

> <s_m_Source_File>
dock_pv.maegz

> <i_m_Source_File_Index>
135

> <chembl_id>
CHEMBL519982

> <chembl_pref_name>
ALTERNARIOL

> <i_lp_mmshare_version>
53161

> <i_f3d_flags>
0

> <r_lp_tautomer_probability>
1

> <s_lp_Force_Field>
OPLS_2005

> <r_lp_Energy>
31.059856

> <b_lp_Chiralities_Consistent>
1

> <s_lp_Variant>
CHEMBL301_lig625-1

> <s_i_glide_gridfile>
glide-grid_1h00

> <i_i_glide_lignum>
866

> <i_i_glide_rotatable_bonds>
3

> <r_i_docking_score>
-7.98078509957984

> <r_i_glide_ligand_efficiency>
-0.420041321030518

> <r_i_glide_ligand_efficiency_sa>
-1.1208389524691

> <r_i_glide_ligand_efficiency_ln>
-2.0233004342905

> <r_i_glide_gscore>
-7.98078509957984

> <r_i_glide_lipo>
-2.48799378704263

> <r_i_glide_hbond>
-0.432

> <r_i_glide_metal>
0

> <r_i_glide_rewards>
-1.84572230466367

> <r_i_glide_evdw>
-25.0836849212646

> <r_i_glide_ecoul>
-13.0725650787354

> <r_i_glide_erotb>
0

> <r_i_glide_esite>
0

> <r_i_glide_emodel>
-56.2692661198892

> <r_i_glide_energy>
-38.15625

> <r_i_glide_einternal>
2.37872505187988

> <i_i_glide_confnum>
1

> <i_i_glide_posenum>
55

> <r_i_glide_eff_state_penalty>
0

> <s_user_duplicate_titles>
CHEMBL301_lig625

> <s_m_subgroup_title>
dock_pv

> <s_m_subgroupid>
dock_pv

> <b_m_subgroup_collapsed>
1

$$$$
CHEMBL301_lig8
                    3D
 Schrodinger Suite 2021-1.
 60 63  0  0  1  0            999 V2000
    1.7307   28.6467    9.5537 N   0  0  0  0  0  0
    2.7871   27.8382    9.3495 C   0  0  0  0  0  0
    3.6491   27.8379    8.3375 N   0  0  0  0  0  0
    3.4964   28.7535    7.3610 C   0  0  0  0  0  0
    1.6351   29.6045    8.5938 C   0  0  0  0  0  0
    2.4582   29.7109    7.4787 C   0  0  0  0  0  0
    2.0602   30.7388    6.7063 N   0  0  0  0  0  0
    1.0931   31.3080    7.3710 C   0  0  0  0  0  0
    0.7510   30.6491    8.4835 N   0  0  0  0  0  0
    4.3381   28.6536    6.2518 N   0  0  0  0  0  0
   -0.3409   31.0456    9.4476 C   0  0  2  0  0  0
   -0.2114   30.3664   10.6469 O   0  0  0  0  0  0
   -1.4430   30.1857   11.2653 C   0  0  1  0  0  0
   -2.4136   30.0798   10.1056 C   0  0  2  0  0  0
   -1.7636   30.8446    8.9475 C   0  0  1  0  0  0
   -3.7189   30.5514   10.3587 O   0  0  0  0  0  0
   -2.3332   32.1219    8.6574 O   0  0  0  0  0  0
   -1.2684   29.0880   12.3348 C   0  0  0  0  0  0
   -1.4309   27.7810   11.8253 O   0  0  0  0  0  0
   -2.6182   26.8216   12.3736 P   0  0  1  0  0  0
   -1.9510   25.3650   12.2160 O   0  0  0  0  0  0
   -2.6046   27.0475   13.9693 O   0  0  0  0  0  0
   -3.9689   27.0592   11.7728 O   0  0  0  0  0  0
   -0.6875   24.5519   12.9528 P   0  0  1  0  0  0
   -1.1120   22.9270   12.8910 O   0  0  0  0  0  0
    0.5882   24.7013   11.8354 O   0  0  0  0  0  0
   -0.3423   25.0491   14.3443 O   0  0  0  0  0  0
   -1.0449   21.5906   13.8053 P   0  0  1  0  0  0
    0.4414   20.9114   13.3707 N   0  0  0  0  0  0
   -1.2872   21.8416   15.2517 O   0  0  0  0  0  0
   -2.1642   20.6530   13.0928 O   0  0  0  0  0  0
    0.9478   20.6365   12.0741 C   0  0  0  0  0  0
    0.1056   20.3574   10.9937 C   0  0  0  0  0  0
    0.6362   20.1250    9.7366 C   0  0  0  0  0  0
    2.0262   20.2048    9.5140 C   0  0  0  0  0  0
    2.8572   20.4137   10.6116 C   0  0  0  0  0  0
    2.3341   20.6326   11.8812 C   0  0  0  0  0  0
    2.6191   20.0771    8.2600 N   0  0  0  0  0  0
    1.9779   20.1224    7.2057 N   0  3  0  0  0  0
    1.4938   20.1001    6.1731 N   0  5  0  0  0  0
    2.9739   27.0807   10.1024 H   0  0  0  0  0  0
    0.5463   32.2008    7.0769 H   0  0  0  0  0  0
    4.4573   29.5329    5.7490 H   0  0  0  0  0  0
    5.1336   28.0302    6.3586 H   0  0  0  0  0  0
   -0.2203   32.1114    9.6462 H   0  0  0  0  0  0
   -1.7074   31.0654   11.7898 H   0  0  0  0  0  0
   -2.4456   29.0455    9.8300 H   0  0  0  0  0  0
   -1.6876   30.2530    8.0487 H   0  0  0  0  0  0
   -3.8639   30.5984   11.3328 H   0  0  0  0  0  0
   -3.2610   32.0749    8.9174 H   0  0  0  0  0  0
   -0.2873   29.1545   12.7943 H   0  0  0  0  0  0
   -1.9378   29.2863   13.1454 H   0  0  0  0  0  0
   -3.1420   27.8734   14.2075 H   0  0  0  0  0  0
    0.4827   24.4249   10.9162 H   0  0  0  0  0  0
    1.1275   20.8342   14.1314 H   0  0  0  0  0  0
   -1.9435   19.6747   12.9693 H   0  0  0  0  0  0
   -0.9625   20.2765   11.1211 H   0  0  0  0  0  0
   -0.0366   19.8774    8.9254 H   0  0  0  0  0  0
    3.9300   20.4253   10.4715 H   0  0  0  0  0  0
    2.9956   20.8093   12.7111 H   0  0  0  0  0  0
  1  2  2  0  0  0
  1  5  1  0  0  0
  2  3  1  0  0  0
  2 41  1  0  0  0
  3  4  2  0  0  0
  4  6  1  0  0  0
  4 10  1  0  0  0
  5  9  1  0  0  0
  5  6  2  0  0  0
  6  7  1  0  0  0
  7  8  2  0  0  0
  8  9  1  0  0  0
  8 42  1  0  0  0
  9 11  1  0  0  0
 10 43  1  0  0  0
 10 44  1  0  0  0
 11 12  1  0  0  0
 11 15  1  0  0  0
 11 45  1  0  0  0
 12 13  1  0  0  0
 13 14  1  0  0  0
 13 18  1  0  0  0
 13 46  1  0  0  0
 14 15  1  0  0  0
 14 16  1  0  0  0
 14 47  1  0  0  0
 15 17  1  0  0  0
 15 48  1  0  0  0
 16 49  1  0  0  0
 17 50  1  0  0  0
 18 19  1  0  0  0
 18 51  1  0  0  0
 18 52  1  0  0  0
 19 20  1  0  0  0
 20 21  1  0  0  0
 20 22  1  0  0  0
 20 23  2  0  0  0
 21 24  1  0  0  0
 22 53  1  0  0  0
 24 25  1  0  0  0
 24 26  1  0  0  0
 24 27  2  0  0  0
 25 28  1  0  0  0
 26 54  1  0  0  0
 28 29  1  0  0  0
 28 30  2  0  0  0
 28 31  1  0  0  0
 29 32  1  0  0  0
 29 55  1  0  0  0
 31 56  1  0  0  0
 32 33  2  0  0  0
 32 37  1  0  0  0
 33 34  1  0  0  0
 33 57  1  0  0  0
 34 35  2  0  0  0
 34 58  1  0  0  0
 35 36  1  0  0  0
 35 38  1  0  0  0
 36 37  2  0  0  0
 36 59  1  0  0  0
 37 60  1  0  0  0
 38 39  2  0  0  0
 39 40  2  0  0  0
M  CHG  2  39   1  40  -1
M  END
> <s_m_entry_id>
32735

> <s_m_entry_name>
dock_pv.136

> <s_m_Source_Path>
/home/csk/Desktop/cluster/DUD-E-result/cdk2

> <s_m_Source_File>
dock_pv.maegz

> <i_m_Source_File_Index>
136

> <chembl_id>
CHEMBL558335

> <chembl_pref_name>
None

> <i_lp_mmshare_version>
53161

> <i_f3d_flags>
0

> <r_lp_tautomer_probability>
0.999997216410988

> <s_lp_Force_Field>
OPLS_2005

> <r_lp_Energy>
31.664302

> <b_lp_Chiralities_Consistent>
1

> <s_lp_Variant>
CHEMBL301_lig8-4

> <s_i_glide_gridfile>
glide-grid_1h00

> <i_i_glide_lignum>
19

> <i_i_glide_rotatable_bonds>
16

> <r_i_docking_score>
-7.97849835984368

> <r_i_glide_ligand_efficiency>
-0.199462458996092

> <r_i_glide_ligand_efficiency_sa>
-0.682152013457817

> <r_i_glide_ligand_efficiency_ln>
-1.70157890342937

> <r_i_glide_gscore>
-7.97849835984368

> <r_i_glide_lipo>
-0.844717731228586

> <r_i_glide_hbond>
-0.241192405615543

> <r_i_glide_metal>
0

> <r_i_glide_rewards>
-1.44263758466849

> <r_i_glide_evdw>
-34.5125198364258

> <r_i_glide_ecoul>
-27.5574798583984

> <r_i_glide_erotb>
0.463759683740915

> <r_i_glide_esite>
-0.18808433025069

> <r_i_glide_emodel>
-77.6394168004194

> <r_i_glide_energy>
-62.0699996948242

> <r_i_glide_einternal>
17.0546474456787

> <i_i_glide_confnum>
6

> <i_i_glide_posenum>
24

> <r_i_glide_eff_state_penalty>
0

> <s_user_duplicate_titles>
CHEMBL301_lig8

> <s_m_subgroup_title>
dock_pv

> <s_m_subgroupid>
dock_pv

> <b_m_subgroup_collapsed>
1

$$$$
CHEMBL301_lig578
                    3D
 Schrodinger Suite 2021-1.
 50 52  0  0  1  0            999 V2000
   -1.1420   28.3746   12.4370 C   0  0  0  0  0  0
   -1.5312   29.5667   12.0289 N   0  0  0  0  0  0
   -1.7872   29.3974   10.7550 C   0  0  0  0  0  0
   -1.5417   28.1433   10.2995 O   0  0  0  0  0  0
   -1.1289   27.4622   11.3961 C   0  0  0  0  0  0
   -0.7430   25.9985   11.2345 C   0  0  0  0  0  0
   -0.8419   25.2731   12.5951 C   0  0  0  0  0  0
    0.7081   25.9087   10.7167 C   0  0  0  0  0  0
   -1.6934   25.3199   10.2263 C   0  0  0  0  0  0
   -2.2770   30.4265    9.7648 C   0  0  0  0  0  0
   -1.0153   31.4949    8.9760 S   0  0  0  0  0  0
    0.4003   30.4805    8.6335 C   0  0  0  0  0  0
    0.9849   29.4577    9.3806 C   0  0  0  0  0  0
    2.1388   28.9880    8.9760 N   0  0  0  0  0  0
    2.5821   29.6187    7.9294 C   0  0  0  0  0  0
    1.5176   30.8598    7.3500 S   0  0  0  0  0  0
    3.8262   29.4519    7.3758 N   0  0  0  0  0  0
    4.5732   28.2347    7.0437 C   0  0  2  0  0  0
    4.2651   27.8591    5.5786 C   0  0  0  0  0  0
    4.8973   26.5123    5.1814 C   0  0  0  0  0  0
    4.5064   25.3828    6.1548 C   0  0  0  0  0  0
    4.8642   25.7200    7.6176 C   0  0  1  0  0  0
    4.3110   27.0879    8.0528 C   0  0  0  0  0  0
    4.4580   24.6914    8.5521 N   0  0  0  0  0  0
   -0.8698   28.1775   13.4589 H   0  0  0  0  0  0
   -0.5830   24.2171   12.5084 H   0  0  0  0  0  0
   -1.8523   25.3313   13.0031 H   0  0  0  0  0  0
   -0.1707   25.7135   13.3343 H   0  0  0  0  0  0
    0.8288   26.4448    9.7765 H   0  0  0  0  0  0
    1.4138   26.3533   11.4208 H   0  0  0  0  0  0
    1.0159   24.8764   10.5471 H   0  0  0  0  0  0
   -1.5685   25.7213    9.2194 H   0  0  0  0  0  0
   -1.5154   24.2514   10.1771 H   0  0  0  0  0  0
   -2.7395   25.4575   10.5024 H   0  0  0  0  0  0
   -2.8552   29.9495    8.9762 H   0  0  0  0  0  0
   -2.9816   31.0931   10.2637 H   0  0  0  0  0  0
    0.6424   29.0749   10.3221 H   0  0  0  0  0  0
    4.1570   30.2133    6.7853 H   0  0  0  0  0  0
    5.6278   28.5065    7.1176 H   0  0  0  0  0  0
    3.1907   27.8354    5.4021 H   0  0  0  0  0  0
    4.6519   28.6365    4.9173 H   0  0  0  0  0  0
    5.9835   26.6142    5.1584 H   0  0  0  0  0  0
    4.5988   26.2469    4.1659 H   0  0  0  0  0  0
    4.9983   24.4564    5.8554 H   0  0  0  0  0  0
    3.4344   25.2051    6.0643 H   0  0  0  0  0  0
    5.9518   25.8134    7.6390 H   0  0  0  0  0  0
    4.7181   27.3730    9.0230 H   0  0  0  0  0  0
    3.2429   26.9521    8.1759 H   0  0  0  0  0  0
    4.6653   25.0601    9.4815 H   0  0  0  0  0  0
    3.4534   24.5890    8.4986 H   0  0  0  0  0  0
  1  5  2  0  0  0
  1  2  1  0  0  0
  1 25  1  0  0  0
  2  3  2  0  0  0
  3  4  1  0  0  0
  3 10  1  0  0  0
  4  5  1  0  0  0
  5  6  1  0  0  0
  6  7  1  0  0  0
  6  8  1  0  0  0
  6  9  1  0  0  0
  7 26  1  0  0  0
  7 27  1  0  0  0
  7 28  1  0  0  0
  8 29  1  0  0  0
  8 30  1  0  0  0
  8 31  1  0  0  0
  9 32  1  0  0  0
  9 33  1  0  0  0
  9 34  1  0  0  0
 10 11  1  0  0  0
 10 35  1  0  0  0
 10 36  1  0  0  0
 11 12  1  0  0  0
 12 13  2  0  0  0
 12 16  1  0  0  0
 13 14  1  0  0  0
 13 37  1  0  0  0
 14 15  2  0  0  0
 15 16  1  0  0  0
 15 17  1  0  0  0
 17 18  1  0  0  0
 17 38  1  0  0  0
 18 19  1  0  0  0
 18 23  1  0  0  0
 18 39  1  0  0  0
 19 20  1  0  0  0
 19 40  1  0  0  0
 19 41  1  0  0  0
 20 21  1  0  0  0
 20 42  1  0  0  0
 20 43  1  0  0  0
 21 22  1  0  0  0
 21 44  1  0  0  0
 21 45  1  0  0  0
 22 23  1  0  0  0
 22 24  1  0  0  0
 22 46  1  0  0  0
 23 47  1  0  0  0
 23 48  1  0  0  0
 24 49  1  0  0  0
 24 50  1  0  0  0
M  END
> <s_m_entry_id>
32736

> <s_m_entry_name>
dock_pv.137

> <s_m_Source_Path>
/home/csk/Desktop/cluster/DUD-E-result/cdk2

> <s_m_Source_File>
dock_pv.maegz

> <i_m_Source_File_Index>
137

> <chembl_id>
CHEMBL505474

> <chembl_pref_name>
None

> <i_lp_mmshare_version>
53161

> <i_f3d_flags>
0

> <r_lp_tautomer_probability>
1

> <s_lp_Force_Field>
OPLS_2005

> <r_lp_Energy>
5.085634

> <b_lp_Chiralities_Consistent>
1

> <s_lp_Variant>
CHEMBL301_lig578-3

> <s_i_glide_gridfile>
glide-grid_1h00

> <i_i_glide_lignum>
811

> <i_i_glide_rotatable_bonds>
6

> <r_i_docking_score>
-7.97485326214449

> <r_i_glide_ligand_efficiency>
-0.332285552589354

> <r_i_glide_ligand_efficiency_sa>
-0.958477389867346

> <r_i_glide_ligand_efficiency_ln>
-1.90874832780226

> <r_i_glide_gscore>
-7.97485326214449

> <r_i_glide_lipo>
-3.43711255150077

> <r_i_glide_hbond>
-0.456

> <r_i_glide_metal>
0

> <r_i_glide_rewards>
-2.00157662121212

> <r_i_glide_evdw>
-33.3419418334961

> <r_i_glide_ecoul>
-7.52930068969727

> <r_i_glide_erotb>
0.716328105697801

> <r_i_glide_esite>
0

> <r_i_glide_emodel>
-54.9351193046677

> <r_i_glide_energy>
-40.8712425231934

> <r_i_glide_einternal>
9.47962760925293

> <i_i_glide_confnum>
42

> <i_i_glide_posenum>
252

> <r_i_glide_eff_state_penalty>
0

> <s_user_duplicate_titles>
CHEMBL301_lig578,494699

> <s_m_subgroup_title>
dock_pv

> <s_m_subgroupid>
dock_pv

> <b_m_subgroup_collapsed>
1

$$$$
CHEMBL301_lig1082
                    3D
 Schrodinger Suite 2021-1.
 48 51  0  0  1  0            999 V2000
   -0.8586   31.8697    9.0746 C   0  0  0  0  0  0
   -0.2288   32.7362    8.1761 C   0  0  0  0  0  0
    0.8566   32.4271    7.4164 N   0  0  0  0  0  0
   -0.3420   30.5781    9.2836 C   0  0  0  0  0  0
   -1.0141   29.7166   10.1673 N   0  0  0  0  0  0
   -0.8924   28.2666   10.1028 C   0  0  0  0  0  0
    0.8469   30.2540    8.5760 C   0  0  0  0  0  0
    1.3298   31.2066    7.6435 C   0  0  0  0  0  0
    2.4562   30.6511    7.1080 N   0  0  0  0  0  0
    2.6454   29.4486    7.7342 C   0  0  0  0  0  0
    1.7311   29.2030    8.6498 N   0  0  0  0  0  0
    3.7281   28.5033    7.3341 C   0  0  0  0  0  0
    4.3314   27.6567    8.2654 C   0  0  0  0  0  0
    5.2922   26.7378    7.8500 C   0  0  0  0  0  0
    5.6585   26.6390    6.5110 C   0  0  0  0  0  0
    5.0382   27.4750    5.5734 C   0  0  0  0  0  0
    4.0933   28.4092    5.9864 C   0  0  0  0  0  0
    6.6277   25.7043    6.2054 O   0  0  0  0  0  0
    7.0942   25.6053    4.8633 C   0  0  0  0  0  0
   -2.3802   32.5083   10.0326 Br  0  0  0  0  0  0
   -0.0453   27.6379   11.2348 C   0  0  0  0  0  0
   -0.6647   27.7899   12.6391 C   0  0  0  0  0  0
   -2.0141   27.0415   12.7578 C   0  0  0  0  0  0
   -1.9397   25.6355   12.3352 N   0  0  2  0  0  0
   -1.1789   25.3539   11.1110 C   0  0  0  0  0  0
    0.1600   26.1245   11.0420 C   0  0  0  0  0  0
   -0.6214   33.7333    8.0327 H   0  0  0  0  0  0
   -1.6189   30.1217   10.8694 H   0  0  0  0  0  0
   -0.5320   27.9434    9.1258 H   0  0  0  0  0  0
   -1.9054   27.8747   10.1558 H   0  0  0  0  0  0
    3.1169   31.0363    6.4399 H   0  0  0  0  0  0
    4.0558   27.7011    9.3102 H   0  0  0  0  0  0
    5.7581   26.0895    8.5762 H   0  0  0  0  0  0
    5.2953   27.4298    4.5266 H   0  0  0  0  0  0
    3.6323   29.0465    5.2471 H   0  0  0  0  0  0
    7.8719   24.8440    4.8069 H   0  0  0  0  0  0
    6.2942   25.3107    4.1822 H   0  0  0  0  0  0
    7.5291   26.5449    4.5199 H   0  0  0  0  0  0
    0.9400   28.1087   11.2429 H   0  0  0  0  0  0
   -0.8547   28.8438   12.8446 H   0  0  0  0  0  0
    0.0196   27.4587   13.4214 H   0  0  0  0  0  0
   -2.7893   27.5511   12.1847 H   0  0  0  0  0  0
   -2.3411   27.0532   13.7981 H   0  0  0  0  0  0
   -2.8686   25.2311   12.2693 H   0  0  0  0  0  0
   -1.8036   25.5832   10.2458 H   0  0  0  0  0  0
   -0.9817   24.2816   11.0793 H   0  0  0  0  0  0
    0.8685   25.7141   11.7642 H   0  0  0  0  0  0
    0.6015   25.9413   10.0615 H   0  0  0  0  0  0
  1  2  2  0  0  0
  1  4  1  0  0  0
  1 20  1  0  0  0
  2  3  1  0  0  0
  2 27  1  0  0  0
  3  8  2  0  0  0
  4  7  2  0  0  0
  4  5  1  0  0  0
  5  6  1  0  0  0
  5 28  1  0  0  0
  6 21  1  0  0  0
  6 29  1  0  0  0
  6 30  1  0  0  0
  7  8  1  0  0  0
  7 11  1  0  0  0
  8  9  1  0  0  0
  9 10  1  0  0  0
  9 31  1  0  0  0
 10 11  2  0  0  0
 10 12  1  0  0  0
 12 13  2  0  0  0
 12 17  1  0  0  0
 13 14  1  0  0  0
 13 32  1  0  0  0
 14 15  2  0  0  0
 14 33  1  0  0  0
 15 16  1  0  0  0
 15 18  1  0  0  0
 16 17  2  0  0  0
 16 34  1  0  0  0
 17 35  1  0  0  0
 18 19  1  0  0  0
 19 36  1  0  0  0
 19 37  1  0  0  0
 19 38  1  0  0  0
 21 22  1  0  0  0
 21 26  1  0  0  0
 21 39  1  0  0  0
 22 23  1  0  0  0
 22 40  1  0  0  0
 22 41  1  0  0  0
 23 24  1  0  0  0
 23 42  1  0  0  0
 23 43  1  0  0  0
 24 25  1  0  0  0
 24 44  1  0  0  0
 25 26  1  0  0  0
 25 45  1  0  0  0
 25 46  1  0  0  0
 26 47  1  0  0  0
 26 48  1  0  0  0
M  END
> <s_m_entry_id>
32737

> <s_m_entry_name>
dock_pv.138

> <s_m_Source_Path>
/home/csk/Desktop/cluster/DUD-E-result/cdk2

> <s_m_Source_File>
dock_pv.maegz

> <i_m_Source_File_Index>
138

> <chembl_id>
CHEMBL2011926

> <chembl_pref_name>
None

> <i_lp_mmshare_version>
53161

> <i_f3d_flags>
0

> <r_lp_tautomer_probability>
1

> <s_lp_Force_Field>
OPLS_2005

> <r_lp_Energy>
29.167378

> <b_lp_Chiralities_Consistent>
1

> <s_lp_Variant>
CHEMBL301_lig1082-1

> <s_i_glide_gridfile>
glide-grid_1h00

> <i_i_glide_lignum>
1484

> <i_i_glide_rotatable_bonds>
5

> <r_i_docking_score>
-7.9700700526485

> <r_i_glide_ligand_efficiency>
-0.306541155871096

> <r_i_glide_ligand_efficiency_sa>
-0.908126968086918

> <r_i_glide_ligand_efficiency_ln>
-1.87174479993161

> <r_i_glide_gscore>
-7.9700700526485

> <r_i_glide_lipo>
-2.83514162206283

> <r_i_glide_hbond>
-0.583165673309584

> <r_i_glide_metal>
0

> <r_i_glide_rewards>
-2.16629290363553

> <r_i_glide_evdw>
-34.0171051025391

> <r_i_glide_ecoul>
-7.60356998443604

> <r_i_glide_erotb>
0.455920899151807

> <r_i_glide_esite>
0

> <r_i_glide_emodel>
-58.5492131488549

> <r_i_glide_energy>
-41.6206750869751

> <r_i_glide_einternal>
4.74873971939087

> <i_i_glide_confnum>
104

> <i_i_glide_posenum>
265

> <r_i_glide_eff_state_penalty>
0

> <s_user_duplicate_titles>
CHEMBL301_lig1082

> <s_m_subgroup_title>
dock_pv

> <s_m_subgroupid>
dock_pv

> <b_m_subgroup_collapsed>
1

$$$$
CHEMBL301_lig208
                    3D
 Schrodinger Suite 2021-1.
 36 38  0  0  1  0            999 V2000
   -1.7837   29.9011   10.4648 C   0  0  0  0  0  0
   -2.3642   31.1404   10.1761 C   0  0  0  0  0  0
   -1.7489   32.0111    9.2764 C   0  0  0  0  0  0
   -0.5864   29.5200    9.8535 C   0  0  0  0  0  0
    0.0240   30.3870    8.9461 C   0  0  0  0  0  0
   -0.5581   31.6118    8.6739 C   0  0  0  0  0  0
    0.2267   32.2873    7.7764 N   0  0  0  0  0  0
    1.2581   31.5412    7.3714 C   0  0  0  0  0  0
    1.2499   30.3133    8.1762 C   0  0  0  0  0  0
    2.0580   31.8520    6.4969 O   0  0  0  0  0  0
    2.1449   29.3991    8.2063 N   0  0  0  0  0  0
    3.2577   29.4520    7.3496 N   0  0  0  0  0  0
    4.1216   28.3873    7.1051 C   0  0  0  0  0  0
    4.7044   27.6844    8.1583 C   0  0  0  0  0  0
    5.6578   26.7087    7.8901 C   0  0  0  0  0  0
    6.0046   26.4157    6.5742 C   0  0  0  0  0  0
    5.3567   27.0519    5.5152 C   0  0  0  0  0  0
    4.4385   28.0624    5.7853 C   0  0  0  0  0  0
    7.3501   25.2842    6.2707 S   0  0  0  0  0  0
    8.1259   25.8518    4.8165 N   0  0  0  0  0  0
    8.3081   25.4521    7.3690 O   0  0  0  0  0  0
    6.7477   23.9815    5.9748 O   0  0  0  0  0  0
   -2.3984   29.0520   11.3760 N   0  0  0  0  0  0
   -3.2866   31.4351   10.6562 H   0  0  0  0  0  0
   -2.1972   32.9706    9.0646 H   0  0  0  0  0  0
   -0.1388   28.5646   10.0857 H   0  0  0  0  0  0
    0.0385   33.2113    7.4113 H   0  0  0  0  0  0
    3.2077   30.2081    6.6698 H   0  0  0  0  0  0
    4.4593   27.9262    9.1824 H   0  0  0  0  0  0
    6.1540   26.2058    8.7066 H   0  0  0  0  0  0
    5.6209   26.8253    4.4921 H   0  0  0  0  0  0
    3.9859   28.6035    4.9677 H   0  0  0  0  0  0
    8.9217   26.4725    4.9806 H   0  0  0  0  0  0
    8.2935   25.1306    4.1109 H   0  0  0  0  0  0
   -3.0405   29.5154   12.0197 H   0  0  0  0  0  0
   -1.8410   28.2925   11.7363 H   0  0  0  0  0  0
  1  2  2  0  0  0
  1  4  1  0  0  0
  1 23  1  0  0  0
  2  3  1  0  0  0
  2 24  1  0  0  0
  3  6  2  0  0  0
  3 25  1  0  0  0
  4  5  2  0  0  0
  4 26  1  0  0  0
  5  9  1  0  0  0
  5  6  1  0  0  0
  6  7  1  0  0  0
  7  8  1  0  0  0
  7 27  1  0  0  0
  8  9  1  0  0  0
  8 10  2  0  0  0
  9 11  2  0  0  0
 11 12  1  0  0  0
 12 13  1  0  0  0
 12 28  1  0  0  0
 13 14  2  0  0  0
 13 18  1  0  0  0
 14 15  1  0  0  0
 14 29  1  0  0  0
 15 16  2  0  0  0
 15 30  1  0  0  0
 16 17  1  0  0  0
 16 19  1  0  0  0
 17 18  2  0  0  0
 17 31  1  0  0  0
 18 32  1  0  0  0
 19 20  1  0  0  0
 19 21  2  0  0  0
 19 22  2  0  0  0
 20 33  1  0  0  0
 20 34  1  0  0  0
 23 35  1  0  0  0
 23 36  1  0  0  0
M  END
> <s_m_entry_id>
32738

> <s_m_entry_name>
dock_pv.139

> <s_m_Source_Path>
/home/csk/Desktop/cluster/DUD-E-result/cdk2

> <s_m_Source_File>
dock_pv.maegz

> <i_m_Source_File_Index>
139

> <chembl_id>
CHEMBL271842

> <chembl_pref_name>
None

> <i_lp_mmshare_version>
53161

> <i_f3d_flags>
0

> <r_lp_tautomer_probability>
1

> <s_lp_Force_Field>
OPLS_2005

> <r_lp_Energy>
45.141382

> <b_lp_Chiralities_Consistent>
1

> <s_lp_Variant>
CHEMBL301_lig208-1

> <s_i_glide_gridfile>
glide-grid_1h00

> <i_i_glide_lignum>
350

> <i_i_glide_rotatable_bonds>
3

> <r_i_docking_score>
-7.96818471294028

> <r_i_glide_ligand_efficiency>
-0.346442813606099

> <r_i_glide_ligand_efficiency_sa>
-0.985237276991521

> <r_i_glide_ligand_efficiency_ln>
-1.9267793150933

> <r_i_glide_gscore>
-7.96818471294028

> <r_i_glide_lipo>
-2.03654471183239

> <r_i_glide_hbond>
-0.636490121742377

> <r_i_glide_metal>
0

> <r_i_glide_rewards>
-2.3706943581249

> <r_i_glide_evdw>
-34.5851783752441

> <r_i_glide_ecoul>
-9.10256767272949

> <r_i_glide_erotb>
0.239980345437004

> <r_i_glide_esite>
-0.0697917970059855

> <r_i_glide_emodel>
-60.6519307085951

> <r_i_glide_energy>
-43.6877460479736

> <r_i_glide_einternal>
5.3336386680603

> <i_i_glide_confnum>
1

> <i_i_glide_posenum>
31

> <r_i_glide_eff_state_penalty>
0

> <s_user_duplicate_titles>
CHEMBL301_lig208,440915,136916

> <s_m_subgroup_title>
dock_pv

> <s_m_subgroupid>
dock_pv

> <b_m_subgroup_collapsed>
1

$$$$
CHEMBL301_lig1394
                    3D
 Schrodinger Suite 2021-1.
 57 59  0  0  1  0            999 V2000
   -1.5377   28.5351   13.3278 C   0  0  0  0  0  0
   -0.2288   28.0941   12.6768 C   0  0  0  0  0  0
   -0.4034   27.0789   11.5081 C   0  0  1  0  0  0
    0.7535   27.1595   10.6100 N   0  0  0  0  0  0
    0.9654   28.2609    9.7764 C   0  0  0  0  0  0
    2.1899   28.2938    9.1960 N   0  0  0  0  0  0
    2.4686   29.3300    8.3603 C   0  0  0  0  0  0
    3.7367   29.4518    7.7762 N   0  0  0  0  0  0
    4.7371   28.3895    7.8135 C   0  0  0  0  0  0
    4.6695   27.5108    6.5691 C   0  0  0  0  0  0
    4.8462   26.1266    6.6719 C   0  0  0  0  0  0
    4.7937   25.3338    5.5218 C   0  0  0  0  0  0
    4.5832   25.9581    4.2895 C   0  0  0  0  0  0
    4.4271   27.3000    4.1616 N   0  0  0  0  0  0
    4.4622   28.0513    5.2912 C   0  0  0  0  0  0
    1.5063   30.3242    8.1295 C   0  0  0  0  0  0
    1.5289   31.4695    7.3761 N   0  0  0  0  0  0
    0.4568   32.1055    7.7759 C   0  0  0  0  0  0
   -0.4025   31.3695    8.5719 N   0  0  0  0  0  0
   -1.6995   31.8368    9.0879 C   0  0  0  0  0  0
   -1.5719   32.1536   10.5749 C   0  0  0  0  0  0
   -2.8349   30.8286    8.8373 C   0  0  0  0  0  0
    0.2889   30.1987    8.8345 C   0  0  0  0  0  0
   -0.0317   29.1784    9.6303 N   0  0  0  0  0  0
   -0.7295   25.5978   11.9116 C   0  0  0  0  0  0
   -0.9860   24.7071   10.6796 C   0  0  0  0  0  0
    0.3600   24.9677   12.7982 C   0  0  0  0  0  0
   -1.9285   25.5304   12.6608 O   0  0  0  0  0  0
   -1.3996   29.4374   13.9223 H   0  0  0  0  0  0
   -2.2933   28.7671   12.5738 H   0  0  0  0  0  0
   -1.9420   27.7677   13.9876 H   0  0  0  0  0  0
    0.4578   27.7145   13.4304 H   0  0  0  0  0  0
    0.2511   29.0043   12.3135 H   0  0  0  0  0  0
   -1.2655   27.4173   10.9298 H   0  0  0  0  0  0
    1.5496   26.5645   10.7821 H   0  0  0  0  0  0
    3.9160   30.2477    7.1741 H   0  0  0  0  0  0
    5.7153   28.8626    7.8490 H   0  0  0  0  0  0
    4.6377   27.7861    8.7180 H   0  0  0  0  0  0
    5.0143   25.6671    7.6359 H   0  0  0  0  0  0
    4.9177   24.2631    5.5834 H   0  0  0  0  0  0
    4.5400   25.3804    3.3753 H   0  0  0  0  0  0
    4.3425   29.1157    5.1515 H   0  0  0  0  0  0
    0.1623   33.0935    7.4474 H   0  0  0  0  0  0
   -1.9483   32.7624    8.5659 H   0  0  0  0  0  0
   -2.5001   32.5617   10.9769 H   0  0  0  0  0  0
   -0.7858   32.8947   10.7301 H   0  0  0  0  0  0
   -1.3421   31.2431   11.1308 H   0  0  0  0  0  0
   -3.7812   31.2076    9.2250 H   0  0  0  0  0  0
   -2.9832   30.6520    7.7761 H   0  0  0  0  0  0
   -2.6524   29.8719    9.3290 H   0  0  0  0  0  0
   -0.1037   24.6520   10.0409 H   0  0  0  0  0  0
   -1.2357   23.6888   10.9760 H   0  0  0  0  0  0
   -1.8054   25.0844   10.0662 H   0  0  0  0  0  0
    1.3321   24.9731   12.3050 H   0  0  0  0  0  0
    0.4572   25.5091   13.7382 H   0  0  0  0  0  0
    0.1255   23.9337   13.0530 H   0  0  0  0  0  0
   -2.6655   25.7516   12.0851 H   0  0  0  0  0  0
  1  2  1  0  0  0
  1 29  1  0  0  0
  1 30  1  0  0  0
  1 31  1  0  0  0
  2  3  1  0  0  0
  2 32  1  0  0  0
  2 33  1  0  0  0
  3  4  1  0  0  0
  3 25  1  0  0  0
  3 34  1  0  0  0
  4  5  1  0  0  0
  4 35  1  0  0  0
  5  6  2  0  0  0
  5 24  1  0  0  0
  6  7  1  0  0  0
  7  8  1  0  0  0
  7 16  2  0  0  0
  8  9  1  0  0  0
  8 36  1  0  0  0
  9 10  1  0  0  0
  9 37  1  0  0  0
  9 38  1  0  0  0
 10 11  2  0  0  0
 10 15  1  0  0  0
 11 12  1  0  0  0
 11 39  1  0  0  0
 12 13  2  0  0  0
 12 40  1  0  0  0
 13 14  1  0  0  0
 13 41  1  0  0  0
 14 15  2  0  0  0
 15 42  1  0  0  0
 16 17  1  0  0  0
 16 23  1  0  0  0
 17 18  2  0  0  0
 18 19  1  0  0  0
 18 43  1  0  0  0
 19 20  1  0  0  0
 19 23  1  0  0  0
 20 21  1  0  0  0
 20 22  1  0  0  0
 20 44  1  0  0  0
 21 45  1  0  0  0
 21 46  1  0  0  0
 21 47  1  0  0  0
 22 48  1  0  0  0
 22 49  1  0  0  0
 22 50  1  0  0  0
 23 24  2  0  0  0
 25 26  1  0  0  0
 25 27  1  0  0  0
 25 28  1  0  0  0
 26 51  1  0  0  0
 26 52  1  0  0  0
 26 53  1  0  0  0
 27 54  1  0  0  0
 27 55  1  0  0  0
 27 56  1  0  0  0
 28 57  1  0  0  0
M  END
> <s_m_entry_id>
32739

> <s_m_entry_name>
dock_pv.140

> <s_m_Source_Path>
/home/csk/Desktop/cluster/DUD-E-result/cdk2

> <s_m_Source_File>
dock_pv.maegz

> <i_m_Source_File_Index>
140

> <chembl_id>
CHEMBL1922123

> <chembl_pref_name>
None

> <i_lp_mmshare_version>
53161

> <i_f3d_flags>
0

> <r_lp_tautomer_probability>
1

> <s_lp_Force_Field>
OPLS_2005

> <r_lp_Energy>
24.400736

> <b_lp_Chiralities_Consistent>
1

> <s_lp_Variant>
CHEMBL301_lig1394-1

> <s_i_glide_gridfile>
glide-grid_1h00

> <i_i_glide_lignum>
1889

> <i_i_glide_rotatable_bonds>
9

> <r_i_docking_score>
-7.96728890098681

> <r_i_glide_ligand_efficiency>
-0.2845460321781

> <r_i_glide_ligand_efficiency_sa>
-0.864049342343267

> <r_i_glide_ligand_efficiency_ln>
-1.83908420811477

> <r_i_glide_gscore>
-7.96728890098681

> <r_i_glide_lipo>
-2.57829631537425

> <r_i_glide_hbond>
-0.32

> <r_i_glide_metal>
0

> <r_i_glide_rewards>
-2.96949614021944

> <r_i_glide_evdw>
-42.0163040161133

> <r_i_glide_ecoul>
-5.27667570114136

> <r_i_glide_erotb>
0.792820110583749

> <r_i_glide_esite>
0

> <r_i_glide_emodel>
-68.3221536556502

> <r_i_glide_energy>
-47.2929797172546

> <r_i_glide_einternal>
6.52177381515503

> <i_i_glide_confnum>
71

> <i_i_glide_posenum>
17

> <r_i_glide_eff_state_penalty>
0

> <s_user_duplicate_titles>
CHEMBL301_lig1394

> <s_m_subgroup_title>
dock_pv

> <s_m_subgroupid>
dock_pv

> <b_m_subgroup_collapsed>
1

$$$$
CHEMBL301_lig320
                    3D
 Schrodinger Suite 2021-1.
 50 54  0  0  1  0            999 V2000
    1.2086   30.3786    8.1948 C   0  0  0  0  0  0
   -0.0100   30.4366    8.9750 C   0  0  0  0  0  0
    6.8366   24.9423    5.8149 S   0  0  0  0  0  0
    1.2249   31.5766    7.3761 C   0  0  0  0  0  0
    0.1726   32.3069    7.7797 N   0  0  0  0  0  0
   -0.6210   31.6371    8.6891 C   0  0  0  0  0  0
    2.1797   29.4483    8.1649 C   0  0  0  0  0  0
   -0.6140   29.5763    9.8994 C   0  0  0  0  0  0
   -2.3418   29.0241   11.3735 N   0  0  0  0  0  0
   12.0124   24.6518    3.3760 N   0  0  0  0  0  0
   -0.1077   28.0036   10.5104 S   0  0  0  0  0  0
   -1.5558   27.9924   11.4782 C   0  0  0  0  0  0
    5.6978   26.2171    6.3135 C   0  0  0  0  0  0
   -1.8479   29.9408   10.5011 C   0  0  0  0  0  0
   11.8704   23.5874    5.3308 N   0  0  0  0  0  0
   12.4035   23.5823    4.1305 C   0  0  0  0  0  0
   11.0939   24.6642    5.3780 C   0  0  0  0  0  0
    7.1214   24.0873    6.9759 O   0  0  0  0  0  0
    6.2986   24.3727    4.5761 O   0  0  0  0  0  0
    3.2985   29.4456    7.3763 N   0  0  0  0  0  0
    8.2862   25.8437    5.3872 N   0  0  2  0  0  0
    2.0367   31.9043    6.5229 O   0  0  0  0  0  0
   11.1654   25.3618    4.1749 C   0  0  0  0  0  0
   -1.8287   32.0186    9.2671 C   0  0  0  0  0  0
   -2.4625   31.1660   10.1760 C   0  0  0  0  0  0
    5.2580   27.1210    5.3474 C   0  0  0  0  0  0
    5.2963   26.3449    7.6440 C   0  0  0  0  0  0
    4.0747   28.3384    7.0500 C   0  0  0  0  0  0
   10.2855   24.9737    6.6301 C   0  0  0  0  0  0
    9.2697   26.1266    6.4538 C   0  0  0  0  0  0
    4.4641   28.1967    5.7212 C   0  0  0  0  0  0
    4.4716   27.4059    8.0115 C   0  0  0  0  0  0
   -0.0069   33.2331    7.4185 H   0  0  0  0  0  0
    2.1292   28.5814    8.8054 H   0  0  0  0  0  0
   12.2770   24.8793    2.4238 H   0  0  0  0  0  0
   -1.7769   27.1598   12.1299 H   0  0  0  0  0  0
   13.0770   22.8462    3.7169 H   0  0  0  0  0  0
    3.3981   30.2134    6.7172 H   0  0  0  0  0  0
    8.0089   26.7317    4.9543 H   0  0  0  0  0  0
   10.6917   26.2687    3.8269 H   0  0  0  0  0  0
   -2.2789   32.9682    9.0236 H   0  0  0  0  0  0
   -3.3933   31.4518   10.6471 H   0  0  0  0  0  0
    5.5717   27.0190    4.3163 H   0  0  0  0  0  0
    5.6322   25.6476    8.3984 H   0  0  0  0  0  0
   10.9618   25.2312    7.4449 H   0  0  0  0  0  0
    9.7516   24.0819    6.9576 H   0  0  0  0  0  0
    9.8169   27.0290    6.1762 H   0  0  0  0  0  0
    8.7381   26.3291    7.3807 H   0  0  0  0  0  0
    4.1633   28.9211    4.9773 H   0  0  0  0  0  0
    4.1825   27.5131    9.0460 H   0  0  0  0  0  0
  1  2  1  0  0  0
  1  4  1  0  0  0
  1  7  2  0  0  0
  2  6  2  0  0  0
  2  8  1  0  0  0
  3 13  1  0  0  0
  3 18  2  0  0  0
  3 19  2  0  0  0
  3 21  1  0  0  0
  4  5  1  0  0  0
  4 22  2  0  0  0
  5  6  1  0  0  0
  5 33  1  0  0  0
  6 24  1  0  0  0
  7 20  1  0  0  0
  7 34  1  0  0  0
  8 11  1  0  0  0
  8 14  2  0  0  0
  9 14  1  0  0  0
  9 12  2  0  0  0
 10 23  1  0  0  0
 10 16  1  0  0  0
 10 35  1  0  0  0
 11 12  1  0  0  0
 12 36  1  0  0  0
 13 27  2  0  0  0
 13 26  1  0  0  0
 14 25  1  0  0  0
 15 17  1  0  0  0
 15 16  2  0  0  0
 16 37  1  0  0  0
 17 29  1  0  0  0
 17 23  2  0  0  0
 20 28  1  0  0  0
 20 38  1  0  0  0
 21 30  1  0  0  0
 21 39  1  0  0  0
 23 40  1  0  0  0
 24 25  2  0  0  0
 24 41  1  0  0  0
 25 42  1  0  0  0
 26 31  2  0  0  0
 26 43  1  0  0  0
 27 32  1  0  0  0
 27 44  1  0  0  0
 28 31  1  0  0  0
 28 32  2  0  0  0
 29 30  1  0  0  0
 29 45  1  0  0  0
 29 46  1  0  0  0
 30 47  1  0  0  0
 30 48  1  0  0  0
 31 49  1  0  0  0
 32 50  1  0  0  0
M  END
> <s_m_entry_id>
32740

> <s_m_entry_name>
dock_pv.141

> <s_m_Source_Path>
/home/csk/Desktop/cluster/DUD-E-result/cdk2

> <s_m_Source_File>
dock_pv.maegz

> <i_m_Source_File_Index>
141

> <chembl_id>
CHEMBL1964251

> <chembl_pref_name>
None

> <i_lp_mmshare_version>
53161

> <i_f3d_flags>
0

> <r_lp_tautomer_probability>
0.24999999999971

> <s_lp_Force_Field>
OPLS_2005

> <r_lp_Energy>
37.797877

> <b_lp_Chiralities_Consistent>
1

> <s_lp_Variant>
CHEMBL301_lig320-1

> <s_i_glide_gridfile>
glide-grid_1h00

> <i_i_glide_lignum>
496

> <i_i_glide_rotatable_bonds>
7

> <r_i_docking_score>
-7.96103746659973

> <r_i_glide_ligand_efficiency>
-0.248782420831241

> <r_i_glide_ligand_efficiency_sa>
-0.789834952164963

> <r_i_glide_ligand_efficiency_ln>
-1.78269329845696

> <r_i_glide_gscore>
-7.96103746659973

> <r_i_glide_lipo>
-2.70490244399943

> <r_i_glide_hbond>
-0.789711312327415

> <r_i_glide_metal>
0

> <r_i_glide_rewards>
-1.06294554855467

> <r_i_glide_evdw>
-46.6499938964844

> <r_i_glide_ecoul>
-9.48268890380859

> <r_i_glide_erotb>
0.38931332854141

> <r_i_glide_esite>
-0.0378884598641211

> <r_i_glide_emodel>
-74.7082945574302

> <r_i_glide_energy>
-56.132682800293

> <r_i_glide_einternal>
11.7693300247192

> <i_i_glide_confnum>
15

> <i_i_glide_posenum>
291

> <r_i_glide_eff_state_penalty>
0

> <s_user_duplicate_titles>
CHEMBL301_lig320,CHEMBL301_lig320,226213

> <s_m_subgroup_title>
dock_pv

> <s_m_subgroupid>
dock_pv

> <b_m_subgroup_collapsed>
1

$$$$
CHEMBL301_lig1359
                    3D
 Schrodinger Suite 2021-1.
 54 56  0  0  1  0            999 V2000
   -1.4920   25.1559    9.9785 C   0  0  0  0  0  0
   -1.5372   26.4956   10.7347 C   0  0  0  0  0  0
   -0.2883   26.8642   11.5847 C   0  0  2  0  0  0
    0.8982   27.1408   10.7630 N   0  0  0  0  0  0
    1.0469   28.2436    9.9153 C   0  0  0  0  0  0
    2.2517   28.2740    9.2950 N   0  0  0  0  0  0
    2.4967   29.2796    8.4144 C   0  0  0  0  0  0
    3.7400   29.3927    7.7770 N   0  0  0  0  0  0
    4.7528   28.3425    7.8069 C   0  0  0  0  0  0
    4.6888   27.4748    6.5527 C   0  0  0  0  0  0
    4.8567   26.0878    6.6428 C   0  0  0  0  0  0
    4.8053   25.3084    5.4843 C   0  0  0  0  0  0
    4.6046   25.9472    4.2573 C   0  0  0  0  0  0
    4.4568   27.2924    4.1435 N   0  0  0  0  0  0
    4.4965   28.0316    5.2806 C   0  0  0  0  0  0
    1.5185   30.2521    8.1758 C   0  0  0  0  0  0
    1.5170   31.3668    7.3769 N   0  0  0  0  0  0
    0.4488   32.0071    7.7753 C   0  0  0  0  0  0
   -0.3979   31.2885    8.5962 N   0  0  0  0  0  0
   -1.6932   31.7809    9.0946 C   0  0  0  0  0  0
   -1.5743   32.1252   10.5752 C   0  0  0  0  0  0
   -2.8386   30.7915    8.8417 C   0  0  0  0  0  0
    0.3172   30.1410    8.9183 C   0  0  0  0  0  0
    0.0361   29.1520    9.7782 N   0  0  0  0  0  0
    0.0199   25.8732   12.7495 C   0  0  1  0  0  0
   -1.1521   25.6374   13.7166 C   0  0  0  0  0  0
    0.4597   24.6161   12.2703 O   0  0  0  0  0  0
   -2.3520   25.0551    9.3170 H   0  0  0  0  0  0
   -0.5931   25.0654    9.3708 H   0  0  0  0  0  0
   -1.5308   24.3109   10.6634 H   0  0  0  0  0  0
   -2.4293   26.5207   11.3617 H   0  0  0  0  0  0
   -1.6850   27.2835   10.0009 H   0  0  0  0  0  0
   -0.5369   27.8121   12.0683 H   0  0  0  0  0  0
    1.7453   26.6204   10.9316 H   0  0  0  0  0  0
    3.8861   30.1720    7.1447 H   0  0  0  0  0  0
    5.7274   28.8245    7.8453 H   0  0  0  0  0  0
    4.6612   27.7275    8.7043 H   0  0  0  0  0  0
    5.0134   25.6166    7.6030 H   0  0  0  0  0  0
    4.9219   24.2365    5.5348 H   0  0  0  0  0  0
    4.5601   25.3799    3.3368 H   0  0  0  0  0  0
    4.3885   29.1003    5.1505 H   0  0  0  0  0  0
    0.1432   32.9791    7.4152 H   0  0  0  0  0  0
   -1.9251   32.7038    8.5566 H   0  0  0  0  0  0
   -2.4969   32.5578   10.9633 H   0  0  0  0  0  0
   -0.7793   32.8550   10.7246 H   0  0  0  0  0  0
   -1.3667   31.2238   11.1519 H   0  0  0  0  0  0
   -3.7748   31.1686    9.2542 H   0  0  0  0  0  0
   -3.0056   30.6520    7.7765 H   0  0  0  0  0  0
   -2.6515   29.8270    9.3124 H   0  0  0  0  0  0
    0.8576   26.2653   13.3246 H   0  0  0  0  0  0
   -1.5140   26.5784   14.1295 H   0  0  0  0  0  0
   -1.9902   25.1477   13.2200 H   0  0  0  0  0  0
   -0.8513   25.0028   14.5503 H   0  0  0  0  0  0
    0.9621   24.7683   11.4651 H   0  0  0  0  0  0
  1  2  1  0  0  0
  1 28  1  0  0  0
  1 29  1  0  0  0
  1 30  1  0  0  0
  2  3  1  0  0  0
  2 31  1  0  0  0
  2 32  1  0  0  0
  3  4  1  0  0  0
  3 25  1  0  0  0
  3 33  1  0  0  0
  4  5  1  0  0  0
  4 34  1  0  0  0
  5  6  2  0  0  0
  5 24  1  0  0  0
  6  7  1  0  0  0
  7  8  1  0  0  0
  7 16  2  0  0  0
  8  9  1  0  0  0
  8 35  1  0  0  0
  9 10  1  0  0  0
  9 36  1  0  0  0
  9 37  1  0  0  0
 10 11  2  0  0  0
 10 15  1  0  0  0
 11 12  1  0  0  0
 11 38  1  0  0  0
 12 13  2  0  0  0
 12 39  1  0  0  0
 13 14  1  0  0  0
 13 40  1  0  0  0
 14 15  2  0  0  0
 15 41  1  0  0  0
 16 17  1  0  0  0
 16 23  1  0  0  0
 17 18  2  0  0  0
 18 19  1  0  0  0
 18 42  1  0  0  0
 19 20  1  0  0  0
 19 23  1  0  0  0
 20 21  1  0  0  0
 20 22  1  0  0  0
 20 43  1  0  0  0
 21 44  1  0  0  0
 21 45  1  0  0  0
 21 46  1  0  0  0
 22 47  1  0  0  0
 22 48  1  0  0  0
 22 49  1  0  0  0
 23 24  2  0  0  0
 25 26  1  0  0  0
 25 27  1  0  0  0
 25 50  1  0  0  0
 26 51  1  0  0  0
 26 52  1  0  0  0
 26 53  1  0  0  0
 27 54  1  0  0  0
M  END
> <s_m_entry_id>
32741

> <s_m_entry_name>
dock_pv.142

> <s_m_Source_Path>
/home/csk/Desktop/cluster/DUD-E-result/cdk2

> <s_m_Source_File>
dock_pv.maegz

> <i_m_Source_File_Index>
142

> <chembl_id>
CHEMBL1922219

> <chembl_pref_name>
None

> <i_lp_mmshare_version>
53161

> <i_f3d_flags>
0

> <r_lp_tautomer_probability>
1

> <s_lp_Force_Field>
OPLS_2005

> <r_lp_Energy>
18.673343

> <b_lp_Chiralities_Consistent>
1

> <s_lp_Variant>
CHEMBL301_lig1359-1

> <s_i_glide_gridfile>
glide-grid_1h00

> <i_i_glide_lignum>
1815

> <i_i_glide_rotatable_bonds>
9

> <r_i_docking_score>
-7.96025612285063

> <r_i_glide_ligand_efficiency>
-0.29482430084632

> <r_i_glide_ligand_efficiency_sa>
-0.884472901567267

> <r_i_glide_ligand_efficiency_ln>
-1.85301639032086

> <r_i_glide_gscore>
-7.96025612285063

> <r_i_glide_lipo>
-2.62113887097423

> <r_i_glide_hbond>
-0.32

> <r_i_glide_metal>
0

> <r_i_glide_rewards>
-3.08185472128933

> <r_i_glide_evdw>
-42.0628776550293

> <r_i_glide_ecoul>
-4.54416656494141

> <r_i_glide_erotb>
0.847506336905596

> <r_i_glide_esite>
0

> <r_i_glide_emodel>
-66.0842982264185

> <r_i_glide_energy>
-46.6070442199707

> <r_i_glide_einternal>
4.98327445983887

> <i_i_glide_confnum>
41

> <i_i_glide_posenum>
280

> <r_i_glide_eff_state_penalty>
0

> <s_user_duplicate_titles>
CHEMBL301_lig1359

> <s_m_subgroup_title>
dock_pv

> <s_m_subgroupid>
dock_pv

> <b_m_subgroup_collapsed>
1

$$$$
CHEMBL301_lig70
                    3D
 Schrodinger Suite 2021-1.
 46 48  0  0  1  0            999 V2000
    0.1937   29.5338    9.2622 C   0  0  0  0  0  0
   -0.7557   30.5292    9.0498 N   0  0  0  0  0  0
    1.3151   29.9257    8.4911 C   0  0  0  0  0  0
    0.1388   28.4279   10.0126 N   0  0  0  0  0  0
    1.0568   31.0617    7.7760 N   0  0  0  0  0  0
    2.4458   28.0195    9.3760 N   0  0  0  0  0  0
    2.4581   29.1174    8.5760 C   0  0  0  0  0  0
   -0.1376   31.4063    8.1760 C   0  0  0  0  0  0
    1.2921   27.7154   10.0342 C   0  0  0  0  0  0
    3.6047   29.4520    7.8395 N   0  0  0  0  0  0
   -2.1552   30.6475    9.5191 C   0  0  0  0  0  0
    1.2183   26.5243   10.7649 N   0  0  0  0  0  0
    4.8293   28.6593    7.8670 C   0  0  0  0  0  0
    4.7426   27.4896    6.8971 C   0  0  0  0  0  0
    1.7921   23.6370    9.7760 O   0  0  0  0  0  0
    2.4061   25.7052   10.9850 C   0  0  0  0  0  0
   -2.5058   32.1130    9.8612 C   0  0  0  0  0  0
   -2.4900   29.7292   10.7098 C   0  0  0  0  0  0
    2.7187   24.6958    9.8632 C   0  0  0  0  0  0
    4.8582   26.1830    7.3760 C   0  0  0  0  0  0
    4.5506   27.7216    5.5304 C   0  0  0  0  0  0
    4.4580   26.6471    4.6494 C   0  0  0  0  0  0
    4.7559   25.1085    6.4958 C   0  0  0  0  0  0
    4.5543   25.3457    5.1372 C   0  0  0  0  0  0
   -0.6649   32.2786    7.8201 H   0  0  0  0  0  0
    3.6027   30.3023    7.2900 H   0  0  0  0  0  0
   -2.7824   30.3369    8.6822 H   0  0  0  0  0  0
    0.3183   26.2149   11.0959 H   0  0  0  0  0  0
    5.6580   29.3025    7.5755 H   0  0  0  0  0  0
    5.0394   28.3109    8.8802 H   0  0  0  0  0  0
    1.6580   23.4521    8.8325 H   0  0  0  0  0  0
    3.2580   26.3536   11.1649 H   0  0  0  0  0  0
    2.2953   25.1815   11.9344 H   0  0  0  0  0  0
   -3.5075   32.1907   10.2867 H   0  0  0  0  0  0
   -2.4923   32.7552    8.9815 H   0  0  0  0  0  0
   -1.8115   32.5303   10.5909 H   0  0  0  0  0  0
   -3.5415   29.8317   10.9760 H   0  0  0  0  0  0
   -2.3419   28.6749   10.4838 H   0  0  0  0  0  0
   -1.8987   29.9747   11.5933 H   0  0  0  0  0  0
    2.5497   25.2248    8.9241 H   0  0  0  0  0  0
    3.7692   24.4236    9.7763 H   0  0  0  0  0  0
    5.0137   26.0034    8.4306 H   0  0  0  0  0  0
    4.4729   28.7326    5.1561 H   0  0  0  0  0  0
    4.3084   26.8181    3.5932 H   0  0  0  0  0  0
    4.8301   24.0961    6.8640 H   0  0  0  0  0  0
    4.4758   24.5142    4.4515 H   0  0  0  0  0  0
  1  2  1  0  0  0
  1  3  2  0  0  0
  1  4  1  0  0  0
  2  8  1  0  0  0
  2 11  1  0  0  0
  3  5  1  0  0  0
  3  7  1  0  0  0
  4  9  2  0  0  0
  5  8  2  0  0  0
  6  9  1  0  0  0
  6  7  2  0  0  0
  7 10  1  0  0  0
  8 25  1  0  0  0
  9 12  1  0  0  0
 10 13  1  0  0  0
 10 26  1  0  0  0
 11 17  1  0  0  0
 11 18  1  0  0  0
 11 27  1  0  0  0
 12 16  1  0  0  0
 12 28  1  0  0  0
 13 14  1  0  0  0
 13 29  1  0  0  0
 13 30  1  0  0  0
 14 20  1  0  0  0
 14 21  2  0  0  0
 15 19  1  0  0  0
 15 31  1  0  0  0
 16 19  1  0  0  0
 16 32  1  0  0  0
 16 33  1  0  0  0
 17 34  1  0  0  0
 17 35  1  0  0  0
 17 36  1  0  0  0
 18 37  1  0  0  0
 18 38  1  0  0  0
 18 39  1  0  0  0
 19 40  1  0  0  0
 19 41  1  0  0  0
 20 23  2  0  0  0
 20 42  1  0  0  0
 21 22  1  0  0  0
 21 43  1  0  0  0
 22 24  2  0  0  0
 22 44  1  0  0  0
 23 24  1  0  0  0
 23 45  1  0  0  0
 24 46  1  0  0  0
M  END
> <s_m_entry_id>
32742

> <s_m_entry_name>
dock_pv.143

> <s_m_Source_Path>
/home/csk/Desktop/cluster/DUD-E-result/cdk2

> <s_m_Source_File>
dock_pv.maegz

> <i_m_Source_File_Index>
143

> <chembl_id>
CHEMBL86066

> <chembl_pref_name>
None

> <i_lp_mmshare_version>
53161

> <i_f3d_flags>
0

> <r_lp_tautomer_probability>
1

> <s_lp_Force_Field>
OPLS_2005

> <r_lp_Energy>
13.433936

> <b_lp_Chiralities_Consistent>
1

> <s_lp_Variant>
CHEMBL301_lig70-1

> <s_i_glide_gridfile>
glide-grid_1h00

> <i_i_glide_lignum>
156

> <i_i_glide_rotatable_bonds>
8

> <r_i_docking_score>
-7.9601967695776

> <r_i_glide_ligand_efficiency>
-0.331674865399066

> <r_i_glide_ligand_efficiency_sa>
-0.956715863193644

> <r_i_glide_ligand_efficiency_ln>
-1.90524035658839

> <r_i_glide_gscore>
-7.9601967695776

> <r_i_glide_lipo>
-2.14788941804856

> <r_i_glide_hbond>
-0.567633347832682

> <r_i_glide_metal>
0

> <r_i_glide_rewards>
-3.2505433713061

> <r_i_glide_evdw>
-38.4881629943848

> <r_i_glide_ecoul>
-7.44966316223145

> <r_i_glide_erotb>
1.05623112751001

> <r_i_glide_esite>
-0.00850413584630642

> <r_i_glide_emodel>
-62.7293696193402

> <r_i_glide_energy>
-45.9378261566162

> <r_i_glide_einternal>
9.0771427154541

> <i_i_glide_confnum>
19

> <i_i_glide_posenum>
133

> <r_i_glide_eff_state_penalty>
0

> <s_user_duplicate_titles>
CHEMBL301_lig70

> <s_m_subgroup_title>
dock_pv

> <s_m_subgroupid>
dock_pv

> <b_m_subgroup_collapsed>
1

$$$$
CHEMBL301_lig43
                    3D
 Schrodinger Suite 2021-1.
 59 63  0  0  1  0            999 V2000
   -2.6992   31.6602    8.6671 F   0  0  0  0  0  0
   -2.3162   30.7485   10.5755 F   0  0  0  0  0  0
   -1.5899   32.7404   10.1761 F   0  0  0  0  0  0
    5.0212   22.6788    5.9759 O   0  0  0  0  0  0
    3.5915   20.5563    3.6639 O   0  0  0  0  0  0
    5.2752   24.8419    5.3856 N   0  0  0  0  0  0
    2.8579   29.8511    6.9443 N   0  0  0  0  0  0
    1.3231   29.4519    8.7310 N   0  0  0  0  0  0
    1.2459   31.4373    7.3763 N   0  0  0  0  0  0
   -0.3126   29.0178   10.3982 N   0  0  0  0  0  0
    4.1592   22.6523    2.9900 N   0  0  0  0  0  0
    5.2023   26.0397    4.5574 C   0  0  1  0  0  0
    6.1849   25.2753    6.4345 C   0  0  2  0  0  0
    4.8174   27.0058    5.6717 C   0  0  0  0  0  0
    5.3920   26.5120    6.8383 C   0  0  0  0  0  0
    6.7075   26.1739    4.2440 C   0  0  0  0  0  0
    7.3854   25.6887    5.5492 C   0  0  0  0  0  0
    4.0072   28.1386    5.7127 C   0  0  0  0  0  0
    4.7427   23.6077    5.2158 C   0  0  0  0  0  0
    5.1280   27.1202    8.0650 C   0  0  0  0  0  0
    3.7009   28.7307    6.9452 C   0  0  0  0  0  0
    4.2679   28.2212    8.1195 C   0  0  0  0  0  0
   -0.4840   31.0321    9.0260 C   0  0  0  0  0  0
    1.7849   30.2512    7.7386 C   0  0  0  0  0  0
    0.1809   29.8362    9.3690 C   0  0  0  0  0  0
    3.6589   23.3981    4.1432 C   0  0  0  0  0  0
   -1.7947   31.5377    9.6390 C   0  0  0  0  0  0
    0.1291   31.8178    8.0467 C   0  0  0  0  0  0
    0.1896   27.6711   10.6710 C   0  0  0  0  0  0
   -0.2465   27.0879   12.0239 C   0  0  0  0  0  0
   -0.5928   26.5260   10.0076 C   0  0  0  0  0  0
   -1.4170   26.4005   11.3010 C   0  0  0  0  0  0
    4.0778   21.3231    2.8320 C   0  0  0  0  0  0
    4.6101   20.7670    1.5172 C   0  0  0  0  0  0
    3.1635   30.5714    6.3013 H   0  0  0  0  0  0
   -1.1847   29.2898   10.8309 H   0  0  0  0  0  0
    4.4613   23.2273    2.2072 H   0  0  0  0  0  0
    4.5516   26.0105    3.6833 H   0  0  0  0  0  0
    6.3937   24.5447    7.2178 H   0  0  0  0  0  0
    6.9771   27.1939    3.9736 H   0  0  0  0  0  0
    6.9831   25.5336    3.4042 H   0  0  0  0  0  0
    7.9887   26.4682    6.0182 H   0  0  0  0  0  0
    8.0382   24.8364    5.3533 H   0  0  0  0  0  0
    3.5697   28.5255    4.8065 H   0  0  0  0  0  0
    5.5622   26.7421    8.9750 H   0  0  0  0  0  0
    4.0487   28.6765    9.0735 H   0  0  0  0  0  0
    3.2579   24.3437    3.7892 H   0  0  0  0  0  0
    2.8270   22.8658    4.6029 H   0  0  0  0  0  0
   -0.2935   32.7710    7.7578 H   0  0  0  0  0  0
    1.2747   27.6596   10.5433 H   0  0  0  0  0  0
    0.4832   26.3914   12.4420 H   0  0  0  0  0  0
   -0.5048   27.8144   12.7961 H   0  0  0  0  0  0
   -1.1422   26.7894    9.1020 H   0  0  0  0  0  0
    0.0259   25.6522    9.7941 H   0  0  0  0  0  0
   -1.6408   25.3823   11.6221 H   0  0  0  0  0  0
   -2.3361   26.9908   11.2994 H   0  0  0  0  0  0
    3.7838   20.4184    0.8983 H   0  0  0  0  0  0
    5.2765   19.9260    1.7093 H   0  0  0  0  0  0
    5.1651   21.5209    0.9560 H   0  0  0  0  0  0
  1 27  1  0  0  0
  2 27  1  0  0  0
  3 27  1  0  0  0
  4 19  2  0  0  0
  5 33  2  0  0  0
  6 12  1  0  0  0
  6 13  1  0  0  0
  6 19  1  0  0  0
  7 21  1  0  0  0
  7 24  1  0  0  0
  7 35  1  0  0  0
  8 24  1  0  0  0
  8 25  2  0  0  0
  9 24  2  0  0  0
  9 28  1  0  0  0
 10 25  1  0  0  0
 10 29  1  0  0  0
 10 36  1  0  0  0
 11 26  1  0  0  0
 11 33  1  0  0  0
 11 37  1  0  0  0
 12 14  1  0  0  0
 12 16  1  0  0  0
 12 38  1  0  0  0
 13 15  1  0  0  0
 13 17  1  0  0  0
 13 39  1  0  0  0
 14 15  1  0  0  0
 14 18  2  0  0  0
 15 20  2  0  0  0
 16 17  1  0  0  0
 16 40  1  0  0  0
 16 41  1  0  0  0
 17 42  1  0  0  0
 17 43  1  0  0  0
 18 21  1  0  0  0
 18 44  1  0  0  0
 19 26  1  0  0  0
 20 22  1  0  0  0
 20 45  1  0  0  0
 21 22  2  0  0  0
 22 46  1  0  0  0
 23 25  1  0  0  0
 23 27  1  0  0  0
 23 28  2  0  0  0
 26 47  1  0  0  0
 26 48  1  0  0  0
 28 49  1  0  0  0
 29 30  1  0  0  0
 29 31  1  0  0  0
 29 50  1  0  0  0
 30 32  1  0  0  0
 30 51  1  0  0  0
 30 52  1  0  0  0
 31 32  1  0  0  0
 31 53  1  0  0  0
 31 54  1  0  0  0
 32 55  1  0  0  0
 32 56  1  0  0  0
 33 34  1  0  0  0
 34 57  1  0  0  0
 34 58  1  0  0  0
 34 59  1  0  0  0
M  END
> <s_m_entry_id>
32743

> <s_m_entry_name>
dock_pv.144

> <s_m_Source_Path>
/home/csk/Desktop/cluster/DUD-E-result/cdk2

> <s_m_Source_File>
dock_pv.maegz

> <i_m_Source_File_Index>
144

> <chembl_id>
CHEMBL1983111

> <chembl_pref_name>
None

> <i_lp_mmshare_version>
53161

> <i_f3d_flags>
0

> <r_lp_tautomer_probability>
0.999999624730965

> <s_lp_Force_Field>
OPLS_2005

> <r_lp_Energy>
74.136547

> <b_lp_Chiralities_Consistent>
1

> <s_lp_Variant>
CHEMBL301_lig43-1

> <s_i_glide_gridfile>
glide-grid_1h00

> <i_i_glide_lignum>
119

> <i_i_glide_rotatable_bonds>
9

> <r_i_docking_score>
-7.96015926233613

> <r_i_glide_ligand_efficiency>
-0.23412233124518

> <r_i_glide_ligand_efficiency_sa>
-0.758465466352941

> <r_i_glide_ligand_efficiency_ln>
-1.75862245595453

> <r_i_glide_gscore>
-7.96015926233613

> <r_i_glide_lipo>
-3.02089464388339

> <r_i_glide_hbond>
-0.374890228481978

> <r_i_glide_metal>
0

> <r_i_glide_rewards>
-1.79209353136958

> <r_i_glide_evdw>
-40.1227836608887

> <r_i_glide_ecoul>
-8.21429634094238

> <r_i_glide_erotb>
0.629177654581831

> <r_i_glide_esite>
-0.163174878997216

> <r_i_glide_emodel>
-67.2206727725313

> <r_i_glide_energy>
-48.3370800018311

> <r_i_glide_einternal>
11.2531929016113

> <i_i_glide_confnum>
68

> <i_i_glide_posenum>
86

> <r_i_glide_eff_state_penalty>
0

> <s_user_duplicate_titles>
CHEMBL301_lig43

> <s_m_subgroup_title>
dock_pv

> <s_m_subgroupid>
dock_pv

> <b_m_subgroup_collapsed>
1

$$$$
CHEMBL301_lig202
                    3D
 Schrodinger Suite 2021-1.
 34 36  0  0  1  0            999 V2000
   -1.8037   29.9233   10.4833 C   0  0  0  0  0  0
   -2.3835   31.1584   10.1760 C   0  0  0  0  0  0
   -1.7637   32.0207    9.2705 C   0  0  0  0  0  0
   -0.6040   29.5377    9.8765 C   0  0  0  0  0  0
    0.0098   30.3946    8.9577 C   0  0  0  0  0  0
   -0.5698   31.6177    8.6745 C   0  0  0  0  0  0
    0.2216   32.2885    7.7763 N   0  0  0  0  0  0
    1.2544   31.5416    7.3760 C   0  0  0  0  0  0
    1.2376   30.3163    8.1847 C   0  0  0  0  0  0
    2.0579   31.8523    6.5086 O   0  0  0  0  0  0
    2.1299   29.4010    8.2182 N   0  0  0  0  0  0
    3.2558   29.4518    7.3759 N   0  0  0  0  0  0
    4.0608   28.3536    7.0816 C   0  0  0  0  0  0
    4.5125   27.5021    8.0901 C   0  0  0  0  0  0
    5.3684   26.4514    7.7785 C   0  0  0  0  0  0
    5.7563   26.2379    6.4583 C   0  0  0  0  0  0
    5.2678   27.0566    5.4390 C   0  0  0  0  0  0
    4.4399   28.1299    5.7574 C   0  0  0  0  0  0
    6.9400   24.9505    6.1007 S   0  0  0  0  0  0
    8.4580   25.5993    6.6560 N   0  0  0  0  0  0
    6.6202   23.8124    6.9685 O   0  0  0  0  0  0
    7.0360   24.7998    4.6464 O   0  0  0  0  0  0
   -2.2839   29.2729   11.2004 H   0  0  0  0  0  0
   -3.3062   31.4523   10.6559 H   0  0  0  0  0  0
   -2.2107   32.9791    9.0494 H   0  0  0  0  0  0
   -0.1620   28.5840   10.1278 H   0  0  0  0  0  0
    0.0459   33.2167    7.4162 H   0  0  0  0  0  0
    3.2261   30.2235    6.7126 H   0  0  0  0  0  0
    4.2313   27.6721    9.1193 H   0  0  0  0  0  0
    5.7444   25.8248    8.5757 H   0  0  0  0  0  0
    5.5719   26.9007    4.4136 H   0  0  0  0  0  0
    4.0991   28.7911    4.9741 H   0  0  0  0  0  0
    9.0618   24.8818    7.0614 H   0  0  0  0  0  0
    8.9456   26.1318    5.9314 H   0  0  0  0  0  0
  1  2  2  0  0  0
  1  4  1  0  0  0
  1 23  1  0  0  0
  2  3  1  0  0  0
  2 24  1  0  0  0
  3  6  2  0  0  0
  3 25  1  0  0  0
  4  5  2  0  0  0
  4 26  1  0  0  0
  5  6  1  0  0  0
  5  9  1  0  0  0
  6  7  1  0  0  0
  7  8  1  0  0  0
  7 27  1  0  0  0
  8  9  1  0  0  0
  8 10  2  0  0  0
  9 11  2  0  0  0
 11 12  1  0  0  0
 12 13  1  0  0  0
 12 28  1  0  0  0
 13 14  2  0  0  0
 13 18  1  0  0  0
 14 15  1  0  0  0
 14 29  1  0  0  0
 15 16  2  0  0  0
 15 30  1  0  0  0
 16 17  1  0  0  0
 16 19  1  0  0  0
 17 18  2  0  0  0
 17 31  1  0  0  0
 18 32  1  0  0  0
 19 20  1  0  0  0
 19 21  2  0  0  0
 19 22  2  0  0  0
 20 33  1  0  0  0
 20 34  1  0  0  0
M  END
> <s_m_entry_id>
32744

> <s_m_entry_name>
dock_pv.145

> <s_m_Source_Path>
/home/csk/Desktop/cluster/DUD-E-result/cdk2

> <s_m_Source_File>
dock_pv.maegz

> <i_m_Source_File_Index>
145

> <chembl_id>
CHEMBL438721

> <chembl_pref_name>
None

> <i_lp_mmshare_version>
53161

> <i_f3d_flags>
0

> <r_lp_tautomer_probability>
1

> <s_lp_Force_Field>
OPLS_2005

> <r_lp_Energy>
44.608293

> <b_lp_Chiralities_Consistent>
1

> <s_lp_Variant>
CHEMBL301_lig202-1

> <s_i_glide_gridfile>
glide-grid_1h00

> <i_i_glide_lignum>
344

> <i_i_glide_rotatable_bonds>
3

> <r_i_docking_score>
-7.95906030507542

> <r_i_glide_ligand_efficiency>
-0.361775468412519

> <r_i_glide_ligand_efficiency_sa>
-1.01370909031368

> <r_i_glide_ligand_efficiency_ln>
-1.94548465233888

> <r_i_glide_gscore>
-7.95906030507542

> <r_i_glide_lipo>
-1.9485272872485

> <r_i_glide_hbond>
-0.534908352159389

> <r_i_glide_metal>
0

> <r_i_glide_rewards>
-2.97888161565335

> <r_i_glide_evdw>
-34.237663269043

> <r_i_glide_ecoul>
-6.93583536148071

> <r_i_glide_erotb>
0.260436195605126

> <r_i_glide_esite>
-0.00492077794505549

> <r_i_glide_emodel>
-62.0555149303762

> <r_i_glide_energy>
-41.1734986305237

> <r_i_glide_einternal>
2.1870129108429

> <i_i_glide_confnum>
3

> <i_i_glide_posenum>
61

> <r_i_glide_eff_state_penalty>
0

> <s_user_duplicate_titles>
CHEMBL301_lig202,441047,136611

> <s_m_subgroup_title>
dock_pv

> <s_m_subgroupid>
dock_pv

> <b_m_subgroup_collapsed>
1

$$$$
CHEMBL301_lig1438
                    3D
 Schrodinger Suite 2021-1.
 45 46  0  0  1  0            999 V2000
   -0.5118   27.5604   12.7513 C   0  0  0  0  0  0
    0.4584   27.4106   11.5665 C   0  0  1  0  0  0
    1.2556   26.2521   11.7759 O   0  0  0  0  0  0
   -0.2119   27.3741   10.1760 C   0  0  1  0  0  0
   -1.1796   26.1935    9.9990 C   0  0  0  0  0  0
   -0.9197   28.6110    9.9436 O   0  0  0  0  0  0
   -0.3419   29.6706    9.2513 C   0  0  0  0  0  0
    0.8389   29.4520    8.6282 N   0  0  0  0  0  0
    1.3469   30.4254    7.8417 C   0  0  0  0  0  0
    2.4580   30.1274    7.0477 N   0  0  0  0  0  0
    3.3258   29.0186    7.0484 C   0  0  0  0  0  0
    3.9820   28.6643    5.8651 C   0  0  0  0  0  0
    4.8581   27.5874    5.8154 C   0  0  0  0  0  0
    5.0746   26.8310    6.9640 C   0  0  0  0  0  0
    4.3822   27.1399    8.1287 C   0  0  0  0  0  0
    3.5497   28.2494    8.1919 C   0  0  0  0  0  0
    6.2567   25.4858    7.0210 S   0  0  0  0  0  0
    7.2579   25.8520    8.0293 O   0  0  0  0  0  0
    5.4795   24.2511    7.1660 O   0  0  0  0  0  0
    7.1114   25.4521    5.3440 C   0  0  0  0  0  0
    0.8129   31.6608    7.7050 N   0  0  0  0  0  0
   -0.3415   31.8985    8.3825 C   0  0  0  0  0  0
   -0.9834   30.9158    9.1467 C   0  0  0  0  0  0
   -2.2869   31.2186    9.8582 C   0  0  0  0  0  0
   -2.3759   32.5115   10.1757 F   0  0  0  0  0  0
   -3.3141   30.8901    9.0750 F   0  0  0  0  0  0
   -2.3450   30.5119   10.9760 F   0  0  0  0  0  0
   -1.1051   28.4714   12.6620 H   0  0  0  0  0  0
    0.0299   27.6119   13.6956 H   0  0  0  0  0  0
   -1.2042   26.7214   12.8186 H   0  0  0  0  0  0
    1.1417   28.2617   11.5776 H   0  0  0  0  0  0
    1.9099   26.4944   12.4490 H   0  0  0  0  0  0
    0.5784   27.2104    9.4436 H   0  0  0  0  0  0
   -0.6926   25.2409   10.2086 H   0  0  0  0  0  0
   -2.0482   26.2774   10.6516 H   0  0  0  0  0  0
   -1.5420   26.1493    8.9760 H   0  0  0  0  0  0
    2.7451   30.8708    6.4284 H   0  0  0  0  0  0
    3.8491   29.2509    4.9770 H   0  0  0  0  0  0
    5.3729   27.3756    4.8912 H   0  0  0  0  0  0
    4.4697   26.4978    8.9760 H   0  0  0  0  0  0
    3.0683   28.4760    9.1300 H   0  0  0  0  0  0
    7.8610   24.6630    5.3610 H   0  0  0  0  0  0
    6.3731   25.2432    4.5711 H   0  0  0  0  0  0
    7.5938   26.4142    5.1736 H   0  0  0  0  0  0
   -0.7550   32.8921    8.2735 H   0  0  0  0  0  0
  1  2  1  0  0  0
  1 28  1  0  0  0
  1 29  1  0  0  0
  1 30  1  0  0  0
  2  3  1  0  0  0
  2  4  1  0  0  0
  2 31  1  0  0  0
  3 32  1  0  0  0
  4  5  1  0  0  0
  4  6  1  0  0  0
  4 33  1  0  0  0
  5 34  1  0  0  0
  5 35  1  0  0  0
  5 36  1  0  0  0
  6  7  1  0  0  0
  7  8  2  0  0  0
  7 23  1  0  0  0
  8  9  1  0  0  0
  9 10  1  0  0  0
  9 21  2  0  0  0
 10 11  1  0  0  0
 10 37  1  0  0  0
 11 12  2  0  0  0
 11 16  1  0  0  0
 12 13  1  0  0  0
 12 38  1  0  0  0
 13 14  2  0  0  0
 13 39  1  0  0  0
 14 15  1  0  0  0
 14 17  1  0  0  0
 15 16  2  0  0  0
 15 40  1  0  0  0
 16 41  1  0  0  0
 17 18  2  0  0  0
 17 19  2  0  0  0
 17 20  1  0  0  0
 20 42  1  0  0  0
 20 43  1  0  0  0
 20 44  1  0  0  0
 21 22  1  0  0  0
 22 23  2  0  0  0
 22 45  1  0  0  0
 23 24  1  0  0  0
 24 25  1  0  0  0
 24 26  1  0  0  0
 24 27  1  0  0  0
M  END
> <s_m_entry_id>
32745

> <s_m_entry_name>
dock_pv.146

> <s_m_Source_Path>
/home/csk/Desktop/cluster/DUD-E-result/cdk2

> <s_m_Source_File>
dock_pv.maegz

> <i_m_Source_File_Index>
146

> <chembl_id>
CHEMBL3644033

> <chembl_pref_name>
None

> <i_lp_mmshare_version>
53161

> <i_f3d_flags>
0

> <r_lp_tautomer_probability>
0.999999917912647

> <s_lp_Force_Field>
OPLS_2005

> <r_lp_Energy>
3.254022

> <b_lp_Chiralities_Consistent>
1

> <s_lp_Variant>
CHEMBL301_lig1438-1

> <s_i_glide_gridfile>
glide-grid_1h00

> <i_i_glide_lignum>
1951

> <i_i_glide_rotatable_bonds>
8

> <r_i_docking_score>
-7.95103218342657

> <r_i_glide_ligand_efficiency>
-0.294482673460243

> <r_i_glide_ligand_efficiency_sa>
-0.883448019410163

> <r_i_glide_ligand_efficiency_ln>
-1.85086920929147

> <r_i_glide_gscore>
-7.95103218342657

> <r_i_glide_lipo>
-2.50745933888359

> <r_i_glide_hbond>
-0.471537512258186

> <r_i_glide_metal>
0

> <r_i_glide_rewards>
-2.10347736768471

> <r_i_glide_evdw>
-36.5038604736328

> <r_i_glide_ecoul>
-10.3661508560181

> <r_i_glide_erotb>
0.597902769318375

> <r_i_glide_esite>
-0.0863450818341154

> <r_i_glide_emodel>
-64.4038354107561

> <r_i_glide_energy>
-46.8700113296509

> <r_i_glide_einternal>
11.1047525405884

> <i_i_glide_confnum>
72

> <i_i_glide_posenum>
312

> <r_i_glide_eff_state_penalty>
0

> <s_user_duplicate_titles>
CHEMBL301_lig1438

> <s_m_subgroup_title>
dock_pv

> <s_m_subgroupid>
dock_pv

> <b_m_subgroup_collapsed>
1

$$$$
CHEMBL301_lig326
                    3D
 Schrodinger Suite 2021-1.
 39 42  0  0  1  0            999 V2000
    8.1263   25.8505    4.6883 N   0  0  0  0  0  0
    7.3596   25.2716    6.1425 S   0  0  0  0  0  0
    8.3193   25.4471    7.2380 O   0  0  0  0  0  0
    6.7644   23.9661    5.8445 O   0  0  0  0  0  0
    6.0096   26.3932    6.4571 C   0  0  0  0  0  0
    5.6615   26.6643    7.7769 C   0  0  0  0  0  0
    4.7281   27.6534    8.0587 C   0  0  0  0  0  0
    4.1556   28.3823    7.0167 C   0  0  0  0  0  0
    3.3035   29.4503    7.2846 N   0  0  0  0  0  0
    2.2377   29.3778    8.1834 N   0  0  0  0  0  0
    1.3081   30.2522    8.1761 C   0  0  0  0  0  0
    1.2580   31.4828    7.3759 C   0  0  0  0  0  0
    2.0559   31.8521    6.5200 O   0  0  0  0  0  0
    0.1748   32.1523    7.7804 N   0  0  0  0  0  0
   -0.5678   31.4313    8.6853 C   0  0  0  0  0  0
   -1.7845   31.7649    9.2698 C   0  0  0  0  0  0
   -2.3761   30.8794   10.1675 C   0  0  0  0  0  0
   -1.7352   29.6576   10.4967 C   0  0  0  0  0  0
   -2.3457   28.8195   11.3767 N   0  0  0  0  0  0
   -1.7249   27.6674   11.7229 C   0  0  0  0  0  0
   -0.4948   27.2780   11.2058 C   0  0  0  0  0  0
    0.1380   28.1098   10.2862 C   0  0  0  0  0  0
   -0.4742   29.3372    9.9036 C   0  0  0  0  0  0
    0.0909   30.2512    8.9691 C   0  0  0  0  0  0
    4.4577   28.0670    5.6913 C   0  0  0  0  0  0
    5.3678   27.0515    5.4069 C   0  0  0  0  0  0
    8.9590   26.4241    4.8439 H   0  0  0  0  0  0
    8.2041   25.1678    3.9316 H   0  0  0  0  0  0
    6.1459   26.1404    8.5864 H   0  0  0  0  0  0
    4.4894   27.8841    9.0874 H   0  0  0  0  0  0
    3.2168   30.2025    6.6043 H   0  0  0  0  0  0
   -0.0648   33.0698    7.4305 H   0  0  0  0  0  0
   -2.2811   32.6951    9.0346 H   0  0  0  0  0  0
   -3.3250   31.1209   10.6268 H   0  0  0  0  0  0
   -2.2455   27.0488   12.4395 H   0  0  0  0  0  0
   -0.0368   26.3492   11.5136 H   0  0  0  0  0  0
    1.0924   27.8207    9.8741 H   0  0  0  0  0  0
    4.0101   28.6237    4.8817 H   0  0  0  0  0  0
    5.6296   26.8393    4.3801 H   0  0  0  0  0  0
  1  2  1  0  0  0
  1 27  1  0  0  0
  1 28  1  0  0  0
  2  3  2  0  0  0
  2  4  2  0  0  0
  2  5  1  0  0  0
  5  6  2  0  0  0
  5 26  1  0  0  0
  6  7  1  0  0  0
  6 29  1  0  0  0
  7  8  2  0  0  0
  7 30  1  0  0  0
  8  9  1  0  0  0
  8 25  1  0  0  0
  9 10  1  0  0  0
  9 31  1  0  0  0
 10 11  2  0  0  0
 11 12  1  0  0  0
 11 24  1  0  0  0
 12 13  2  0  0  0
 12 14  1  0  0  0
 14 15  1  0  0  0
 14 32  1  0  0  0
 15 16  2  0  0  0
 15 24  1  0  0  0
 16 17  1  0  0  0
 16 33  1  0  0  0
 17 18  2  0  0  0
 17 34  1  0  0  0
 18 19  1  0  0  0
 18 23  1  0  0  0
 19 20  2  0  0  0
 20 21  1  0  0  0
 20 35  1  0  0  0
 21 22  2  0  0  0
 21 36  1  0  0  0
 22 23  1  0  0  0
 22 37  1  0  0  0
 23 24  2  0  0  0
 25 26  2  0  0  0
 25 38  1  0  0  0
 26 39  1  0  0  0
M  END
> <s_m_entry_id>
32746

> <s_m_entry_name>
dock_pv.147

> <s_m_Source_Path>
/home/csk/Desktop/cluster/DUD-E-result/cdk2

> <s_m_Source_File>
dock_pv.maegz

> <i_m_Source_File_Index>
147

> <chembl_id>
CHEMBL409892

> <chembl_pref_name>
GW305178X

> <i_lp_mmshare_version>
53161

> <i_f3d_flags>
0

> <r_lp_tautomer_probability>
1

> <s_lp_Force_Field>
OPLS_2005

> <r_lp_Energy>
47.205656

> <b_lp_Chiralities_Consistent>
1

> <s_lp_Variant>
CHEMBL301_lig326-1

> <s_i_glide_gridfile>
glide-grid_1h00

> <i_i_glide_lignum>
503

> <i_i_glide_rotatable_bonds>
3

> <r_i_docking_score>
-7.94835137063754

> <r_i_glide_ligand_efficiency>
-0.305705821947598

> <r_i_glide_ligand_efficiency_sa>
-0.905652294625435

> <r_i_glide_ligand_efficiency_ln>
-1.86664423872615

> <r_i_glide_gscore>
-7.94835137063754

> <r_i_glide_lipo>
-2.50433735989039

> <r_i_glide_hbond>
-0.474525902418815

> <r_i_glide_metal>
0

> <r_i_glide_rewards>
-2.24395647369115

> <r_i_glide_evdw>
-39.8755302429199

> <r_i_glide_ecoul>
-6.59289646148682

> <r_i_glide_erotb>
0.285367487789463

> <r_i_glide_esite>
-0.0281881410576282

> <r_i_glide_emodel>
-66.6052126144322

> <r_i_glide_energy>
-46.4684267044067

> <r_i_glide_einternal>
5.42057466506958

> <i_i_glide_confnum>
1

> <i_i_glide_posenum>
276

> <r_i_glide_eff_state_penalty>
0

> <s_user_duplicate_titles>
CHEMBL301_lig326,441192,225583

> <s_m_subgroup_title>
dock_pv

> <s_m_subgroupid>
dock_pv

> <b_m_subgroup_collapsed>
1

$$$$
CHEMBL301_lig1349
                    3D
 Schrodinger Suite 2021-1.
 47 48  0  0  1  0            999 V2000
    5.0118   23.8848    6.1549 C   0  0  0  0  0  0
    5.4848   24.4877    7.3759 N   0  0  0  0  0  0
    6.3699   25.7572    7.4119 S   0  0  1  0  0  0
    7.2577   26.0936    8.5302 O   0  0  0  0  0  0
    7.3939   25.7124    5.8223 C   0  0  0  0  0  0
    5.1459   27.0585    7.2580 C   0  0  0  0  0  0
    4.4863   27.5043    8.4022 C   0  0  0  0  0  0
    3.5651   28.5415    8.3263 C   0  0  0  0  0  0
    3.2778   29.1241    7.0916 C   0  0  0  0  0  0
    2.4514   30.2517    6.9743 N   0  0  0  0  0  0
    1.3379   30.6772    7.7050 C   0  0  0  0  0  0
    0.9084   31.9401    7.4582 N   0  0  0  0  0  0
   -0.1659   32.3664    8.1761 C   0  0  0  0  0  0
   -0.8303   31.5468    9.0941 C   0  0  0  0  0  0
   -2.3394   32.2109   10.0542 Br  0  0  0  0  0  0
   -0.3238   30.2508    9.2763 C   0  0  0  0  0  0
   -0.9137   29.3753   10.2074 N   0  0  0  0  0  0
   -0.1101   28.4093   10.9778 C   0  0  2  0  0  0
    0.2568   27.1580   10.1504 C   0  0  0  0  0  0
   -0.7886   28.0231   12.3194 C   0  0  2  0  0  0
   -1.1410   29.2318   13.1979 C   0  0  0  0  0  0
    0.0402   27.1531   13.0795 O   0  0  0  0  0  0
    0.7688   29.8290    8.5907 N   0  0  0  0  0  0
    3.9108   28.6517    5.9392 C   0  0  0  0  0  0
    4.8461   27.6252    6.0186 C   0  0  0  0  0  0
    4.2795   23.1125    6.3879 H   0  0  0  0  0  0
    4.5234   24.6217    5.5112 H   0  0  0  0  0  0
    5.8298   23.4117    5.6058 H   0  0  0  0  0  0
    6.7543   25.5740    4.9531 H   0  0  0  0  0  0
    7.9407   26.6511    5.7356 H   0  0  0  0  0  0
    8.1012   24.8882    5.8977 H   0  0  0  0  0  0
    4.6964   27.0620    9.3608 H   0  0  0  0  0  0
    3.1063   28.9061    9.2335 H   0  0  0  0  0  0
    2.8754   30.9698    6.3984 H   0  0  0  0  0  0
   -0.4959   33.3795    7.9911 H   0  0  0  0  0  0
   -1.7041   29.7681   10.7018 H   0  0  0  0  0  0
    0.8289   28.9115   11.2240 H   0  0  0  0  0  0
    0.7346   26.3847   10.7522 H   0  0  0  0  0  0
   -0.6218   26.7135    9.6811 H   0  0  0  0  0  0
    0.9750   27.4030    9.3753 H   0  0  0  0  0  0
   -1.7186   27.4906   12.1097 H   0  0  0  0  0  0
   -1.8938   29.8555   12.7173 H   0  0  0  0  0  0
   -0.2647   29.8518   13.3770 H   0  0  0  0  0  0
   -1.5420   28.9236   14.1623 H   0  0  0  0  0  0
    0.9608   27.4519   13.0619 H   0  0  0  0  0  0
    3.7140   29.1104    4.9824 H   0  0  0  0  0  0
    5.3415   27.3012    5.1164 H   0  0  0  0  0  0
  1  2  1  0  0  0
  1 26  1  0  0  0
  1 27  1  0  0  0
  1 28  1  0  0  0
  2  3  2  0  0  0
  3  4  2  0  0  0
  3  5  1  0  0  0
  3  6  1  0  0  0
  5 29  1  0  0  0
  5 30  1  0  0  0
  5 31  1  0  0  0
  6  7  2  0  0  0
  6 25  1  0  0  0
  7  8  1  0  0  0
  7 32  1  0  0  0
  8  9  2  0  0  0
  8 33  1  0  0  0
  9 10  1  0  0  0
  9 24  1  0  0  0
 10 11  1  0  0  0
 10 34  1  0  0  0
 11 12  2  0  0  0
 11 23  1  0  0  0
 12 13  1  0  0  0
 13 14  2  0  0  0
 13 35  1  0  0  0
 14 15  1  0  0  0
 14 16  1  0  0  0
 16 17  1  0  0  0
 16 23  2  0  0  0
 17 18  1  0  0  0
 17 36  1  0  0  0
 18 19  1  0  0  0
 18 20  1  0  0  0
 18 37  1  0  0  0
 19 38  1  0  0  0
 19 39  1  0  0  0
 19 40  1  0  0  0
 20 21  1  0  0  0
 20 22  1  0  0  0
 20 41  1  0  0  0
 21 42  1  0  0  0
 21 43  1  0  0  0
 21 44  1  0  0  0
 22 45  1  0  0  0
 24 25  2  0  0  0
 24 46  1  0  0  0
 25 47  1  0  0  0
M  END
> <s_m_entry_id>
32747

> <s_m_entry_name>
dock_pv.148

> <s_m_Source_Path>
/home/csk/Desktop/cluster/DUD-E-result/cdk2

> <s_m_Source_File>
dock_pv.maegz

> <i_m_Source_File_Index>
148

> <chembl_id>
CHEMBL3648083

> <chembl_pref_name>
None

> <i_lp_mmshare_version>
53161

> <i_f3d_flags>
0

> <r_lp_tautomer_probability>
0.999999624730965

> <s_lp_Force_Field>
OPLS_2005

> <r_lp_Energy>
5.373626

> <b_lp_Chiralities_Consistent>
1

> <s_lp_Variant>
CHEMBL301_lig1349-1

> <s_i_glide_gridfile>
glide-grid_1h00

> <i_i_glide_lignum>
1791

> <i_i_glide_rotatable_bonds>
7

> <r_i_docking_score>
-7.94387404307799

> <r_i_glide_ligand_efficiency>
-0.31775496172312

> <r_i_glide_ligand_efficiency_sa>
-0.929121143486643

> <r_i_glide_ligand_efficiency_ln>
-1.8829362069044

> <r_i_glide_gscore>
-7.94387404307799

> <r_i_glide_lipo>
-2.61761088318823

> <r_i_glide_hbond>
-0.579018198868447

> <r_i_glide_metal>
0

> <r_i_glide_rewards>
-1.63768361637711

> <r_i_glide_evdw>
-38.7103881835938

> <r_i_glide_ecoul>
-12.1571559906006

> <r_i_glide_erotb>
0.64953146312557

> <r_i_glide_esite>
0

> <r_i_glide_emodel>
-71.0808861572597

> <r_i_glide_energy>
-50.8675441741943

> <r_i_glide_einternal>
6.39164972305298

> <i_i_glide_confnum>
96

> <i_i_glide_posenum>
303

> <r_i_glide_eff_state_penalty>
0

> <s_user_duplicate_titles>
CHEMBL301_lig1349

> <s_m_subgroup_title>
dock_pv

> <s_m_subgroupid>
dock_pv

> <b_m_subgroup_collapsed>
1

$$$$
CHEMBL301_lig538
                    3D
 Schrodinger Suite 2021-1.
 50 53  0  0  1  0            999 V2000
   -2.3401   29.8213   10.3550 C   0  0  0  0  0  0
   -2.9528   31.0652   10.1761 C   0  0  0  0  0  0
   -2.2991   32.0803    9.4858 C   0  0  0  0  0  0
   -1.0864   29.5577    9.7757 C   0  0  0  0  0  0
   -0.4663   30.5726    9.0339 C   0  0  0  0  0  0
   -1.0628   31.8116    8.9219 C   0  0  0  0  0  0
   -0.2654   32.6373    8.1760 N   0  0  0  0  0  0
    0.8130   31.9938    7.7217 C   0  0  0  0  0  0
    0.7760   30.6441    8.2896 C   0  0  0  0  0  0
    1.6586   32.4673    6.9759 O   0  0  0  0  0  0
    1.6624   29.7302    8.1943 N   0  0  0  0  0  0
    2.7883   29.8542    7.3682 N   0  0  0  0  0  0
    3.7123   28.8263    7.1919 C   0  0  0  0  0  0
    4.0663   28.4205    5.9038 C   0  0  0  0  0  0
    4.9982   27.4007    5.7239 C   0  0  0  0  0  0
    5.6082   26.8236    6.8396 C   0  0  0  0  0  0
    5.2577   27.2327    8.1221 C   0  0  0  0  0  0
    4.2987   28.2196    8.3010 C   0  0  0  0  0  0
    6.8753   25.5769    6.6680 S   0  0  0  0  0  0
    7.6136   25.8518    5.1150 N   0  0  0  0  0  0
    7.8900   25.8518    7.6911 O   0  0  0  0  0  0
    6.1874   24.2843    6.6078 O   0  0  0  0  0  0
   -0.4114   28.3507    9.8245 O   0  0  0  0  0  0
   -0.8578   27.2857   10.6574 C   0  0  0  0  0  0
   -0.2478   27.4236   12.0628 C   0  0  0  0  0  0
   -0.7417   26.3515   13.0221 C   0  0  0  0  0  0
   -0.3426   25.0180   12.8781 C   0  0  0  0  0  0
   -0.8491   24.0670   13.7679 C   0  0  0  0  0  0
   -1.7160   24.3777   14.7667 N   0  0  0  0  0  0
   -2.0913   25.6766   14.8941 C   0  0  0  0  0  0
   -1.6215   26.6859   14.0541 C   0  0  0  0  0  0
   -2.8654   29.0802   10.9359 H   0  0  0  0  0  0
   -3.9250   31.2562   10.6053 H   0  0  0  0  0  0
   -2.7489   33.0529    9.3865 H   0  0  0  0  0  0
   -0.4622   33.6007    7.9428 H   0  0  0  0  0  0
    2.7614   30.6401    6.7274 H   0  0  0  0  0  0
    3.6233   28.8947    5.0420 H   0  0  0  0  0  0
    5.2714   27.0925    4.7250 H   0  0  0  0  0  0
    5.7405   26.7888    8.9760 H   0  0  0  0  0  0
    4.0324   28.5307    9.3006 H   0  0  0  0  0  0
    8.4548   26.4339    5.1394 H   0  0  0  0  0  0
    7.6531   25.0324    4.5060 H   0  0  0  0  0  0
   -0.4960   26.3633   10.2011 H   0  0  0  0  0  0
   -1.9419   27.1877   10.6858 H   0  0  0  0  0  0
   -0.4696   28.4130   12.4667 H   0  0  0  0  0  0
    0.8412   27.3744   12.0035 H   0  0  0  0  0  0
    0.3396   24.7271   12.0929 H   0  0  0  0  0  0
   -0.5663   23.0276   13.6833 H   0  0  0  0  0  0
   -2.7882   25.9087   15.6858 H   0  0  0  0  0  0
   -1.9419   27.7093   14.1914 H   0  0  0  0  0  0
  1  4  1  0  0  0
  1  2  2  0  0  0
  1 32  1  0  0  0
  2  3  1  0  0  0
  2 33  1  0  0  0
  3  6  2  0  0  0
  3 34  1  0  0  0
  4  5  2  0  0  0
  4 23  1  0  0  0
  5  9  1  0  0  0
  5  6  1  0  0  0
  6  7  1  0  0  0
  7  8  1  0  0  0
  7 35  1  0  0  0
  8  9  1  0  0  0
  8 10  2  0  0  0
  9 11  2  0  0  0
 11 12  1  0  0  0
 12 13  1  0  0  0
 12 36  1  0  0  0
 13 18  1  0  0  0
 13 14  2  0  0  0
 14 15  1  0  0  0
 14 37  1  0  0  0
 15 16  2  0  0  0
 15 38  1  0  0  0
 16 17  1  0  0  0
 16 19  1  0  0  0
 17 18  2  0  0  0
 17 39  1  0  0  0
 18 40  1  0  0  0
 19 20  1  0  0  0
 19 21  2  0  0  0
 19 22  2  0  0  0
 20 41  1  0  0  0
 20 42  1  0  0  0
 23 24  1  0  0  0
 24 25  1  0  0  0
 24 43  1  0  0  0
 24 44  1  0  0  0
 25 26  1  0  0  0
 25 45  1  0  0  0
 25 46  1  0  0  0
 26 27  2  0  0  0
 26 31  1  0  0  0
 27 28  1  0  0  0
 27 47  1  0  0  0
 28 29  2  0  0  0
 28 48  1  0  0  0
 29 30  1  0  0  0
 30 31  2  0  0  0
 30 49  1  0  0  0
 31 50  1  0  0  0
M  END
> <s_m_entry_id>
32748

> <s_m_entry_name>
dock_pv.149

> <s_m_Source_Path>
/home/csk/Desktop/cluster/DUD-E-result/cdk2

> <s_m_Source_File>
dock_pv.maegz

> <i_m_Source_File_Index>
149

> <chembl_id>
CHEMBL272217

> <chembl_pref_name>
None

> <i_lp_mmshare_version>
53161

> <i_f3d_flags>
0

> <r_lp_tautomer_probability>
1

> <s_lp_Force_Field>
OPLS_2005

> <r_lp_Energy>
48.933843

> <b_lp_Chiralities_Consistent>
1

> <s_lp_Variant>
CHEMBL301_lig538-1

> <s_i_glide_gridfile>
glide-grid_1h00

> <i_i_glide_lignum>
758

> <i_i_glide_rotatable_bonds>
7

> <r_i_docking_score>
-7.9380182890038

> <r_i_glide_ligand_efficiency>
-0.256065106096897

> <r_i_glide_ligand_efficiency_sa>
-0.804397969124577

> <r_i_glide_ligand_efficiency_ln>
-1.79026639521517

> <r_i_glide_gscore>
-7.9380182890038

> <r_i_glide_lipo>
-2.70203849476855

> <r_i_glide_hbond>
-0.442186107977494

> <r_i_glide_metal>
0

> <r_i_glide_rewards>
-1.49974907046494

> <r_i_glide_evdw>
-46.0452194213867

> <r_i_glide_ecoul>
-8.85235404968262

> <r_i_glide_erotb>
0.364692501913423

> <r_i_glide_esite>
-0.0286230391845097

> <r_i_glide_emodel>
-74.6092935433726

> <r_i_glide_energy>
-54.8975734710693

> <r_i_glide_einternal>
9.01744842529297

> <i_i_glide_confnum>
38

> <i_i_glide_posenum>
229

> <r_i_glide_eff_state_penalty>
0

> <s_user_duplicate_titles>
CHEMBL301_lig538,440720

> <s_m_subgroup_title>
dock_pv

> <s_m_subgroupid>
dock_pv

> <b_m_subgroup_collapsed>
1

$$$$
CHEMBL301_lig496
                    3D
 Schrodinger Suite 2021-1.
 50 53  0  0  1  0            999 V2000
    0.0588   32.3043    8.0486 C   0  0  0  0  0  0
   -0.6317   31.4891    8.9535 C   0  0  0  0  0  0
   -0.0928   30.2220    9.2048 C   0  0  0  0  0  0
    1.0341   29.8137    8.5766 N   0  0  0  0  0  0
    1.6369   30.6522    7.6986 C   0  0  0  0  0  0
    1.1799   31.8935    7.3835 N   0  0  0  0  0  0
    2.8476   30.2509    7.1126 N   0  0  0  0  0  0
    3.3787   28.8963    7.2320 C   0  0  0  0  0  0
    4.0249   28.4569    5.9106 C   0  0  0  0  0  0
    4.5972   27.0223    5.9946 C   0  0  0  0  0  0
    5.5242   26.9437    7.1583 N   0  0  0  0  0  0
    4.9970   27.3844    8.4744 C   0  0  0  0  0  0
    4.4161   28.8083    8.3487 C   0  0  0  0  0  0
    6.6558   26.1762    7.1455 C   0  0  0  0  0  0
    7.2637   25.8521    8.1715 O   0  0  0  0  0  0
    7.1386   25.8520    5.9283 N   0  0  0  0  0  0
    8.4335   25.2246    5.6657 C   0  0  0  0  0  0
    9.5847   26.2413    5.6377 C   0  0  0  0  0  0
   -0.7043   29.2581   10.1787 C   0  0  0  0  0  0
   -2.2269   28.3161   11.5944 N   0  0  0  0  0  0
   -1.9280   29.3543   10.8490 C   0  0  0  0  0  0
   -1.1625   27.4934   11.4700 C   0  0  0  0  0  0
   -0.1789   28.0463   10.6215 N   0  0  0  0  0  0
    1.0048   27.3787   10.3917 C   0  0  0  0  0  0
    1.2257   26.1333   10.9732 C   0  0  0  0  0  0
    0.2549   25.5638   11.7906 C   0  0  0  0  0  0
   -0.9423   26.2313   12.0523 C   0  0  0  0  0  0
   -0.2926   33.3020    7.8262 H   0  0  0  0  0  0
   -1.5223   31.8406    9.4521 H   0  0  0  0  0  0
    3.4167   30.9183    6.5897 H   0  0  0  0  0  0
    2.5473   28.2521    7.4772 H   0  0  0  0  0  0
    4.8227   29.1427    5.6200 H   0  0  0  0  0  0
    3.2885   28.4998    5.1065 H   0  0  0  0  0  0
    5.0960   26.8488    5.0413 H   0  0  0  0  0  0
    3.7945   26.2991    6.1334 H   0  0  0  0  0  0
    4.2230   26.6888    8.8023 H   0  0  0  0  0  0
    5.7905   27.4542    9.2173 H   0  0  0  0  0  0
    3.9341   29.0517    9.2928 H   0  0  0  0  0  0
    5.2167   29.5374    8.2054 H   0  0  0  0  0  0
    6.6299   26.1684    5.1176 H   0  0  0  0  0  0
    8.3743   24.7224    4.6993 H   0  0  0  0  0  0
    8.6389   24.4416    6.3991 H   0  0  0  0  0  0
   10.5406   25.7447    5.4670 H   0  0  0  0  0  0
    9.6626   26.7840    6.5796 H   0  0  0  0  0  0
    9.4515   26.9720    4.8385 H   0  0  0  0  0  0
   -2.6236   30.1783   10.7709 H   0  0  0  0  0  0
    1.7486   27.8472    9.7708 H   0  0  0  0  0  0
    2.1595   25.6168   10.7990 H   0  0  0  0  0  0
    0.4384   24.5969   12.2374 H   0  0  0  0  0  0
   -1.6910   25.7924   12.6949 H   0  0  0  0  0  0
  1  2  2  0  0  0
  1  6  1  0  0  0
  1 28  1  0  0  0
  2  3  1  0  0  0
  2 29  1  0  0  0
  3  4  2  0  0  0
  3 19  1  0  0  0
  4  5  1  0  0  0
  5  7  1  0  0  0
  5  6  2  0  0  0
  7  8  1  0  0  0
  7 30  1  0  0  0
  8  9  1  0  0  0
  8 13  1  0  0  0
  8 31  1  0  0  0
  9 10  1  0  0  0
  9 32  1  0  0  0
  9 33  1  0  0  0
 10 11  1  0  0  0
 10 34  1  0  0  0
 10 35  1  0  0  0
 11 14  1  0  0  0
 11 12  1  0  0  0
 12 13  1  0  0  0
 12 36  1  0  0  0
 12 37  1  0  0  0
 13 38  1  0  0  0
 13 39  1  0  0  0
 14 15  2  0  0  0
 14 16  1  0  0  0
 16 17  1  0  0  0
 16 40  1  0  0  0
 17 18  1  0  0  0
 17 41  1  0  0  0
 17 42  1  0  0  0
 18 43  1  0  0  0
 18 44  1  0  0  0
 18 45  1  0  0  0
 19 23  1  0  0  0
 19 21  2  0  0  0
 20 22  2  0  0  0
 20 21  1  0  0  0
 21 46  1  0  0  0
 22 23  1  0  0  0
 22 27  1  0  0  0
 23 24  1  0  0  0
 24 25  2  0  0  0
 24 47  1  0  0  0
 25 26  1  0  0  0
 25 48  1  0  0  0
 26 27  2  0  0  0
 26 49  1  0  0  0
 27 50  1  0  0  0
M  END
> <s_m_entry_id>
32749

> <s_m_entry_name>
dock_pv.150

> <s_m_Source_Path>
/home/csk/Desktop/cluster/DUD-E-result/cdk2

> <s_m_Source_File>
dock_pv.maegz

> <i_m_Source_File_Index>
150

> <chembl_id>
CHEMBL246543

> <chembl_pref_name>
None

> <i_lp_mmshare_version>
53161

> <i_f3d_flags>
0

> <r_lp_tautomer_probability>
0.999999987636

> <s_lp_Force_Field>
OPLS_2005

> <r_lp_Energy>
29.61098

> <b_lp_Chiralities_Consistent>
1

> <s_lp_Variant>
CHEMBL301_lig496-1

> <s_i_glide_gridfile>
glide-grid_1h00

> <i_i_glide_lignum>
688

> <i_i_glide_rotatable_bonds>
6

> <r_i_docking_score>
-7.93540530900195

> <r_i_glide_ligand_efficiency>
-0.293903900333406

> <r_i_glide_ligand_efficiency_sa>
-0.881711700031558

> <r_i_glide_ligand_efficiency_ln>
-1.84723153055458

> <r_i_glide_gscore>
-7.93540530900195

> <r_i_glide_lipo>
-2.25128765108184

> <r_i_glide_hbond>
-0.308913903759128

> <r_i_glide_metal>
0

> <r_i_glide_rewards>
-3.12791397407111

> <r_i_glide_evdw>
-36.5647277832031

> <r_i_glide_ecoul>
-7.41119480133057

> <r_i_glide_erotb>
0.72023265467798

> <r_i_glide_esite>
-0.027606825408118

> <r_i_glide_emodel>
-62.4845877939094

> <r_i_glide_energy>
-43.9759225845337

> <r_i_glide_einternal>
2.14370465278625

> <i_i_glide_confnum>
12

> <i_i_glide_posenum>
260

> <r_i_glide_eff_state_penalty>
0

> <s_user_duplicate_titles>
CHEMBL301_lig496

> <s_m_subgroup_title>
dock_pv

> <s_m_subgroupid>
dock_pv

> <b_m_subgroup_collapsed>
1

$$$$
CHEMBL301_lig333
                    3D
 Schrodinger Suite 2021-1.
 37 40  0  0  1  0            999 V2000
   -2.3007   31.2133   10.3659 C   0  0  0  0  0  0
   -1.7153   31.9895    9.3638 C   0  0  0  0  0  0
    0.0603   30.3599    9.0123 C   0  0  0  0  0  0
   -0.5568   31.5623    8.7218 C   0  0  0  0  0  0
    0.1889   32.2252    7.7764 N   0  0  0  0  0  0
    1.2475   31.5135    7.3760 C   0  0  0  0  0  0
    1.2582   30.2902    8.1906 C   0  0  0  0  0  0
    2.0571   31.8520    6.5167 O   0  0  0  0  0  0
    2.1657   29.3945    8.2142 N   0  0  0  0  0  0
    3.2682   29.4519    7.3550 N   0  0  0  0  0  0
    4.0767   28.3553    7.0677 C   0  0  0  0  0  0
    4.5209   27.5044    8.0810 C   0  0  0  0  0  0
    5.3735   26.4501    7.7762 C   0  0  0  0  0  0
    5.7650   26.2331    6.4570 C   0  0  0  0  0  0
    5.2837   27.0515    5.4336 C   0  0  0  0  0  0
    4.4573   28.1273    5.7458 C   0  0  0  0  0  0
    6.9425   24.9396    6.1043 S   0  0  0  0  0  0
    8.4612   25.5860    6.6584 N   0  0  0  0  0  0
    6.6189   23.8052    6.9759 O   0  0  0  0  0  0
    7.0388   24.7839    4.6507 O   0  0  0  0  0  0
   -1.6675   30.0064   10.6909 C   0  0  0  0  0  0
   -0.4987   29.5488   10.0232 C   0  0  0  0  0  0
   -1.0738   28.0306   11.6187 N   0  0  0  0  0  0
   -1.9434   29.0527   11.6514 N   0  0  0  0  0  0
   -0.2182   28.2966   10.6669 C   0  0  0  0  0  0
    1.0956   27.2588   10.2725 Cl  0  0  0  0  0  0
   -3.1827   31.5506   10.8924 H   0  0  0  0  0  0
   -2.1617   32.9412    9.1135 H   0  0  0  0  0  0
   -0.0158   33.1469    7.4145 H   0  0  0  0  0  0
    3.2213   30.2202    6.6888 H   0  0  0  0  0  0
    4.2313   27.6759    9.1083 H   0  0  0  0  0  0
    5.7439   25.8215    8.5738 H   0  0  0  0  0  0
    5.5898   26.8922    4.4093 H   0  0  0  0  0  0
    4.1194   28.7871    4.9600 H   0  0  0  0  0  0
    9.0570   24.8713    7.0811 H   0  0  0  0  0  0
    8.9571   26.1067    5.9304 H   0  0  0  0  0  0
   -2.6830   29.0804   12.3466 H   0  0  0  0  0  0
  1 21  2  0  0  0
  1  2  1  0  0  0
  1 27  1  0  0  0
  2  4  2  0  0  0
  2 28  1  0  0  0
  3 22  2  0  0  0
  3  7  1  0  0  0
  3  4  1  0  0  0
  4  5  1  0  0  0
  5  6  1  0  0  0
  5 29  1  0  0  0
  6  7  1  0  0  0
  6  8  2  0  0  0
  7  9  2  0  0  0
  9 10  1  0  0  0
 10 11  1  0  0  0
 10 30  1  0  0  0
 11 12  2  0  0  0
 11 16  1  0  0  0
 12 13  1  0  0  0
 12 31  1  0  0  0
 13 14  2  0  0  0
 13 32  1  0  0  0
 14 15  1  0  0  0
 14 17  1  0  0  0
 15 16  2  0  0  0
 15 33  1  0  0  0
 16 34  1  0  0  0
 17 18  1  0  0  0
 17 19  2  0  0  0
 17 20  2  0  0  0
 18 35  1  0  0  0
 18 36  1  0  0  0
 21 22  1  0  0  0
 21 24  1  0  0  0
 22 25  1  0  0  0
 23 25  2  0  0  0
 23 24  1  0  0  0
 24 37  1  0  0  0
 25 26  1  0  0  0
M  END
> <s_m_entry_id>
32750

> <s_m_entry_name>
dock_pv.151

> <s_m_Source_Path>
/home/csk/Desktop/cluster/DUD-E-result/cdk2

> <s_m_Source_File>
dock_pv.maegz

> <i_m_Source_File_Index>
151

> <chembl_id>
CHEMBL269882

> <chembl_pref_name>
None

> <i_lp_mmshare_version>
53161

> <i_f3d_flags>
0

> <r_lp_tautomer_probability>
1

> <s_lp_Force_Field>
OPLS_2005

> <r_lp_Energy>
61.394376

> <b_lp_Chiralities_Consistent>
1

> <s_lp_Variant>
CHEMBL301_lig333-1

> <s_i_glide_gridfile>
glide-grid_1h00

> <i_i_glide_lignum>
512

> <i_i_glide_rotatable_bonds>
3

> <r_i_docking_score>
-7.93333725197641

> <r_i_glide_ligand_efficiency>
-0.305128355845247

> <r_i_glide_ligand_efficiency_sa>
-0.903941553569439

> <r_i_glide_ligand_efficiency_ln>
-1.86311822222392

> <r_i_glide_gscore>
-7.93333725197641

> <r_i_glide_lipo>
-2.13883190819088

> <r_i_glide_hbond>
-0.532602547195846

> <r_i_glide_metal>
0

> <r_i_glide_rewards>
-2.27732101681526

> <r_i_glide_evdw>
-39.6925621032715

> <r_i_glide_ecoul>
-8.06468868255615

> <r_i_glide_erotb>
0.255462471753203

> <r_i_glide_esite>
-0.0457128439806349

> <r_i_glide_emodel>
-69.2454288711392

> <r_i_glide_energy>
-47.7572507858276

> <r_i_glide_einternal>
3.12395334243774

> <i_i_glide_confnum>
1

> <i_i_glide_posenum>
35

> <r_i_glide_eff_state_penalty>
0

> <s_user_duplicate_titles>
CHEMBL301_lig333,440797,226107

> <s_m_subgroup_title>
dock_pv

> <s_m_subgroupid>
dock_pv

> <b_m_subgroup_collapsed>
1

$$$$
CHEMBL301_lig660
                    3D
 Schrodinger Suite 2021-1.
 52 54  0  0  1  0            999 V2000
    4.4582   26.7918    4.5952 C   0  0  0  0  0  0
    4.4593   27.7989    5.5568 C   0  0  0  0  0  0
    4.4734   27.4669    6.9173 C   0  0  0  0  0  0
    4.4878   26.1256    7.3132 C   0  0  0  0  0  0
    4.4712   25.1203    6.3495 C   0  0  0  0  0  0
    4.4586   25.4573    4.9965 C   0  0  0  0  0  0
    4.5057   28.5681    7.9665 C   0  0  0  0  0  0
    3.3519   29.4545    7.8352 N   0  0  0  0  0  0
    2.1714   29.2950    8.5762 C   0  0  0  0  0  0
    2.0425   28.2516    9.4389 N   0  0  0  0  0  0
    0.9126   28.1681   10.1739 C   0  0  0  0  0  0
   -0.1135   29.0405   10.1510 N   0  0  0  0  0  0
    1.1464   30.2480    8.4473 C   0  0  0  0  0  0
    0.0582   30.0475    9.3011 N   0  0  0  0  0  0
   -0.7420   31.1562    9.1684 C   0  0  0  0  0  0
   -0.1100   31.9129    8.1761 C   0  0  0  0  0  0
    0.9930   31.3737    7.7070 N   0  0  0  0  0  0
   -1.9838   31.3673   10.0267 C   0  0  0  0  0  0
   -3.1243   30.4225    9.6269 C   0  0  0  0  0  0
   -2.4415   32.8238    9.9907 C   0  0  0  0  0  0
    0.8306   27.0729   11.0382 N   0  0  0  0  0  0
   -0.3517   26.7378   11.8532 C   0  0  1  0  0  0
   -0.7089   27.8243   12.9018 C   0  0  0  0  0  0
   -1.5935   26.3423   11.0169 C   0  0  0  0  0  0
   -1.5419   27.2906   13.9186 O   0  0  0  0  0  0
   -1.3798   25.1808   10.0419 C   0  0  0  0  0  0
    4.4536   27.0409    3.5428 H   0  0  0  0  0  0
    4.4673   28.8356    5.2483 H   0  0  0  0  0  0
    4.5008   25.8652    8.3631 H   0  0  0  0  0  0
    4.4684   24.0812    6.6477 H   0  0  0  0  0  0
    4.4475   24.6767    4.2474 H   0  0  0  0  0  0
    5.4144   29.1547    7.8236 H   0  0  0  0  0  0
    4.5666   28.1432    8.9707 H   0  0  0  0  0  0
    3.4488   30.2723    7.2479 H   0  0  0  0  0  0
   -0.4521   32.8692    7.8057 H   0  0  0  0  0  0
   -1.7346   31.1425   11.0642 H   0  0  0  0  0  0
   -2.8311   29.3846    9.7597 H   0  0  0  0  0  0
   -3.4230   30.5632    8.5879 H   0  0  0  0  0  0
   -4.0020   30.5951   10.2490 H   0  0  0  0  0  0
   -1.6508   33.5093   10.2951 H   0  0  0  0  0  0
   -2.7416   33.0656    8.9756 H   0  0  0  0  0  0
   -3.2976   32.9931   10.6439 H   0  0  0  0  0  0
    1.6423   26.4753   11.0688 H   0  0  0  0  0  0
   -0.0392   25.8576   12.4173 H   0  0  0  0  0  0
    0.1927   28.2101   13.3754 H   0  0  0  0  0  0
   -1.2389   28.6668   12.4556 H   0  0  0  0  0  0
   -2.4179   26.0824   11.6812 H   0  0  0  0  0  0
   -1.9417   27.2106   10.4626 H   0  0  0  0  0  0
   -2.2564   27.9211   14.0907 H   0  0  0  0  0  0
   -2.2679   25.0459    9.4226 H   0  0  0  0  0  0
   -0.5406   25.3698    9.3751 H   0  0  0  0  0  0
   -1.1850   24.2523   10.5769 H   0  0  0  0  0  0
  1  6  1  0  0  0
  1  2  2  0  0  0
  1 27  1  0  0  0
  2  3  1  0  0  0
  2 28  1  0  0  0
  3  7  1  0  0  0
  3  4  2  0  0  0
  4  5  1  0  0  0
  4 29  1  0  0  0
  5  6  2  0  0  0
  5 30  1  0  0  0
  6 31  1  0  0  0
  7  8  1  0  0  0
  7 32  1  0  0  0
  7 33  1  0  0  0
  8  9  1  0  0  0
  8 34  1  0  0  0
  9 13  1  0  0  0
  9 10  2  0  0  0
 10 11  1  0  0  0
 11 21  1  0  0  0
 11 12  2  0  0  0
 12 14  1  0  0  0
 13 14  1  0  0  0
 13 17  2  0  0  0
 14 15  1  0  0  0
 15 16  2  0  0  0
 15 18  1  0  0  0
 16 17  1  0  0  0
 16 35  1  0  0  0
 18 19  1  0  0  0
 18 20  1  0  0  0
 18 36  1  0  0  0
 19 37  1  0  0  0
 19 38  1  0  0  0
 19 39  1  0  0  0
 20 40  1  0  0  0
 20 41  1  0  0  0
 20 42  1  0  0  0
 21 22  1  0  0  0
 21 43  1  0  0  0
 22 23  1  0  0  0
 22 24  1  0  0  0
 22 44  1  0  0  0
 23 25  1  0  0  0
 23 45  1  0  0  0
 23 46  1  0  0  0
 24 26  1  0  0  0
 24 47  1  0  0  0
 24 48  1  0  0  0
 25 49  1  0  0  0
 26 50  1  0  0  0
 26 51  1  0  0  0
 26 52  1  0  0  0
M  END
> <s_m_entry_id>
32751

> <s_m_entry_name>
dock_pv.152

> <s_m_Source_Path>
/home/csk/Desktop/cluster/DUD-E-result/cdk2

> <s_m_Source_File>
dock_pv.maegz

> <i_m_Source_File_Index>
152

> <chembl_id>
CHEMBL482211

> <chembl_pref_name>
None

> <i_lp_mmshare_version>
53161

> <i_f3d_flags>
0

> <r_lp_tautomer_probability>
1

> <s_lp_Force_Field>
OPLS_2005

> <r_lp_Energy>
17.116331

> <b_lp_Chiralities_Consistent>
1

> <s_lp_Variant>
CHEMBL301_lig660-1

> <s_i_glide_gridfile>
glide-grid_1h00

> <i_i_glide_lignum>
905

> <i_i_glide_rotatable_bonds>
9

> <r_i_docking_score>
-7.93250395418316

> <r_i_glide_ligand_efficiency>
-0.305096305930122

> <r_i_glide_ligand_efficiency_sa>
-0.903846605821991

> <r_i_glide_ligand_efficiency_ln>
-1.86292252497145

> <r_i_glide_gscore>
-7.93250395418316

> <r_i_glide_lipo>
-3.47523206117305

> <r_i_glide_hbond>
-0.371892785309326

> <r_i_glide_metal>
0

> <r_i_glide_rewards>
-2.19636864330097

> <r_i_glide_evdw>
-41.8592300415039

> <r_i_glide_ecoul>
-4.69381761550903

> <r_i_glide_erotb>
0.912594160958805

> <r_i_glide_esite>
-0.00457048095707042

> <r_i_glide_emodel>
-67.0443482646364

> <r_i_glide_energy>
-46.5530476570129

> <r_i_glide_einternal>
4.63517475128174

> <i_i_glide_confnum>
40

> <i_i_glide_posenum>
262

> <r_i_glide_eff_state_penalty>
0

> <s_user_duplicate_titles>
CHEMBL301_lig660,473758

> <s_m_subgroup_title>
dock_pv

> <s_m_subgroupid>
dock_pv

> <b_m_subgroup_collapsed>
1

$$$$
CHEMBL301_lig9
                    3D
 Schrodinger Suite 2021-1.
 55 57  0  0  1  0            999 V2000
    2.4561   27.6037    9.9189 N   0  0  0  0  0  0
    3.4356   27.8518    9.0332 C   0  0  0  0  0  0
    3.5002   28.8008    8.0889 N   0  0  0  0  0  0
    2.4352   29.6335    7.9610 C   0  0  0  0  0  0
    1.4247   28.4724    9.7760 C   0  0  0  0  0  0
    1.3372   29.4757    8.8328 C   0  0  0  0  0  0
    0.1724   30.1372    8.9210 N   0  0  0  0  0  0
   -0.4273   29.5802    9.9394 C   0  0  0  0  0  0
    0.2942   28.6016   10.5311 N   0  0  0  0  0  0
    2.4580   30.6087    6.9760 N   0  0  0  0  0  0
   -0.0512   27.7407   11.7268 C   0  0  2  0  0  0
   -0.1609   26.4028   11.3670 O   0  0  0  0  0  0
   -0.7257   25.6867   12.4572 C   0  0  1  0  0  0
   -1.7766   26.6836   12.9813 C   0  0  2  0  0  0
   -1.3645   28.0614   12.4332 C   0  0  1  0  0  0
   -1.9422   26.6520   14.3893 O   0  0  0  0  0  0
   -1.1420   29.1186   13.3518 O   0  0  0  0  0  0
   -1.3214   24.3545   11.9432 C   0  0  0  0  0  0
   -0.4306   23.2894   11.6088 O   0  0  0  0  0  0
    1.1096   23.4793   11.1027 P   0  0  1  0  0  0
    1.3710   22.1556   10.2136 O   0  0  0  0  0  0
    1.0065   24.6520    9.9939 O   0  0  0  0  0  0
    2.1075   23.7229   12.1760 O   0  0  0  0  0  0
    2.6172   21.4960    9.2719 P   0  0  1  0  0  0
    1.9315   20.6520    7.9614 O   0  0  0  0  0  0
    3.2580   22.9045    8.5760 O   0  0  0  0  0  0
    3.6428   20.7234   10.0697 O   0  0  0  0  0  0
    2.2586   20.3439    6.4075 P   0  0  1  0  0  0
    3.5088   21.3379    6.0779 O   0  0  0  0  0  0
    2.4579   18.9091    6.0719 O   0  0  0  0  0  0
    1.0211   21.0345    5.6235 O   0  0  0  0  0  0
    3.7157   21.9228    4.7955 C   0  0  0  0  0  0
    4.0535   20.9073    3.6814 C   0  0  0  0  0  0
    2.8579   20.2521    3.1878 N   0  0  0  0  0  0
    2.5381   20.5234    2.0292 N   0  3  0  0  0  0
    2.1253   20.6517    0.9760 N   0  5  0  0  0  0
    4.2957   27.2012    9.0963 H   0  0  0  0  0  0
   -1.3913   29.8825   10.3209 H   0  0  0  0  0  0
    1.7436   31.3194    7.0085 H   0  0  0  0  0  0
    3.3623   30.7927    6.5377 H   0  0  0  0  0  0
    0.7980   27.8373   12.4093 H   0  0  0  0  0  0
    0.0398   25.5036   13.2158 H   0  0  0  0  0  0
   -2.7435   26.4399   12.5348 H   0  0  0  0  0  0
   -2.1062   28.3606   11.6920 H   0  0  0  0  0  0
   -2.5908   27.3330   14.6100 H   0  0  0  0  0  0
   -2.0067   29.4220   13.6613 H   0  0  0  0  0  0
   -1.9419   24.5524   11.0677 H   0  0  0  0  0  0
   -1.9844   23.9506   12.7077 H   0  0  0  0  0  0
    0.7823   25.5284   10.3826 H   0  0  0  0  0  0
    2.6674   23.4520    8.0041 H   0  0  0  0  0  0
    1.2497   21.3967    4.7426 H   0  0  0  0  0  0
    4.5755   22.5817    4.9223 H   0  0  0  0  0  0
    2.8860   22.5756    4.5175 H   0  0  0  0  0  0
    4.7393   20.1545    4.0734 H   0  0  0  0  0  0
    4.6104   21.4176    2.8882 H   0  0  0  0  0  0
  1  2  2  0  0  0
  1  5  1  0  0  0
  2  3  1  0  0  0
  2 37  1  0  0  0
  3  4  2  0  0  0
  4  6  1  0  0  0
  4 10  1  0  0  0
  5  9  1  0  0  0
  5  6  2  0  0  0
  6  7  1  0  0  0
  7  8  2  0  0  0
  8  9  1  0  0  0
  8 38  1  0  0  0
  9 11  1  0  0  0
 10 39  1  0  0  0
 10 40  1  0  0  0
 11 12  1  0  0  0
 11 15  1  0  0  0
 11 41  1  0  0  0
 12 13  1  0  0  0
 13 18  1  0  0  0
 13 14  1  0  0  0
 13 42  1  0  0  0
 14 15  1  0  0  0
 14 16  1  0  0  0
 14 43  1  0  0  0
 15 17  1  0  0  0
 15 44  1  0  0  0
 16 45  1  0  0  0
 17 46  1  0  0  0
 18 19  1  0  0  0
 18 47  1  0  0  0
 18 48  1  0  0  0
 19 20  1  0  0  0
 20 21  1  0  0  0
 20 22  1  0  0  0
 20 23  2  0  0  0
 21 24  1  0  0  0
 22 49  1  0  0  0
 24 25  1  0  0  0
 24 26  1  0  0  0
 24 27  2  0  0  0
 25 28  1  0  0  0
 26 50  1  0  0  0
 28 29  1  0  0  0
 28 30  2  0  0  0
 28 31  1  0  0  0
 29 32  1  0  0  0
 31 51  1  0  0  0
 32 33  1  0  0  0
 32 52  1  0  0  0
 32 53  1  0  0  0
 33 34  1  0  0  0
 33 54  1  0  0  0
 33 55  1  0  0  0
 34 35  2  0  0  0
 35 36  2  0  0  0
M  CHG  2  35   1  36  -1
M  END
> <s_m_entry_id>
32752

> <s_m_entry_name>
dock_pv.153

> <s_m_Source_Path>
/home/csk/Desktop/cluster/DUD-E-result/cdk2

> <s_m_Source_File>
dock_pv.maegz

> <i_m_Source_File_Index>
153

> <chembl_id>
CHEMBL564435

> <chembl_pref_name>
None

> <i_lp_mmshare_version>
53161

> <i_f3d_flags>
0

> <r_lp_tautomer_probability>
0.999997216410988

> <s_lp_Force_Field>
OPLS_2005

> <r_lp_Energy>
21.628305

> <b_lp_Chiralities_Consistent>
1

> <s_lp_Variant>
CHEMBL301_lig9-8

> <s_i_glide_gridfile>
glide-grid_1h00

> <i_i_glide_lignum>
31

> <i_i_glide_rotatable_bonds>
17

> <r_i_docking_score>
-7.9264041917297

> <r_i_glide_ligand_efficiency>
-0.220177894214714

> <r_i_glide_ligand_efficiency_sa>
-0.727011387643383

> <r_i_glide_ligand_efficiency_ln>
-1.72932724794186

> <r_i_glide_gscore>
-7.9264041917297

> <r_i_glide_lipo>
-0.714608877394531

> <r_i_glide_hbond>
-0.355888510841507

> <r_i_glide_metal>
0

> <r_i_glide_rewards>
-1.13042965668695

> <r_i_glide_evdw>
-42.2778663635254

> <r_i_glide_ecoul>
-26.6133556365967

> <r_i_glide_erotb>
0.658582282973751

> <r_i_glide_esite>
-0.278162766114693

> <r_i_glide_emodel>
-96.3644481590183

> <r_i_glide_energy>
-68.8912220001221

> <r_i_glide_einternal>
17.9477920532227

> <i_i_glide_confnum>
14

> <i_i_glide_posenum>
106

> <r_i_glide_eff_state_penalty>
0

> <s_user_duplicate_titles>
CHEMBL301_lig9

> <s_m_subgroup_title>
dock_pv

> <s_m_subgroupid>
dock_pv

> <b_m_subgroup_collapsed>
1

$$$$
CHEMBL301_lig12
                    3D
 Schrodinger Suite 2021-1.
 55 57  0  0  1  0            999 V2000
    2.2661   28.2512    9.4978 N   0  0  0  0  0  0
    3.1991   28.5344    8.5770 C   0  0  0  0  0  0
    3.1722   29.4651    7.6172 N   0  0  0  0  0  0
    2.0682   30.2518    7.5264 C   0  0  0  0  0  0
    1.1806   29.0558    9.3756 C   0  0  0  0  0  0
    1.0064   30.0458    8.4299 C   0  0  0  0  0  0
   -0.1823   30.6546    8.5638 N   0  0  0  0  0  0
   -0.7287   30.0534    9.5877 C   0  0  0  0  0  0
    0.0572   29.1053   10.1460 N   0  0  0  0  0  0
    2.0580   31.2593    6.5756 N   0  0  0  0  0  0
   -0.2083   28.1873   11.3140 C   0  0  2  0  0  0
   -0.3328   26.8709   10.8970 O   0  0  0  0  0  0
   -0.7772   26.1178   12.0080 C   0  0  1  0  0  0
   -1.8360   27.0488   12.6223 C   0  0  2  0  0  0
   -1.4644   28.4608   12.1304 C   0  0  1  0  0  0
   -1.9424   26.9519   14.0322 O   0  0  0  0  0  0
   -1.1421   29.4514   13.0876 O   0  0  0  0  0  0
   -1.2737   24.7657   11.4746 C   0  0  0  0  0  0
   -1.5423   23.9066   12.5678 O   0  0  0  0  0  0
   -0.5185   22.7099   12.9767 P   0  0  1  0  0  0
   -0.4772   21.7827   11.6544 O   0  0  0  0  0  0
    0.9328   23.4286   12.9501 O   0  0  0  0  0  0
   -0.8467   22.0058   14.2440 O   0  0  0  0  0  0
    0.3985   20.4301   11.1110 P   0  0  2  0  0  0
    1.1946   20.9637    9.7138 O   0  0  0  0  0  0
   -0.7420   19.2902   10.5760 O   0  0  0  0  0  0
    1.3491   19.9059   12.1592 O   0  0  0  0  0  0
    2.6982   21.3314    9.2742 P   0  0  2  0  0  0
    2.6883   21.0511    7.6074 N   0  0  1  0  0  0
    3.7573   20.6591   10.0704 O   0  0  0  0  0  0
    2.6937   22.9472    9.3760 O   0  0  0  0  0  0
    2.8721   19.7140    7.0517 C   0  0  0  0  0  0
    3.2236   19.6511    5.5728 C   0  0  0  0  0  0
    3.2456   20.6782    4.7040 C   0  0  0  0  0  0
    4.0966   27.9340    8.6212 H   0  0  0  0  0  0
   -1.7023   30.2913    9.9897 H   0  0  0  0  0  0
    1.3725   31.9905    6.6908 H   0  0  0  0  0  0
    2.9700   31.4221    6.1507 H   0  0  0  0  0  0
    0.6889   28.2504   11.9411 H   0  0  0  0  0  0
    0.0666   25.9790   12.6891 H   0  0  0  0  0  0
   -2.8097   26.7989   12.1958 H   0  0  0  0  0  0
   -2.2592   28.8135   11.4726 H   0  0  0  0  0  0
   -2.5976   27.6105   14.3076 H   0  0  0  0  0  0
   -1.9732   29.7877   13.4444 H   0  0  0  0  0  0
   -0.5397   24.3287   10.7952 H   0  0  0  0  0  0
   -2.1860   24.9031   10.8927 H   0  0  0  0  0  0
    1.1565   23.8842   12.1177 H   0  0  0  0  0  0
   -1.2613   18.7685   11.2462 H   0  0  0  0  0  0
    2.0819   21.6612    7.0547 H   0  0  0  0  0  0
    2.1361   23.3865    8.6962 H   0  0  0  0  0  0
    1.9658   19.1323    7.2268 H   0  0  0  0  0  0
    3.6745   19.2211    7.6041 H   0  0  0  0  0  0
    3.4864   18.6687    5.2090 H   0  0  0  0  0  0
    2.9945   21.6859    5.0019 H   0  0  0  0  0  0
    3.5195   20.5270    3.6700 H   0  0  0  0  0  0
  1  2  2  0  0  0
  1  5  1  0  0  0
  2  3  1  0  0  0
  2 35  1  0  0  0
  3  4  2  0  0  0
  4  6  1  0  0  0
  4 10  1  0  0  0
  5  9  1  0  0  0
  5  6  2  0  0  0
  6  7  1  0  0  0
  7  8  2  0  0  0
  8  9  1  0  0  0
  8 36  1  0  0  0
  9 11  1  0  0  0
 10 37  1  0  0  0
 10 38  1  0  0  0
 11 12  1  0  0  0
 11 15  1  0  0  0
 11 39  1  0  0  0
 12 13  1  0  0  0
 13 18  1  0  0  0
 13 14  1  0  0  0
 13 40  1  0  0  0
 14 16  1  0  0  0
 14 15  1  0  0  0
 14 41  1  0  0  0
 15 17  1  0  0  0
 15 42  1  0  0  0
 16 43  1  0  0  0
 17 44  1  0  0  0
 18 19  1  0  0  0
 18 45  1  0  0  0
 18 46  1  0  0  0
 19 20  1  0  0  0
 20 21  1  0  0  0
 20 22  1  0  0  0
 20 23  2  0  0  0
 21 24  1  0  0  0
 22 47  1  0  0  0
 24 25  1  0  0  0
 24 26  1  0  0  0
 24 27  2  0  0  0
 25 28  1  0  0  0
 26 48  1  0  0  0
 28 29  1  0  0  0
 28 30  2  0  0  0
 28 31  1  0  0  0
 29 32  1  0  0  0
 29 49  1  0  0  0
 31 50  1  0  0  0
 32 33  1  0  0  0
 32 51  1  0  0  0
 32 52  1  0  0  0
 33 34  2  0  0  0
 33 53  1  0  0  0
 34 54  1  0  0  0
 34 55  1  0  0  0
M  END
> <s_m_entry_id>
32753

> <s_m_entry_name>
dock_pv.154

> <s_m_Source_Path>
/home/csk/Desktop/cluster/DUD-E-result/cdk2

> <s_m_Source_File>
dock_pv.maegz

> <i_m_Source_File_Index>
154

> <chembl_id>
CHEMBL560604

> <chembl_pref_name>
None

> <i_lp_mmshare_version>
53161

> <i_f3d_flags>
0

> <r_lp_tautomer_probability>
0.999997216410988

> <s_lp_Force_Field>
OPLS_2005

> <r_lp_Energy>
26.69204

> <b_lp_Chiralities_Consistent>
1

> <s_lp_Variant>
CHEMBL301_lig12-6

> <s_i_glide_gridfile>
glide-grid_1h00

> <i_i_glide_lignum>
53

> <i_i_glide_rotatable_bonds>
16

> <r_i_docking_score>
-7.92566118890834

> <r_i_glide_ligand_efficiency>
-0.233107682026716

> <r_i_glide_ligand_efficiency_sa>
-0.755178396774511

> <r_i_glide_ligand_efficiency_ln>
-1.75100086389615

> <r_i_glide_gscore>
-7.92566118890834

> <r_i_glide_lipo>
-0.526835466834698

> <r_i_glide_hbond>
-0.868206983692267

> <r_i_glide_metal>
0

> <r_i_glide_rewards>
-1.48066900285014

> <r_i_glide_evdw>
-40.8372688293457

> <r_i_glide_ecoul>
-24.148136138916

> <r_i_glide_erotb>
0.763399580262734

> <r_i_glide_esite>
-0.149265453489288

> <r_i_glide_emodel>
-93.872735044104

> <r_i_glide_energy>
-64.9854049682617

> <r_i_glide_einternal>
14.5565376281738

> <i_i_glide_confnum>
325

> <i_i_glide_posenum>
264

> <r_i_glide_eff_state_penalty>
0

> <s_user_duplicate_titles>
CHEMBL301_lig12

> <s_m_subgroup_title>
dock_pv

> <s_m_subgroupid>
dock_pv

> <b_m_subgroup_collapsed>
1

$$$$
CHEMBL301_lig1433
                    3D
 Schrodinger Suite 2021-1.
 58 62  0  0  1  0            999 V2000
    5.2522   20.7069    6.7921 C   0  0  0  0  0  0
    6.3825   21.7238    6.9698 C   0  0  0  0  0  0
    7.2704   21.4520    7.7762 O   0  0  0  0  0  0
    6.4155   22.8297    6.1839 N   0  0  0  0  0  0
    7.4756   23.8470    6.3365 C   0  0  0  0  0  0
    6.8343   25.0947    6.9936 C   0  0  0  0  0  0
    5.6009   25.5908    6.1902 C   0  0  0  0  0  0
    4.6030   24.4228    5.9711 C   0  0  0  0  0  0
    5.2987   23.2203    5.3052 C   0  0  0  0  0  0
    4.9046   26.6916    6.8858 N   0  0  0  0  0  0
    4.5675   26.5489    8.1759 N   0  0  0  0  0  0
    3.9778   27.6697    8.5055 C   0  0  0  0  0  0
    3.8355   28.5450    7.4274 C   0  0  0  0  0  0
    4.4586   27.8932    6.3628 C   0  0  0  0  0  0
    3.2580   29.7874    7.3761 N   0  0  0  0  0  0
    2.0280   30.2348    7.8527 C   0  0  0  0  0  0
    1.3224   29.4979    8.7514 N   0  0  0  0  0  0
    0.1117   29.9760    9.1595 C   0  0  0  0  0  0
   -0.3724   31.2052    8.6557 C   0  0  0  0  0  0
    0.4564   31.9081    7.7760 C   0  0  0  0  0  0
    1.6445   31.4286    7.3459 N   0  0  0  0  0  0
   -1.9061   31.8973    9.0532 Cl  0  0  0  0  0  0
   -0.5852   29.0745   10.1487 C   0  0  0  0  0  0
   -0.2305   27.7397   10.5345 C   0  0  0  0  0  0
   -1.2258   27.3437   11.4465 N   0  0  0  0  0  0
   -2.1207   28.3163   11.6743 N   0  0  0  0  0  0
   -1.7228   29.3245   10.9333 C   0  0  0  0  0  0
   -1.2720   26.1065   12.0322 C   0  0  0  0  0  0
   -0.2753   25.1837   11.7289 C   0  0  0  0  0  0
    0.7446   25.5329   10.8471 C   0  0  0  0  0  0
    0.7781   26.7959   10.2501 C   0  0  0  0  0  0
    4.6320   28.3518    4.9170 C   0  0  0  0  0  0
    4.1890   27.3535    3.8311 C   0  0  0  0  0  0
    5.2496   20.3111    5.7768 H   0  0  0  0  0  0
    4.2853   21.1652    6.9999 H   0  0  0  0  0  0
    5.3805   19.8687    7.4772 H   0  0  0  0  0  0
    8.3637   23.4733    6.8498 H   0  0  0  0  0  0
    7.8200   24.0950    5.3313 H   0  0  0  0  0  0
    6.6151   24.9307    8.0498 H   0  0  0  0  0  0
    7.5937   25.8779    6.9803 H   0  0  0  0  0  0
    5.9417   26.0177    5.2495 H   0  0  0  0  0  0
    3.8216   24.7271    5.2784 H   0  0  0  0  0  0
    4.0772   24.1431    6.8862 H   0  0  0  0  0  0
    5.7414   23.5310    4.3568 H   0  0  0  0  0  0
    4.6324   22.4048    5.0232 H   0  0  0  0  0  0
    3.6496   27.8534    9.5172 H   0  0  0  0  0  0
    3.6643   30.4624    6.7306 H   0  0  0  0  0  0
    0.1649   32.8757    7.3925 H   0  0  0  0  0  0
   -2.2889   30.2420   10.9752 H   0  0  0  0  0  0
   -2.0932   25.9135   12.7078 H   0  0  0  0  0  0
   -0.2877   24.2021   12.1800 H   0  0  0  0  0  0
    1.5224   24.8177   10.6180 H   0  0  0  0  0  0
    1.5790   27.0421    9.5738 H   0  0  0  0  0  0
    4.0584   29.2679    4.7911 H   0  0  0  0  0  0
    5.6579   28.6462    4.7206 H   0  0  0  0  0  0
    3.6577   27.8519    3.0207 H   0  0  0  0  0  0
    5.0423   26.8468    3.3792 H   0  0  0  0  0  0
    3.5349   26.5847    4.2282 H   0  0  0  0  0  0
  1  2  1  0  0  0
  1 34  1  0  0  0
  1 35  1  0  0  0
  1 36  1  0  0  0
  2  3  2  0  0  0
  2  4  1  0  0  0
  4  5  1  0  0  0
  4  9  1  0  0  0
  5  6  1  0  0  0
  5 37  1  0  0  0
  5 38  1  0  0  0
  6  7  1  0  0  0
  6 39  1  0  0  0
  6 40  1  0  0  0
  7  8  1  0  0  0
  7 10  1  0  0  0
  7 41  1  0  0  0
  8  9  1  0  0  0
  8 42  1  0  0  0
  8 43  1  0  0  0
  9 44  1  0  0  0
  9 45  1  0  0  0
 10 11  1  0  0  0
 10 14  1  0  0  0
 11 12  2  0  0  0
 12 13  1  0  0  0
 12 46  1  0  0  0
 13 14  2  0  0  0
 13 15  1  0  0  0
 14 32  1  0  0  0
 15 16  1  0  0  0
 15 47  1  0  0  0
 16 17  2  0  0  0
 16 21  1  0  0  0
 17 18  1  0  0  0
 18 19  2  0  0  0
 18 23  1  0  0  0
 19 20  1  0  0  0
 19 22  1  0  0  0
 20 21  2  0  0  0
 20 48  1  0  0  0
 23 24  2  0  0  0
 23 27  1  0  0  0
 24 25  1  0  0  0
 24 31  1  0  0  0
 25 26  1  0  0  0
 25 28  1  0  0  0
 26 27  2  0  0  0
 27 49  1  0  0  0
 28 29  2  0  0  0
 28 50  1  0  0  0
 29 30  1  0  0  0
 29 51  1  0  0  0
 30 31  2  0  0  0
 30 52  1  0  0  0
 31 53  1  0  0  0
 32 33  1  0  0  0
 32 54  1  0  0  0
 32 55  1  0  0  0
 33 56  1  0  0  0
 33 57  1  0  0  0
 33 58  1  0  0  0
M  END
> <s_m_entry_id>
32754

> <s_m_entry_name>
dock_pv.155

> <s_m_Source_Path>
/home/csk/Desktop/cluster/DUD-E-result/cdk2

> <s_m_Source_File>
dock_pv.maegz

> <i_m_Source_File_Index>
155

> <chembl_id>
CHEMBL3822962

> <chembl_pref_name>
None

> <i_lp_mmshare_version>
53161

> <i_f3d_flags>
0

> <r_lp_tautomer_probability>
0.999999987636

> <s_lp_Force_Field>
OPLS_2005

> <r_lp_Energy>
34.618539

> <b_lp_Chiralities_Consistent>
1

> <s_lp_Variant>
CHEMBL301_lig1433-1

> <s_i_glide_gridfile>
glide-grid_1h00

> <i_i_glide_lignum>
1945

> <i_i_glide_rotatable_bonds>
6

> <r_i_docking_score>
-7.91404299665147

> <r_i_glide_ligand_efficiency>
-0.239819484747014

> <r_i_glide_ligand_efficiency_sa>
-0.76922922943142

> <r_i_glide_ligand_efficiency_ln>
-1.76004218573368

> <r_i_glide_gscore>
-7.91404299665147

> <r_i_glide_lipo>
-3.06878473071139

> <r_i_glide_hbond>
-0.32

> <r_i_glide_metal>
0

> <r_i_glide_rewards>
-1.79282262003699

> <r_i_glide_evdw>
-42.7177505493164

> <r_i_glide_ecoul>
-6.44045639038086

> <r_i_glide_erotb>
0.373086298369562

> <r_i_glide_esite>
-0.00356595824969451

> <r_i_glide_emodel>
-67.5116633178876

> <r_i_glide_energy>
-49.1582069396973

> <r_i_glide_einternal>
6.49489259719849

> <i_i_glide_confnum>
3

> <i_i_glide_posenum>
217

> <r_i_glide_eff_state_penalty>
0

> <s_user_duplicate_titles>
CHEMBL301_lig1433

> <s_m_subgroup_title>
dock_pv

> <s_m_subgroupid>
dock_pv

> <b_m_subgroup_collapsed>
1

$$$$
CHEMBL301_lig1324
                    3D
 Schrodinger Suite 2021-1.
 43 44  0  0  1  0            999 V2000
    0.8179   25.5098   11.4888 C   0  0  0  0  0  0
   -0.1796   26.6741   11.6389 C   0  0  0  0  0  0
   -1.6308   26.1523   11.6227 C   0  0  0  0  0  0
    0.0579   27.2418   12.9103 O   0  0  0  0  0  0
    0.0675   27.7492   10.5546 C   0  0  0  0  0  0
   -1.0008   29.2322   10.5360 S   0  0  0  0  0  0
   -0.3356   30.3177    9.3014 C   0  0  0  0  0  0
    0.7156   29.8521    8.5771 N   0  0  0  0  0  0
    1.2841   30.6894    7.6754 C   0  0  0  0  0  0
    2.3945   30.2519    6.9361 N   0  0  0  0  0  0
    3.2549   29.1481    7.0766 C   0  0  0  0  0  0
    3.5077   28.5689    8.3180 C   0  0  0  0  0  0
    4.3803   27.4941    8.4121 C   0  0  0  0  0  0
    5.0348   27.0058    7.2796 C   0  0  0  0  0  0
    4.7918   27.5887    6.0365 C   0  0  0  0  0  0
    3.8992   28.6521    5.9394 C   0  0  0  0  0  0
    6.1450   25.6022    7.4222 S   0  0  1  0  0  0
    7.0710   25.9872    8.5760 N   0  0  0  0  0  0
    5.3579   24.3668    7.3760 O   0  0  0  0  0  0
    7.3335   25.6663    5.9658 C   0  0  0  0  0  0
    0.8611   31.9569    7.4293 N   0  0  0  0  0  0
   -0.1785   32.4131    8.1760 C   0  0  0  0  0  0
   -0.8264   31.6203    9.1263 C   0  0  0  0  0  0
   -2.2809   32.3342   10.1349 Br  0  0  0  0  0  0
    0.6933   25.0031   10.5304 H   0  0  0  0  0  0
    0.6847   24.7633   12.2733 H   0  0  0  0  0  0
    1.8523   25.8544   11.5429 H   0  0  0  0  0  0
   -1.8881   25.7166   10.6559 H   0  0  0  0  0  0
   -1.7899   25.3848   12.3817 H   0  0  0  0  0  0
   -2.3476   26.9491   11.8243 H   0  0  0  0  0  0
    1.0004   27.4519   12.9821 H   0  0  0  0  0  0
    1.0994   28.0956   10.6313 H   0  0  0  0  0  0
   -0.0193   27.2894    9.5698 H   0  0  0  0  0  0
    2.7638   30.9526    6.3082 H   0  0  0  0  0  0
    3.0398   28.9456    9.2143 H   0  0  0  0  0  0
    4.5397   27.0520    9.3760 H   0  0  0  0  0  0
    5.2826   27.2284    5.1450 H   0  0  0  0  0  0
    3.7242   29.1053    4.9760 H   0  0  0  0  0  0
    6.5774   25.9723    9.4705 H   0  0  0  0  0  0
    7.7958   26.6520    5.9274 H   0  0  0  0  0  0
    8.0987   24.9061    6.1129 H   0  0  0  0  0  0
    6.7876   25.4642    5.0455 H   0  0  0  0  0  0
   -0.4900   33.4328    7.9947 H   0  0  0  0  0  0
  1  2  1  0  0  0
  1 25  1  0  0  0
  1 26  1  0  0  0
  1 27  1  0  0  0
  2  3  1  0  0  0
  2  4  1  0  0  0
  2  5  1  0  0  0
  3 28  1  0  0  0
  3 29  1  0  0  0
  3 30  1  0  0  0
  4 31  1  0  0  0
  5  6  1  0  0  0
  5 32  1  0  0  0
  5 33  1  0  0  0
  6  7  1  0  0  0
  7  8  2  0  0  0
  7 23  1  0  0  0
  8  9  1  0  0  0
  9 10  1  0  0  0
  9 21  2  0  0  0
 10 11  1  0  0  0
 10 34  1  0  0  0
 11 12  2  0  0  0
 11 16  1  0  0  0
 12 13  1  0  0  0
 12 35  1  0  0  0
 13 14  2  0  0  0
 13 36  1  0  0  0
 14 15  1  0  0  0
 14 17  1  0  0  0
 15 16  2  0  0  0
 15 37  1  0  0  0
 16 38  1  0  0  0
 17 18  2  0  0  0
 17 19  2  0  0  0
 17 20  1  0  0  0
 18 39  1  0  0  0
 20 40  1  0  0  0
 20 41  1  0  0  0
 20 42  1  0  0  0
 21 22  1  0  0  0
 22 23  2  0  0  0
 22 43  1  0  0  0
 23 24  1  0  0  0
M  END
> <s_m_entry_id>
32755

> <s_m_entry_name>
dock_pv.156

> <s_m_Source_Path>
/home/csk/Desktop/cluster/DUD-E-result/cdk2

> <s_m_Source_File>
dock_pv.maegz

> <i_m_Source_File_Index>
156

> <chembl_id>
CHEMBL3648128

> <chembl_pref_name>
None

> <i_lp_mmshare_version>
53161

> <i_f3d_flags>
0

> <r_lp_tautomer_probability>
0.999999987636

> <s_lp_Force_Field>
OPLS_2005

> <r_lp_Energy>
2.202254

> <b_lp_Chiralities_Consistent>
1

> <s_lp_Variant>
CHEMBL301_lig1324-2

> <s_i_glide_gridfile>
glide-grid_1h00

> <i_i_glide_lignum>
1745

> <i_i_glide_rotatable_bonds>
7

> <r_i_docking_score>
-7.91351058926889

> <r_i_glide_ligand_efficiency>
-0.329729607886204

> <r_i_glide_ligand_efficiency_sa>
-0.951104769575461

> <r_i_glide_ligand_efficiency_ln>
-1.89406621135129

> <r_i_glide_gscore>
-7.91351058926889

> <r_i_glide_lipo>
-2.58802653284872

> <r_i_glide_hbond>
-0.613765896597481

> <r_i_glide_metal>
0

> <r_i_glide_rewards>
-1.45035856163664

> <r_i_glide_evdw>
-38.2950706481934

> <r_i_glide_ecoul>
-12.5401821136475

> <r_i_glide_erotb>
0.534421251270742

> <r_i_glide_esite>
0

> <r_i_glide_emodel>
-72.2862912616326

> <r_i_glide_energy>
-50.8352527618408

> <r_i_glide_einternal>
5.49790334701538

> <i_i_glide_confnum>
29

> <i_i_glide_posenum>
252

> <r_i_glide_eff_state_penalty>
0

> <s_user_duplicate_titles>
CHEMBL301_lig1324

> <s_m_subgroup_title>
dock_pv

> <s_m_subgroupid>
dock_pv

> <b_m_subgroup_collapsed>
1

$$$$
CHEMBL301_lig349
                    3D
 Schrodinger Suite 2021-1.
 68 71  0  0  1  0            999 V2000
    1.2392   30.3365    8.1991 C   0  0  0  0  0  0
    0.0154   30.4057    8.9770 C   0  0  0  0  0  0
    6.9227   24.8068    6.0975 S   0  0  0  0  0  0
    1.2578   31.5320    7.3760 C   0  0  0  0  0  0
    0.2105   32.2701    7.7760 N   0  0  0  0  0  0
   -0.5866   31.6099    8.6878 C   0  0  0  0  0  0
    2.2029   29.3980    8.1682 C   0  0  0  0  0  0
   -0.6025   29.5569    9.9043 C   0  0  0  0  0  0
   -2.3419   29.0243   11.3759 N   0  0  0  0  0  0
   -0.1143   27.9811   10.5295 S   0  0  0  0  0  0
   -1.5646   27.9877   11.4929 C   0  0  0  0  0  0
    5.7917   26.1361    6.4726 C   0  0  0  0  0  0
   -1.8356   29.9335   10.5030 C   0  0  0  0  0  0
    7.0762   24.7407    4.6402 O   0  0  0  0  0  0
    8.0817   24.9915    6.9761 O   0  0  0  0  0  0
    6.0952   23.3481    6.6180 N   0  0  2  0  0  0
    3.3226   29.3745    7.3761 N   0  0  0  0  0  0
    2.0580   31.8522    6.5045 O   0  0  0  0  0  0
   -1.7909   32.0062    9.2669 C   0  0  0  0  0  0
   -2.4362   31.1627   10.1761 C   0  0  0  0  0  0
    5.3171   26.2814    7.7757 C   0  0  0  0  0  0
    5.4222   27.0433    5.4791 C   0  0  0  0  0  0
    4.1337   28.2723    7.1035 C   0  0  0  0  0  0
    4.8862   22.9184    5.8900 C   0  0  0  0  0  0
    4.6068   28.1222    5.8013 C   0  0  0  0  0  0
    4.4770   27.3446    8.0900 C   0  0  0  0  0  0
    3.7130   21.9541    7.7786 O   0  0  0  0  0  0
    1.6572   20.2317   15.7758 O   0  0  0  0  0  0
    1.3731   21.0514   12.9266 O   0  0  0  0  0  0
    2.8583   21.4528   10.5900 O   0  0  0  0  0  0
    4.2367   21.6623    6.4867 C   0  0  0  0  0  0
    0.5113   19.9381   14.9765 C   0  0  0  0  0  0
    1.5044   19.9612   12.0202 C   0  0  0  0  0  0
    2.0047   21.6550    9.4674 C   0  0  0  0  0  0
    0.2855   20.9570   13.8395 C   0  0  0  0  0  0
    2.6223   21.1216    8.1636 C   0  0  0  0  0  0
    2.7921   20.1626   11.1997 C   0  0  0  0  0  0
    2.9052   19.8108   15.2400 C   0  0  0  0  0  0
    0.0239   33.1889    7.3983 H   0  0  0  0  0  0
    2.1367   28.5334    8.8101 H   0  0  0  0  0  0
   -1.7941   27.1660   12.1560 H   0  0  0  0  0  0
    6.1235   23.1427    7.6183 H   0  0  0  0  0  0
    3.4151   30.1184    6.6899 H   0  0  0  0  0  0
   -2.2354   32.9596    9.0201 H   0  0  0  0  0  0
   -3.3673   31.4561   10.6407 H   0  0  0  0  0  0
    5.6111   25.5893    8.5528 H   0  0  0  0  0  0
    5.8003   26.9419    4.4717 H   0  0  0  0  0  0
    4.1773   23.7334    5.7356 H   0  0  0  0  0  0
    5.2216   22.6608    4.8839 H   0  0  0  0  0  0
    4.3515   28.8409    5.0354 H   0  0  0  0  0  0
    4.1319   27.4587    9.1085 H   0  0  0  0  0  0
    3.4547   21.3371    5.7964 H   0  0  0  0  0  0
    4.9506   20.8387    6.5500 H   0  0  0  0  0  0
   -0.3547   19.9746   15.6371 H   0  0  0  0  0  0
    0.5388   18.9140   14.6018 H   0  0  0  0  0  0
    0.6286   19.9030   11.3737 H   0  0  0  0  0  0
    1.5700   19.0095   12.5486 H   0  0  0  0  0  0
    1.8624   22.7326    9.3759 H   0  0  0  0  0  0
    1.0069   21.2442    9.6242 H   0  0  0  0  0  0
    0.1507   21.9443   14.2825 H   0  0  0  0  0  0
   -0.6398   20.7370   13.3034 H   0  0  0  0  0  0
    1.8490   21.1045    7.3924 H   0  0  0  0  0  0
    2.9693   20.0953    8.2876 H   0  0  0  0  0  0
    2.9116   19.3669   10.4638 H   0  0  0  0  0  0
    3.6475   20.0793   11.8711 H   0  0  0  0  0  0
    3.6581   19.8533   16.0248 H   0  0  0  0  0  0
    2.8723   18.7825   14.8751 H   0  0  0  0  0  0
    3.2449   20.4614   14.4346 H   0  0  0  0  0  0
  1  2  1  0  0  0
  1  4  1  0  0  0
  1  7  2  0  0  0
  2  6  2  0  0  0
  2  8  1  0  0  0
  3 12  1  0  0  0
  3 14  2  0  0  0
  3 15  2  0  0  0
  3 16  1  0  0  0
  4  5  1  0  0  0
  4 18  2  0  0  0
  5  6  1  0  0  0
  5 39  1  0  0  0
  6 19  1  0  0  0
  7 17  1  0  0  0
  7 40  1  0  0  0
  8 10  1  0  0  0
  8 13  2  0  0  0
  9 13  1  0  0  0
  9 11  2  0  0  0
 10 11  1  0  0  0
 11 41  1  0  0  0
 12 21  2  0  0  0
 12 22  1  0  0  0
 13 20  1  0  0  0
 16 24  1  0  0  0
 16 42  1  0  0  0
 17 23  1  0  0  0
 17 43  1  0  0  0
 19 20  2  0  0  0
 19 44  1  0  0  0
 20 45  1  0  0  0
 21 26  1  0  0  0
 21 46  1  0  0  0
 22 25  2  0  0  0
 22 47  1  0  0  0
 23 25  1  0  0  0
 23 26  2  0  0  0
 24 31  1  0  0  0
 24 48  1  0  0  0
 24 49  1  0  0  0
 25 50  1  0  0  0
 26 51  1  0  0  0
 27 31  1  0  0  0
 27 36  1  0  0  0
 28 32  1  0  0  0
 28 38  1  0  0  0
 29 33  1  0  0  0
 29 35  1  0  0  0
 30 34  1  0  0  0
 30 37  1  0  0  0
 31 52  1  0  0  0
 31 53  1  0  0  0
 32 35  1  0  0  0
 32 54  1  0  0  0
 32 55  1  0  0  0
 33 37  1  0  0  0
 33 56  1  0  0  0
 33 57  1  0  0  0
 34 36  1  0  0  0
 34 58  1  0  0  0
 34 59  1  0  0  0
 35 60  1  0  0  0
 35 61  1  0  0  0
 36 62  1  0  0  0
 36 63  1  0  0  0
 37 64  1  0  0  0
 37 65  1  0  0  0
 38 66  1  0  0  0
 38 67  1  0  0  0
 38 68  1  0  0  0
M  END
> <s_m_entry_id>
32756

> <s_m_entry_name>
dock_pv.157

> <s_m_Source_Path>
/home/csk/Desktop/cluster/DUD-E-result/cdk2

> <s_m_Source_File>
dock_pv.maegz

> <i_m_Source_File_Index>
157

> <chembl_id>
CHEMBL1964250

> <chembl_pref_name>
None

> <i_lp_mmshare_version>
53161

> <i_f3d_flags>
0

> <r_lp_tautomer_probability>
0.499999999999422

> <s_lp_Force_Field>
OPLS_2005

> <r_lp_Energy>
43.362805

> <b_lp_Chiralities_Consistent>
1

> <s_lp_Variant>
CHEMBL301_lig349-1

> <s_i_glide_gridfile>
glide-grid_1h00

> <i_i_glide_lignum>
529

> <i_i_glide_rotatable_bonds>
16

> <r_i_docking_score>
-7.9111128481656

> <r_i_glide_ligand_efficiency>
-0.208187180214884

> <r_i_glide_ligand_efficiency_sa>
-0.699920179044591

> <r_i_glide_ligand_efficiency_ln>
-1.70586865142627

> <r_i_glide_gscore>
-7.9111128481656

> <r_i_glide_lipo>
-2.56671491498313

> <r_i_glide_hbond>
-0.996051058296598

> <r_i_glide_metal>
0

> <r_i_glide_rewards>
-0.558059860748517

> <r_i_glide_evdw>
-47.159236907959

> <r_i_glide_ecoul>
-13.718240737915

> <r_i_glide_erotb>
0.63230748501362

> <r_i_glide_esite>
-0.00689654306577744

> <r_i_glide_emodel>
-82.2534488002261

> <r_i_glide_energy>
-60.877477645874

> <r_i_glide_einternal>
11.37353515625

> <i_i_glide_confnum>
121

> <i_i_glide_posenum>
231

> <r_i_glide_eff_state_penalty>
0

> <s_user_duplicate_titles>
CHEMBL301_lig349

> <s_m_subgroup_title>
dock_pv

> <s_m_subgroupid>
dock_pv

> <b_m_subgroup_collapsed>
1

$$$$
CHEMBL301_lig670
                    3D
 Schrodinger Suite 2021-1.
 30 32  0  0  1  0            999 V2000
    0.3500   30.5761    8.3337 C   0  0  0  0  0  0
   -0.3436   31.7548    8.5376 C   0  0  0  0  0  0
    0.3526   32.6589    7.7764 N   0  0  0  0  0  0
    1.3899   32.1412    7.1116 N   0  0  0  0  0  0
    1.4348   30.8891    7.4978 C   0  0  0  0  0  0
    2.4581   30.0720    7.0715 N   0  0  0  0  0  0
    2.9993   29.0803    7.8116 C   0  0  0  0  0  0
    4.0582   28.2511    7.1286 C   0  0  0  0  0  0
    2.6777   28.8272    8.9757 O   0  0  0  0  0  0
   -1.5817   32.1077    9.3340 C   0  0  0  0  0  0
    4.0599   28.0691    5.7343 C   0  0  0  0  0  0
    4.9689   27.1983    5.1342 C   0  0  0  0  0  0
    5.9047   26.5178    5.9121 C   0  0  0  0  0  0
    5.9347   26.7107    7.2924 C   0  0  0  0  0  0
    5.0102   27.5630    7.8965 C   0  0  0  0  0  0
   -2.7727   31.1788    9.3210 C   0  0  0  0  0  0
   -1.9356   31.3197   10.5724 C   0  0  0  0  0  0
    7.2614   25.8520    8.3519 Br  0  0  0  0  0  0
    0.1287   29.6134    8.7702 H   0  0  0  0  0  0
    0.0954   33.6332    7.6725 H   0  0  0  0  0  0
    3.0306   30.4276    6.3172 H   0  0  0  0  0  0
   -1.8022   33.1762    9.3627 H   0  0  0  0  0  0
    3.3364   28.5686    5.1060 H   0  0  0  0  0  0
    4.9527   27.0494    4.0646 H   0  0  0  0  0  0
    6.6229   25.8609    5.4431 H   0  0  0  0  0  0
    5.0352   27.6737    8.9726 H   0  0  0  0  0  0
   -3.7750   31.6066    9.3097 H   0  0  0  0  0  0
   -2.7156   30.2518    8.7519 H   0  0  0  0  0  0
   -1.2899   30.4955   10.8780 H   0  0  0  0  0  0
   -2.3436   31.8584   11.4269 H   0  0  0  0  0  0
  1  5  1  0  0  0
  1  2  2  0  0  0
  1 19  1  0  0  0
  2 10  1  0  0  0
  2  3  1  0  0  0
  3  4  1  0  0  0
  3 20  1  0  0  0
  4  5  2  0  0  0
  5  6  1  0  0  0
  6  7  1  0  0  0
  6 21  1  0  0  0
  7  9  2  0  0  0
  7  8  1  0  0  0
  8 11  2  0  0  0
  8 15  1  0  0  0
 10 16  1  0  0  0
 10 17  1  0  0  0
 10 22  1  0  0  0
 11 12  1  0  0  0
 11 23  1  0  0  0
 12 13  2  0  0  0
 12 24  1  0  0  0
 13 14  1  0  0  0
 13 25  1  0  0  0
 14 15  2  0  0  0
 14 18  1  0  0  0
 15 26  1  0  0  0
 16 17  1  0  0  0
 16 27  1  0  0  0
 16 28  1  0  0  0
 17 29  1  0  0  0
 17 30  1  0  0  0
M  END
> <s_m_entry_id>
32757

> <s_m_entry_name>
dock_pv.158

> <s_m_Source_Path>
/home/csk/Desktop/cluster/DUD-E-result/cdk2

> <s_m_Source_File>
dock_pv.maegz

> <i_m_Source_File_Index>
158

> <chembl_id>
CHEMBL114577

> <chembl_pref_name>
None

> <i_lp_mmshare_version>
53161

> <i_f3d_flags>
0

> <r_lp_tautomer_probability>
0.5

> <s_lp_Force_Field>
OPLS_2005

> <r_lp_Energy>
15.674198

> <b_lp_Chiralities_Consistent>
1

> <s_lp_Variant>
CHEMBL301_lig670-1

> <s_i_glide_gridfile>
glide-grid_1h00

> <i_i_glide_lignum>
924

> <i_i_glide_rotatable_bonds>
4

> <r_i_docking_score>
-7.90957848344326

> <r_i_glide_ligand_efficiency>
-0.439421026857959

> <r_i_glide_ligand_efficiency_sa>
-1.15160887346291

> <r_i_glide_ligand_efficiency_ln>
-2.03311636410825

> <r_i_glide_gscore>
-7.90957848344326

> <r_i_glide_lipo>
-2.50360468530243

> <r_i_glide_hbond>
-0.658854830808585

> <r_i_glide_metal>
0

> <r_i_glide_rewards>
-2.83703058353319

> <r_i_glide_evdw>
-33.0910568237305

> <r_i_glide_ecoul>
-5.38140773773193

> <r_i_glide_erotb>
0.551675618047252

> <r_i_glide_esite>
0

> <r_i_glide_emodel>
-53.5239476147196

> <r_i_glide_energy>
-38.4724645614624

> <r_i_glide_einternal>
3.61702370643616

> <i_i_glide_confnum>
8

> <i_i_glide_posenum>
83

> <r_i_glide_eff_state_penalty>
0

> <s_user_duplicate_titles>
CHEMBL301_lig670,186662

> <s_m_subgroup_title>
dock_pv

> <s_m_subgroupid>
dock_pv

> <b_m_subgroup_collapsed>
1

$$$$
CHEMBL301_lig1333
                    3D
 Schrodinger Suite 2021-1.
 60 62  0  0  1  0            999 V2000
   -0.2930   24.2952   11.0849 C   0  0  0  0  0  0
   -1.3220   25.3752   10.7053 C   0  0  0  0  0  0
   -1.0206   26.8090   11.2138 C   0  0  2  0  0  0
    0.2560   27.2866   10.6761 N   0  0  0  0  0  0
    0.4056   28.4621    9.9386 C   0  0  0  0  0  0
    1.6278   28.5840    9.3704 N   0  0  0  0  0  0
    1.8596   29.6635    8.5775 C   0  0  0  0  0  0
    3.1263   29.8521    8.0011 N   0  0  0  0  0  0
    4.2495   28.9231    8.1205 C   0  0  0  0  0  0
    4.3849   28.0276    6.8881 C   0  0  0  0  0  0
    4.0321   28.5027    5.6177 C   0  0  0  0  0  0
    4.0587   27.7437    4.4993 N   0  0  0  0  0  0
    4.4599   26.4586    4.6255 C   0  0  0  0  0  0
    4.3965   25.6267    3.3760 C   0  0  0  0  0  0
    4.8871   25.9074    5.8289 C   0  0  0  0  0  0
    4.8574   26.7052    6.9726 C   0  0  0  0  0  0
    5.3235   26.1058    8.2745 C   0  0  0  0  0  0
    0.8585   30.6421    8.4154 C   0  0  0  0  0  0
    0.8579   31.8545    7.7760 N   0  0  0  0  0  0
   -0.2635   32.4012    8.1760 C   0  0  0  0  0  0
   -1.1037   31.5593    8.8755 N   0  0  0  0  0  0
   -2.4546   31.9099    9.3165 C   0  0  0  0  0  0
   -2.4378   32.2799   10.7993 C   0  0  0  0  0  0
   -3.4722   30.8071    8.9735 C   0  0  0  0  0  0
   -0.3537   30.4184    9.1093 C   0  0  0  0  0  0
   -0.6334   29.3388    9.8471 N   0  0  0  0  0  0
   -1.1287   27.0247   12.7543 C   0  0  1  0  0  0
   -2.4585   26.5604   13.3684 C   0  0  0  0  0  0
   -0.0731   26.4028   13.4642 O   0  0  0  0  0  0
   -0.5364   23.3507   10.6027 H   0  0  0  0  0  0
    0.7141   24.5650   10.7680 H   0  0  0  0  0  0
   -0.2734   24.1170   12.1589 H   0  0  0  0  0  0
   -2.3092   25.0582   11.0399 H   0  0  0  0  0  0
   -1.3922   25.4097    9.6158 H   0  0  0  0  0  0
   -1.8231   27.4149   10.7910 H   0  0  0  0  0  0
    1.0454   26.6593   10.6826 H   0  0  0  0  0  0
    3.2744   30.6791    7.4387 H   0  0  0  0  0  0
    5.1683   29.5023    8.2259 H   0  0  0  0  0  0
    4.1514   28.3256    9.0271 H   0  0  0  0  0  0
    3.6785   29.5111    5.4710 H   0  0  0  0  0  0
    4.4021   24.5578    3.5904 H   0  0  0  0  0  0
    3.4790   25.8519    2.8295 H   0  0  0  0  0  0
    5.2457   25.8535    2.7293 H   0  0  0  0  0  0
    5.2152   24.8797    5.8750 H   0  0  0  0  0  0
    5.7714   25.1199    8.1510 H   0  0  0  0  0  0
    6.0734   26.7560    8.7244 H   0  0  0  0  0  0
    4.4829   26.0265    8.9696 H   0  0  0  0  0  0
   -0.5935   33.3955    7.9063 H   0  0  0  0  0  0
   -2.7413   32.8021    8.7625 H   0  0  0  0  0  0
   -3.4169   32.6231   11.1359 H   0  0  0  0  0  0
   -1.7256   33.0867   10.9760 H   0  0  0  0  0  0
   -2.1587   31.4197   11.4071 H   0  0  0  0  0  0
   -4.4714   31.0801    9.3112 H   0  0  0  0  0  0
   -3.5243   30.6524    7.8962 H   0  0  0  0  0  0
   -3.2297   29.8558    9.4462 H   0  0  0  0  0  0
   -1.0229   28.0934   12.9498 H   0  0  0  0  0  0
   -3.3060   27.0129   12.8530 H   0  0  0  0  0  0
   -2.5756   25.4775   13.3189 H   0  0  0  0  0  0
   -2.5240   26.8520   14.4177 H   0  0  0  0  0  0
    0.7556   26.7990   13.1698 H   0  0  0  0  0  0
  1  2  1  0  0  0
  1 30  1  0  0  0
  1 31  1  0  0  0
  1 32  1  0  0  0
  2  3  1  0  0  0
  2 33  1  0  0  0
  2 34  1  0  0  0
  3  4  1  0  0  0
  3 27  1  0  0  0
  3 35  1  0  0  0
  4  5  1  0  0  0
  4 36  1  0  0  0
  5  6  2  0  0  0
  5 26  1  0  0  0
  6  7  1  0  0  0
  7  8  1  0  0  0
  7 18  2  0  0  0
  8  9  1  0  0  0
  8 37  1  0  0  0
  9 10  1  0  0  0
  9 38  1  0  0  0
  9 39  1  0  0  0
 10 11  2  0  0  0
 10 16  1  0  0  0
 11 12  1  0  0  0
 11 40  1  0  0  0
 12 13  2  0  0  0
 13 14  1  0  0  0
 13 15  1  0  0  0
 14 41  1  0  0  0
 14 42  1  0  0  0
 14 43  1  0  0  0
 15 16  2  0  0  0
 15 44  1  0  0  0
 16 17  1  0  0  0
 17 45  1  0  0  0
 17 46  1  0  0  0
 17 47  1  0  0  0
 18 19  1  0  0  0
 18 25  1  0  0  0
 19 20  2  0  0  0
 20 21  1  0  0  0
 20 48  1  0  0  0
 21 22  1  0  0  0
 21 25  1  0  0  0
 22 23  1  0  0  0
 22 24  1  0  0  0
 22 49  1  0  0  0
 23 50  1  0  0  0
 23 51  1  0  0  0
 23 52  1  0  0  0
 24 53  1  0  0  0
 24 54  1  0  0  0
 24 55  1  0  0  0
 25 26  2  0  0  0
 27 28  1  0  0  0
 27 29  1  0  0  0
 27 56  1  0  0  0
 28 57  1  0  0  0
 28 58  1  0  0  0
 28 59  1  0  0  0
 29 60  1  0  0  0
M  END
> <s_m_entry_id>
32758

> <s_m_entry_name>
dock_pv.159

> <s_m_Source_Path>
/home/csk/Desktop/cluster/DUD-E-result/cdk2

> <s_m_Source_File>
dock_pv.maegz

> <i_m_Source_File_Index>
159

> <chembl_id>
CHEMBL3655762

> <chembl_pref_name>
None

> <i_lp_mmshare_version>
53161

> <i_f3d_flags>
0

> <r_lp_tautomer_probability>
1

> <s_lp_Force_Field>
OPLS_2005

> <r_lp_Energy>
15.414083

> <b_lp_Chiralities_Consistent>
1

> <s_lp_Variant>
CHEMBL301_lig1333-1

> <s_i_glide_gridfile>
glide-grid_1h00

> <i_i_glide_lignum>
1760

> <i_i_glide_rotatable_bonds>
9

> <r_i_docking_score>
-7.90807056523158

> <r_i_glide_ligand_efficiency>
-0.272692088456261

> <r_i_glide_ligand_efficiency_sa>
-0.837796490655216

> <r_i_glide_ligand_efficiency_ln>
-1.81074762807082

> <r_i_glide_gscore>
-7.90807056523158

> <r_i_glide_lipo>
-3.05428043513835

> <r_i_glide_hbond>
-0.479233336922239

> <r_i_glide_metal>
0

> <r_i_glide_rewards>
-2.15913299965438

> <r_i_glide_evdw>
-41.8607749938965

> <r_i_glide_ecoul>
-5.77111148834229

> <r_i_glide_erotb>
0.74328167942956

> <r_i_glide_esite>
0

> <r_i_glide_emodel>
-68.6949510467871

> <r_i_glide_energy>
-47.6318864822388

> <r_i_glide_einternal>
4.59039211273193

> <i_i_glide_confnum>
5

> <i_i_glide_posenum>
25

> <r_i_glide_eff_state_penalty>
0

> <s_user_duplicate_titles>
CHEMBL301_lig1333

> <s_m_subgroup_title>
dock_pv

> <s_m_subgroupid>
dock_pv

> <b_m_subgroup_collapsed>
1

$$$$
CHEMBL301_lig215
                    3D
 Schrodinger Suite 2021-1.
 39 42  0  0  1  0            999 V2000
    1.2027   30.1281    8.4303 C   0  0  0  0  0  0
    1.2512   31.2698    7.4471 C   0  0  0  0  0  0
    2.0480   29.0519    8.7476 C   0  0  0  0  0  0
    0.0050   30.2522    9.1074 C   0  0  0  0  0  0
    0.1822   32.0252    7.7761 N   0  0  0  0  0  0
   -0.6414   31.3929    8.6930 C   0  0  0  0  0  0
    1.6359   28.1844    9.7759 C   0  0  0  0  0  0
    0.3899   28.2804   10.4239 C   0  0  0  0  0  0
   -0.4960   29.3538   10.0710 C   0  0  0  0  0  0
    3.2951   28.6771    8.0105 C   0  0  0  0  0  0
    4.3219   27.9532    8.5766 N   0  0  0  0  0  0
    2.0579   31.5466    6.5718 O   0  0  0  0  0  0
   -1.8151   29.6517   10.5531 C   0  0  0  0  0  0
   -1.8895   31.7058    9.2212 C   0  0  0  0  0  0
    3.6552   28.8400    6.6742 C   0  0  0  0  0  0
    5.2582   27.6245    7.6371 C   0  0  0  0  0  0
    4.8580   28.1755    6.4377 C   0  0  0  0  0  0
   -2.4721   30.8212   10.1359 C   0  0  0  0  0  0
   -2.4801   28.8165   11.3784 F   0  0  0  0  0  0
    2.1383   25.0479   11.3891 N   0  0  0  0  0  0
    0.0482   27.2644   11.5201 C   0  0  0  0  0  0
    1.0215   25.0599   10.4561 C   0  0  0  0  0  0
   -0.1989   25.8125   11.0344 C   0  0  0  0  0  0
   -0.0118   32.9162    7.3440 H   0  0  0  0  0  0
    2.2915   27.3793   10.0611 H   0  0  0  0  0  0
    4.3594   27.6584    9.5436 H   0  0  0  0  0  0
   -2.4186   32.6003    8.9263 H   0  0  0  0  0  0
    3.0824   29.3581    5.9200 H   0  0  0  0  0  0
    6.1191   27.0314    7.9073 H   0  0  0  0  0  0
    5.3789   28.1083    5.4930 H   0  0  0  0  0  0
   -3.4529   31.0395   10.5349 H   0  0  0  0  0  0
    3.0052   25.0436   10.8672 H   0  0  0  0  0  0
    2.1600   25.9185   11.9091 H   0  0  0  0  0  0
    0.8583   27.2729   12.2413 H   0  0  0  0  0  0
   -0.7927   27.5851   12.1248 H   0  0  0  0  0  0
    0.7542   24.0282   10.2213 H   0  0  0  0  0  0
    1.3386   25.5013    9.5113 H   0  0  0  0  0  0
   -0.5844   25.2334   11.8748 H   0  0  0  0  0  0
   -1.0006   25.8138   10.2949 H   0  0  0  0  0  0
  1  2  1  0  0  0
  1  3  2  0  0  0
  1  4  1  0  0  0
  2  5  1  0  0  0
  2 12  2  0  0  0
  3  7  1  0  0  0
  3 10  1  0  0  0
  4  6  1  0  0  0
  4  9  2  0  0  0
  5  6  1  0  0  0
  5 24  1  0  0  0
  6 14  2  0  0  0
  7  8  2  0  0  0
  7 25  1  0  0  0
  8  9  1  0  0  0
  8 21  1  0  0  0
  9 13  1  0  0  0
 10 11  1  0  0  0
 10 15  2  0  0  0
 11 16  1  0  0  0
 11 26  1  0  0  0
 13 18  2  0  0  0
 13 19  1  0  0  0
 14 18  1  0  0  0
 14 27  1  0  0  0
 15 17  1  0  0  0
 15 28  1  0  0  0
 16 17  2  0  0  0
 16 29  1  0  0  0
 17 30  1  0  0  0
 18 31  1  0  0  0
 20 22  1  0  0  0
 20 32  1  0  0  0
 20 33  1  0  0  0
 21 23  1  0  0  0
 21 34  1  0  0  0
 21 35  1  0  0  0
 22 23  1  0  0  0
 22 36  1  0  0  0
 22 37  1  0  0  0
 23 38  1  0  0  0
 23 39  1  0  0  0
M  END
> <s_m_entry_id>
32759

> <s_m_entry_name>
dock_pv.160

> <s_m_Source_Path>
/home/csk/Desktop/cluster/DUD-E-result/cdk2

> <s_m_Source_File>
dock_pv.maegz

> <i_m_Source_File_Index>
160

> <chembl_id>
CHEMBL312726

> <chembl_pref_name>
None

> <i_lp_mmshare_version>
53161

> <i_f3d_flags>
0

> <r_lp_tautomer_probability>
1

> <s_lp_Force_Field>
OPLS_2005

> <r_lp_Energy>
52.994324

> <b_lp_Chiralities_Consistent>
1

> <s_lp_Variant>
CHEMBL301_lig215-1

> <s_i_glide_gridfile>
glide-grid_1h00

> <i_i_glide_lignum>
357

> <i_i_glide_rotatable_bonds>
4

> <r_i_docking_score>
-7.9067178972512

> <r_i_glide_ligand_efficiency>
-0.343770343358748

> <r_i_glide_ligand_efficiency_sa>
-0.977637127108386

> <r_i_glide_ligand_efficiency_ln>
-1.91191608170941

> <r_i_glide_gscore>
-7.9067178972512

> <r_i_glide_lipo>
-3.14773025076877

> <r_i_glide_hbond>
-0.415333522235815

> <r_i_glide_metal>
0

> <r_i_glide_rewards>
-2.52291523075099

> <r_i_glide_evdw>
-33.7734031677246

> <r_i_glide_ecoul>
-4.44303464889526

> <r_i_glide_erotb>
0.580461111282982

> <r_i_glide_esite>
-0.0460746490580869

> <r_i_glide_emodel>
-54.1988372840988

> <r_i_glide_energy>
-38.2164378166199

> <r_i_glide_einternal>
4.21874713897705

> <i_i_glide_confnum>
18

> <i_i_glide_posenum>
8

> <r_i_glide_eff_state_penalty>
0

> <s_user_duplicate_titles>
CHEMBL301_lig215,131931

> <s_m_subgroup_title>
dock_pv

> <s_m_subgroupid>
dock_pv

> <b_m_subgroup_collapsed>
1

$$$$
CHEMBL301_lig1376
                    3D
 Schrodinger Suite 2021-1.
 43 44  0  0  1  0            999 V2000
   -0.5083   27.5162   12.9738 C   0  0  0  0  0  0
    0.4135   27.6407   11.7493 C   0  0  0  0  0  0
   -0.3148   27.6814   10.3856 C   0  0  1  0  0  0
   -1.1420   26.4129   10.0777 C   0  0  0  0  0  0
   -0.3683   25.2310   10.1760 O   0  0  0  0  0  0
   -1.3030   29.2109   10.1797 S   0  0  0  0  0  0
   -0.4277   30.3424    9.1305 C   0  0  0  0  0  0
    0.6346   29.8524    8.4484 N   0  0  0  0  0  0
    1.3208   30.7042    7.6471 C   0  0  0  0  0  0
    2.4580   30.2410    6.9752 N   0  0  0  0  0  0
    3.2426   29.0858    7.1441 C   0  0  0  0  0  0
    3.2919   28.3885    8.3537 C   0  0  0  0  0  0
    4.0727   27.2463    8.4584 C   0  0  0  0  0  0
    4.8684   26.8432    7.3850 C   0  0  0  0  0  0
    4.8461   27.5481    6.1842 C   0  0  0  0  0  0
    4.0151   28.6521    6.0633 C   0  0  0  0  0  0
    5.8865   25.3946    7.5703 S   0  0  1  0  0  0
    6.9408   25.8521    8.5760 N   0  0  0  0  0  0
    5.0025   24.2429    7.7660 O   0  0  0  0  0  0
    6.9097   25.1853    6.0049 C   0  0  0  0  0  0
    1.0081   32.0109    7.4539 N   0  0  0  0  0  0
   -0.0408   32.4928    8.1760 C   0  0  0  0  0  0
   -0.8079   31.6886    9.0234 C   0  0  0  0  0  0
   -2.2828   32.4373    9.9755 Br  0  0  0  0  0  0
    0.0838   27.4521   13.8836 H   0  0  0  0  0  0
   -1.1214   26.6163   12.9290 H   0  0  0  0  0  0
   -1.1752   28.3746   13.0683 H   0  0  0  0  0  0
    1.0201   28.5417   11.8561 H   0  0  0  0  0  0
    1.1271   26.8152   11.7573 H   0  0  0  0  0  0
    0.4735   27.6945    9.6360 H   0  0  0  0  0  0
   -1.9959   26.3302   10.7507 H   0  0  0  0  0  0
   -1.5419   26.4705    9.0650 H   0  0  0  0  0  0
    0.3006   25.2362    9.4857 H   0  0  0  0  0  0
    2.9433   30.9492    6.4373 H   0  0  0  0  0  0
    2.7276   28.7101    9.2146 H   0  0  0  0  0  0
    4.0580   26.6809    9.3761 H   0  0  0  0  0  0
    5.4526   27.2548    5.3413 H   0  0  0  0  0  0
    4.0010   29.1991    5.1319 H   0  0  0  0  0  0
    6.5282   25.9495    9.5070 H   0  0  0  0  0  0
    7.4796   26.0975    5.8260 H   0  0  0  0  0  0
    7.5906   24.3483    6.1503 H   0  0  0  0  0  0
    6.2433   24.9784    5.1689 H   0  0  0  0  0  0
   -0.2775   33.5389    8.0433 H   0  0  0  0  0  0
  1  2  1  0  0  0
  1 25  1  0  0  0
  1 26  1  0  0  0
  1 27  1  0  0  0
  2  3  1  0  0  0
  2 28  1  0  0  0
  2 29  1  0  0  0
  3  4  1  0  0  0
  3  6  1  0  0  0
  3 30  1  0  0  0
  4  5  1  0  0  0
  4 31  1  0  0  0
  4 32  1  0  0  0
  5 33  1  0  0  0
  6  7  1  0  0  0
  7  8  2  0  0  0
  7 23  1  0  0  0
  8  9  1  0  0  0
  9 10  1  0  0  0
  9 21  2  0  0  0
 10 11  1  0  0  0
 10 34  1  0  0  0
 11 12  2  0  0  0
 11 16  1  0  0  0
 12 13  1  0  0  0
 12 35  1  0  0  0
 13 14  2  0  0  0
 13 36  1  0  0  0
 14 15  1  0  0  0
 14 17  1  0  0  0
 15 16  2  0  0  0
 15 37  1  0  0  0
 16 38  1  0  0  0
 17 18  2  0  0  0
 17 19  2  0  0  0
 17 20  1  0  0  0
 18 39  1  0  0  0
 20 40  1  0  0  0
 20 41  1  0  0  0
 20 42  1  0  0  0
 21 22  1  0  0  0
 22 23  2  0  0  0
 22 43  1  0  0  0
 23 24  1  0  0  0
M  END
> <s_m_entry_id>
32760

> <s_m_entry_name>
dock_pv.161

> <s_m_Source_Path>
/home/csk/Desktop/cluster/DUD-E-result/cdk2

> <s_m_Source_File>
dock_pv.maegz

> <i_m_Source_File_Index>
161

> <chembl_id>
CHEMBL3648127

> <chembl_pref_name>
None

> <i_lp_mmshare_version>
53161

> <i_f3d_flags>
0

> <r_lp_tautomer_probability>
0.999999987636

> <s_lp_Force_Field>
OPLS_2005

> <r_lp_Energy>
-1.281428

> <b_lp_Chiralities_Consistent>
1

> <s_lp_Variant>
CHEMBL301_lig1376-4

> <s_i_glide_gridfile>
glide-grid_1h00

> <i_i_glide_lignum>
1846

> <i_i_glide_rotatable_bonds>
8

> <r_i_docking_score>
-7.90491689567497

> <r_i_glide_ligand_efficiency>
-0.32937153731979

> <r_i_glide_ligand_efficiency_sa>
-0.950071915335456

> <r_i_glide_ligand_efficiency_ln>
-1.89200934613536

> <r_i_glide_gscore>
-7.90491689567497

> <r_i_glide_lipo>
-2.69463865870345

> <r_i_glide_hbond>
-0.404026363171986

> <r_i_glide_metal>
0

> <r_i_glide_rewards>
-1.89457427291268

> <r_i_glide_evdw>
-38.494743347168

> <r_i_glide_ecoul>
-10.1424112319946

> <r_i_glide_erotb>
0.534421251270742

> <r_i_glide_esite>
0

> <r_i_glide_emodel>
-70.1789765632409

> <r_i_glide_energy>
-48.6371545791626

> <r_i_glide_einternal>
5.74024248123169

> <i_i_glide_confnum>
30

> <i_i_glide_posenum>
32

> <r_i_glide_eff_state_penalty>
0

> <s_user_duplicate_titles>
CHEMBL301_lig1376

> <s_m_subgroup_title>
dock_pv

> <s_m_subgroupid>
dock_pv

> <b_m_subgroup_collapsed>
1

$$$$
CHEMBL301_lig1166
                    3D
 Schrodinger Suite 2021-1.
 47 50  0  0  1  0            999 V2000
    0.2885   29.2075    9.8560 N   0  0  0  0  0  0
    1.2029   28.2095    9.9628 C   0  0  0  0  0  0
    2.3444   28.1500    9.1599 C   0  0  0  0  0  0
    2.5423   29.1296    8.1797 C   0  0  0  0  0  0
    0.5059   30.1716    8.9614 C   0  0  0  0  0  0
    1.6316   30.1562    8.1278 N   0  0  0  0  0  0
    1.6579   31.2406    7.3084 N   0  0  0  0  0  0
    0.6364   31.9756    7.6969 C   0  0  0  0  0  0
   -0.1853   31.3597    8.6331 C   0  0  0  0  0  0
    0.9759   27.1682   10.8831 N   0  0  0  0  0  0
   -0.1894   27.1676   11.7818 C   0  0  2  0  0  0
   -0.0294   26.0788   12.8647 C   0  0  0  0  0  0
   -1.2217   26.0778   13.8396 C   0  0  0  0  0  0
   -2.5510   25.8623   13.1006 C   0  0  2  0  0  0
   -2.7135   26.8761   11.9460 C   0  0  0  0  0  0
   -1.4952   26.8997   10.9980 C   0  0  0  0  0  0
   -3.6967   25.8519   13.9866 N   0  0  0  0  0  0
    3.5458   29.0563    7.2022 N   0  0  0  0  0  0
    4.4325   28.0309    6.8692 C   0  0  0  0  0  0
    5.2912   27.4659    7.8098 C   0  0  0  0  0  0
    6.1808   26.4610    7.4258 C   0  0  0  0  0  0
    6.1901   25.9947    6.1076 C   0  0  0  0  0  0
    5.3228   26.5548    5.1694 C   0  0  0  0  0  0
    4.4582   27.5818    5.5468 C   0  0  0  0  0  0
    7.0433   25.0159    5.7294 F   0  0  0  0  0  0
    7.3117   25.8513    8.5762 Cl  0  0  0  0  0  0
   -1.3890   31.8759    9.2496 C   0  0  0  0  0  0
   -2.3428   32.2866    9.7485 N   0  0  0  0  0  0
    3.0177   27.3121    9.2510 H   0  0  0  0  0  0
    0.4688   32.9545    7.2699 H   0  0  0  0  0  0
    1.8358   26.8308   11.2927 H   0  0  0  0  0  0
   -0.2403   28.1485   12.2621 H   0  0  0  0  0  0
    0.0879   25.0941   12.4086 H   0  0  0  0  0  0
    0.8581   26.2518   13.4546 H   0  0  0  0  0  0
   -1.2467   27.0338   14.3665 H   0  0  0  0  0  0
   -1.0820   25.3027   14.5924 H   0  0  0  0  0  0
   -2.4778   24.8769   12.6382 H   0  0  0  0  0  0
   -2.8417   27.8789   12.3544 H   0  0  0  0  0  0
   -3.6166   26.6521   11.3779 H   0  0  0  0  0  0
   -1.6605   27.6593   10.2375 H   0  0  0  0  0  0
   -1.4267   25.9507   10.4625 H   0  0  0  0  0  0
   -3.8507   26.8134   14.2792 H   0  0  0  0  0  0
   -4.4980   25.6051   13.4238 H   0  0  0  0  0  0
    3.6680   29.9198    6.6811 H   0  0  0  0  0  0
    5.2900   27.8290    8.8280 H   0  0  0  0  0  0
    5.3354   26.2034    4.1479 H   0  0  0  0  0  0
    3.8011   28.0222    4.8128 H   0  0  0  0  0  0
  1  5  1  0  0  0
  1  2  2  0  0  0
  2  3  1  0  0  0
  2 10  1  0  0  0
  3  4  2  0  0  0
  3 29  1  0  0  0
  4  6  1  0  0  0
  4 18  1  0  0  0
  5  6  1  0  0  0
  5  9  2  0  0  0
  6  7  1  0  0  0
  7  8  2  0  0  0
  8  9  1  0  0  0
  8 30  1  0  0  0
  9 27  1  0  0  0
 10 11  1  0  0  0
 10 31  1  0  0  0
 11 12  1  0  0  0
 11 16  1  0  0  0
 11 32  1  0  0  0
 12 13  1  0  0  0
 12 33  1  0  0  0
 12 34  1  0  0  0
 13 14  1  0  0  0
 13 35  1  0  0  0
 13 36  1  0  0  0
 14 15  1  0  0  0
 14 17  1  0  0  0
 14 37  1  0  0  0
 15 16  1  0  0  0
 15 38  1  0  0  0
 15 39  1  0  0  0
 16 40  1  0  0  0
 16 41  1  0  0  0
 17 42  1  0  0  0
 17 43  1  0  0  0
 18 19  1  0  0  0
 18 44  1  0  0  0
 19 20  2  0  0  0
 19 24  1  0  0  0
 20 21  1  0  0  0
 20 45  1  0  0  0
 21 22  2  0  0  0
 21 26  1  0  0  0
 22 23  1  0  0  0
 22 25  1  0  0  0
 23 24  2  0  0  0
 23 46  1  0  0  0
 24 47  1  0  0  0
 27 28  3  0  0  0
M  END
> <s_m_entry_id>
32761

> <s_m_entry_name>
dock_pv.162

> <s_m_Source_Path>
/home/csk/Desktop/cluster/DUD-E-result/cdk2

> <s_m_Source_File>
dock_pv.maegz

> <i_m_Source_File_Index>
162

> <chembl_id>
CHEMBL2163997

> <chembl_pref_name>
None

> <i_lp_mmshare_version>
53161

> <i_f3d_flags>
0

> <r_lp_tautomer_probability>
1

> <s_lp_Force_Field>
OPLS_2005

> <r_lp_Energy>
27.206561

> <b_lp_Chiralities_Consistent>
1

> <s_lp_Variant>
CHEMBL301_lig1166-1

> <s_i_glide_gridfile>
glide-grid_1h00

> <i_i_glide_lignum>
1579

> <i_i_glide_rotatable_bonds>
4

> <r_i_docking_score>
-7.90405966130751

> <r_i_glide_ligand_efficiency>
-0.282287845046697

> <r_i_glide_ligand_efficiency_sa>
-0.857192156211232

> <r_i_glide_ligand_efficiency_ln>
-1.82448904310564

> <r_i_glide_gscore>
-7.90405966130751

> <r_i_glide_lipo>
-2.40451834513158

> <r_i_glide_hbond>
-0.398339616963896

> <r_i_glide_metal>
0

> <r_i_glide_rewards>
-2.42925682395044

> <r_i_glide_evdw>
-43.251033782959

> <r_i_glide_ecoul>
-6.58226490020752

> <r_i_glide_erotb>
0.490326143975362

> <r_i_glide_esite>
-0.0123795950578778

> <r_i_glide_emodel>
-68.6064393312641

> <r_i_glide_energy>
-49.8332986831665

> <r_i_glide_einternal>
7.05354261398315

> <i_i_glide_confnum>
13

> <i_i_glide_posenum>
93

> <r_i_glide_eff_state_penalty>
0

> <s_user_duplicate_titles>
CHEMBL301_lig1166

> <s_m_subgroup_title>
dock_pv

> <s_m_subgroupid>
dock_pv

> <b_m_subgroup_collapsed>
1

$$$$
CHEMBL301_lig495
                    3D
 Schrodinger Suite 2021-1.
 51 54  0  0  1  0            999 V2000
    0.4583   32.4260    7.7759 C   0  0  0  0  0  0
   -0.3808   31.7726    8.6771 C   0  0  0  0  0  0
   -0.0653   30.4408    8.9812 C   0  0  0  0  0  0
    1.0112   29.8360    8.4274 N   0  0  0  0  0  0
    1.7552   30.5258    7.5379 C   0  0  0  0  0  0
    1.5142   31.8116    7.1719 N   0  0  0  0  0  0
    2.8580   29.8968    6.9464 N   0  0  0  0  0  0
    3.4020   28.5896    7.3020 C   0  0  0  0  0  0
    3.9608   27.9570    6.0125 C   0  0  0  0  0  0
    4.5937   26.5749    6.2670 C   0  0  0  0  0  0
    5.6627   26.7757    7.2734 N   0  0  0  0  0  0
    5.2049   27.3256    8.5701 C   0  0  0  0  0  0
    4.5470   28.7041    8.3140 C   0  0  0  0  0  0
    6.8526   26.1145    7.2004 C   0  0  0  0  0  0
    7.5422   25.8521    8.1894 O   0  0  0  0  0  0
    7.2885   25.8458    5.9535 N   0  0  0  0  0  0
    8.5757   25.2424    5.6104 C   0  0  0  0  0  0
    9.7257   26.2605    5.5994 C   0  0  0  0  0  0
   -0.8150   29.6754    9.9113 N   0  0  0  0  0  0
   -2.5688   29.0519   11.1961 C   0  0  0  0  0  0
   -2.1118   29.9672   10.2862 C   0  0  0  0  0  0
   -1.5328   28.1020   11.4013 C   0  0  0  0  0  0
   -0.4240   28.5123   10.5955 C   0  0  0  0  0  0
    0.7729   27.7699   10.5956 C   0  0  0  0  0  0
    0.8229   26.6160   11.3760 C   0  0  0  0  0  0
   -0.2519   26.2092   12.1578 C   0  0  0  0  0  0
   -1.4328   26.9444   12.1869 C   0  0  0  0  0  0
    0.2765   33.4520    7.4990 H   0  0  0  0  0  0
   -1.2082   32.2985    9.1282 H   0  0  0  0  0  0
    3.4842   30.5067    6.4239 H   0  0  0  0  0  0
    2.6323   27.9844    7.7760 H   0  0  0  0  0  0
    4.6987   28.6134    5.5442 H   0  0  0  0  0  0
    3.1661   27.8520    5.2799 H   0  0  0  0  0  0
    4.9529   26.1902    5.3121 H   0  0  0  0  0  0
    3.8582   25.8807    6.6766 H   0  0  0  0  0  0
    4.4650   26.6357    8.9759 H   0  0  0  0  0  0
    6.0226   27.4521    9.2807 H   0  0  0  0  0  0
    4.1411   29.0519    9.2584 H   0  0  0  0  0  0
    5.2907   29.4391    8.0006 H   0  0  0  0  0  0
    6.7294   26.1677    5.1784 H   0  0  0  0  0  0
    8.4835   24.7935    4.6205 H   0  0  0  0  0  0
    8.8068   24.4214    6.2928 H   0  0  0  0  0  0
   10.6695   25.7804    5.3386 H   0  0  0  0  0  0
    9.8578   26.7241    6.5763 H   0  0  0  0  0  0
    9.5512   27.0518    4.8693 H   0  0  0  0  0  0
   -3.5416   29.0522   11.6657 H   0  0  0  0  0  0
   -2.6259   30.8241    9.8764 H   0  0  0  0  0  0
    1.6414   28.0557   10.0239 H   0  0  0  0  0  0
    1.7348   26.0361   11.3933 H   0  0  0  0  0  0
   -0.1621   25.3156   12.7584 H   0  0  0  0  0  0
   -2.2625   26.6283   12.8017 H   0  0  0  0  0  0
  1  2  2  0  0  0
  1  6  1  0  0  0
  1 28  1  0  0  0
  2  3  1  0  0  0
  2 29  1  0  0  0
  3  4  2  0  0  0
  3 19  1  0  0  0
  4  5  1  0  0  0
  5  7  1  0  0  0
  5  6  2  0  0  0
  7  8  1  0  0  0
  7 30  1  0  0  0
  8  9  1  0  0  0
  8 13  1  0  0  0
  8 31  1  0  0  0
  9 10  1  0  0  0
  9 32  1  0  0  0
  9 33  1  0  0  0
 10 11  1  0  0  0
 10 34  1  0  0  0
 10 35  1  0  0  0
 11 14  1  0  0  0
 11 12  1  0  0  0
 12 13  1  0  0  0
 12 36  1  0  0  0
 12 37  1  0  0  0
 13 38  1  0  0  0
 13 39  1  0  0  0
 14 15  2  0  0  0
 14 16  1  0  0  0
 16 17  1  0  0  0
 16 40  1  0  0  0
 17 18  1  0  0  0
 17 41  1  0  0  0
 17 42  1  0  0  0
 18 43  1  0  0  0
 18 44  1  0  0  0
 18 45  1  0  0  0
 19 23  1  0  0  0
 19 21  1  0  0  0
 20 22  1  0  0  0
 20 21  2  0  0  0
 20 46  1  0  0  0
 21 47  1  0  0  0
 22 23  2  0  0  0
 22 27  1  0  0  0
 23 24  1  0  0  0
 24 25  2  0  0  0
 24 48  1  0  0  0
 25 26  1  0  0  0
 25 49  1  0  0  0
 26 27  2  0  0  0
 26 50  1  0  0  0
 27 51  1  0  0  0
M  END
> <s_m_entry_id>
32762

> <s_m_entry_name>
dock_pv.163

> <s_m_Source_Path>
/home/csk/Desktop/cluster/DUD-E-result/cdk2

> <s_m_Source_File>
dock_pv.maegz

> <i_m_Source_File_Index>
163

> <chembl_id>
CHEMBL392613

> <chembl_pref_name>
None

> <i_lp_mmshare_version>
53161

> <i_f3d_flags>
0

> <r_lp_tautomer_probability>
1

> <s_lp_Force_Field>
OPLS_2005

> <r_lp_Energy>
30.048415

> <b_lp_Chiralities_Consistent>
1

> <s_lp_Variant>
CHEMBL301_lig495-1

> <s_i_glide_gridfile>
glide-grid_1h00

> <i_i_glide_lignum>
687

> <i_i_glide_rotatable_bonds>
6

> <r_i_docking_score>
-7.89907006352377

> <r_i_glide_ligand_efficiency>
-0.29255815050088

> <r_i_glide_ligand_efficiency_sa>
-0.877674450538417

> <r_i_glide_ligand_efficiency_ln>
-1.83877328444059

> <r_i_glide_gscore>
-7.89907006352377

> <r_i_glide_lipo>
-1.99143509292347

> <r_i_glide_hbond>
-0.373617054182831

> <r_i_glide_metal>
0

> <r_i_glide_rewards>
-2.99579073922784

> <r_i_glide_evdw>
-35.4690895080566

> <r_i_glide_ecoul>
-8.23610019683838

> <r_i_glide_erotb>
0.506605181099004

> <r_i_glide_esite>
-0.0359628533600365

> <r_i_glide_emodel>
-62.7790784833591

> <r_i_glide_energy>
-43.705189704895

> <r_i_glide_einternal>
2.36992430686951

> <i_i_glide_confnum>
20

> <i_i_glide_posenum>
25

> <r_i_glide_eff_state_penalty>
0

> <s_user_duplicate_titles>
CHEMBL301_lig495

> <s_m_subgroup_title>
dock_pv

> <s_m_subgroupid>
dock_pv

> <b_m_subgroup_collapsed>
1

$$$$
CHEMBL301_lig1363
                    3D
 Schrodinger Suite 2021-1.
 55 57  0  0  1  0            999 V2000
    0.8435   24.0037   12.1876 C   0  0  0  0  0  0
   -0.1330   24.6263   11.1748 C   0  0  0  0  0  0
   -0.2567   26.1738   11.1940 C   0  0  2  0  0  0
    0.9838   26.8139   10.7378 N   0  0  0  0  0  0
    0.9823   28.0019    9.9975 C   0  0  0  0  0  0
    2.1543   28.2846    9.3760 N   0  0  0  0  0  0
    2.2090   29.3900    8.5766 C   0  0  0  0  0  0
    3.3903   29.7128    7.8932 N   0  0  0  0  0  0
    4.6074   28.9100    7.9784 C   0  0  0  0  0  0
    4.5897   27.7791    6.9605 C   0  0  0  0  0  0
    4.4582   28.0568    5.5941 C   0  0  0  0  0  0
    4.4579   27.0194    4.6618 C   0  0  0  0  0  0
    4.5776   25.6977    5.0903 C   0  0  0  0  0  0
    4.7141   25.4141    6.4499 C   0  0  0  0  0  0
    4.8590   23.7776    6.9760 Cl  0  0  0  0  0  0
    4.7305   26.4530    7.3829 C   0  0  0  0  0  0
    1.0848   30.2242    8.4571 C   0  0  0  0  0  0
    0.8582   31.3937    7.7761 N   0  0  0  0  0  0
   -0.3351   31.7512    8.1760 C   0  0  0  0  0  0
   -0.9988   30.8075    8.9356 N   0  0  0  0  0  0
   -2.3832   30.8583    9.4073 C   0  0  0  0  0  0
   -3.3311   31.2506    8.2704 C   0  0  0  0  0  0
   -2.5005   31.8359   10.5767 C   0  0  0  0  0  0
   -0.0600   29.8280    9.1827 C   0  0  0  0  0  0
   -0.1661   28.7302    9.9319 N   0  0  0  0  0  0
   -0.8277   26.7961   12.5072 C   0  0  1  0  0  0
   -2.1989   26.2383   12.9219 C   0  0  0  0  0  0
    0.0580   26.6520   13.6015 O   0  0  0  0  0  0
    0.9861   22.9419   11.9840 H   0  0  0  0  0  0
    1.8231   24.4824   12.1539 H   0  0  0  0  0  0
    0.4581   24.0832   13.2046 H   0  0  0  0  0  0
   -1.1175   24.1764   11.3076 H   0  0  0  0  0  0
    0.1830   24.3242   10.1762 H   0  0  0  0  0  0
   -1.0102   26.3871   10.4329 H   0  0  0  0  0  0
    1.8346   26.2721   10.7192 H   0  0  0  0  0  0
    3.4221   30.5558    7.3335 H   0  0  0  0  0  0
    5.4655   29.5529    7.7782 H   0  0  0  0  0  0
    4.7407   28.5140    8.9864 H   0  0  0  0  0  0
    4.3662   29.0794    5.2570 H   0  0  0  0  0  0
    4.3613   27.2367    3.6080 H   0  0  0  0  0  0
    4.5678   24.8959    4.3656 H   0  0  0  0  0  0
    4.8368   26.2278    8.4353 H   0  0  0  0  0  0
   -0.8374   32.6623    7.8855 H   0  0  0  0  0  0
   -2.6562   29.8573    9.7485 H   0  0  0  0  0  0
   -4.3665   31.1622    8.5899 H   0  0  0  0  0  0
   -3.2083   30.6520    7.3812 H   0  0  0  0  0  0
   -3.1422   32.2658    7.9520 H   0  0  0  0  0  0
   -3.5350   31.9499   10.9002 H   0  0  0  0  0  0
   -1.9420   31.4515   11.4213 H   0  0  0  0  0  0
   -2.1219   32.8286   10.3298 H   0  0  0  0  0  0
   -0.9397   27.8716   12.3626 H   0  0  0  0  0  0
   -2.9222   26.3362   12.1121 H   0  0  0  0  0  0
   -2.1449   25.1843   13.1925 H   0  0  0  0  0  0
   -2.5981   26.7810   13.7794 H   0  0  0  0  0  0
    0.9260   27.0027   13.3482 H   0  0  0  0  0  0
  1  2  1  0  0  0
  1 29  1  0  0  0
  1 30  1  0  0  0
  1 31  1  0  0  0
  2  3  1  0  0  0
  2 32  1  0  0  0
  2 33  1  0  0  0
  3  4  1  0  0  0
  3 26  1  0  0  0
  3 34  1  0  0  0
  4  5  1  0  0  0
  4 35  1  0  0  0
  5  6  2  0  0  0
  5 25  1  0  0  0
  6  7  1  0  0  0
  7  8  1  0  0  0
  7 17  2  0  0  0
  8  9  1  0  0  0
  8 36  1  0  0  0
  9 10  1  0  0  0
  9 37  1  0  0  0
  9 38  1  0  0  0
 10 11  2  0  0  0
 10 16  1  0  0  0
 11 12  1  0  0  0
 11 39  1  0  0  0
 12 13  2  0  0  0
 12 40  1  0  0  0
 13 14  1  0  0  0
 13 41  1  0  0  0
 14 15  1  0  0  0
 14 16  2  0  0  0
 16 42  1  0  0  0
 17 18  1  0  0  0
 17 24  1  0  0  0
 18 19  2  0  0  0
 19 20  1  0  0  0
 19 43  1  0  0  0
 20 21  1  0  0  0
 20 24  1  0  0  0
 21 22  1  0  0  0
 21 23  1  0  0  0
 21 44  1  0  0  0
 22 45  1  0  0  0
 22 46  1  0  0  0
 22 47  1  0  0  0
 23 48  1  0  0  0
 23 49  1  0  0  0
 23 50  1  0  0  0
 24 25  2  0  0  0
 26 27  1  0  0  0
 26 28  1  0  0  0
 26 51  1  0  0  0
 27 52  1  0  0  0
 27 53  1  0  0  0
 27 54  1  0  0  0
 28 55  1  0  0  0
M  END
> <s_m_entry_id>
32763

> <s_m_entry_name>
dock_pv.164

> <s_m_Source_Path>
/home/csk/Desktop/cluster/DUD-E-result/cdk2

> <s_m_Source_File>
dock_pv.maegz

> <i_m_Source_File_Index>
164

> <chembl_id>
CHEMBL3655764

> <chembl_pref_name>
None

> <i_lp_mmshare_version>
53161

> <i_f3d_flags>
0

> <r_lp_tautomer_probability>
1

> <s_lp_Force_Field>
OPLS_2005

> <r_lp_Energy>
18.810314

> <b_lp_Chiralities_Consistent>
1

> <s_lp_Variant>
CHEMBL301_lig1363-1

> <s_i_glide_gridfile>
glide-grid_1h00

> <i_i_glide_lignum>
1822

> <i_i_glide_rotatable_bonds>
9

> <r_i_docking_score>
-7.8930736696182

> <r_i_glide_ligand_efficiency>
-0.28189548820065

> <r_i_glide_ligand_efficiency_sa>
-0.85600072974081

> <r_i_glide_ligand_efficiency_ln>
-1.82195315366102

> <r_i_glide_gscore>
-7.8930736696182

> <r_i_glide_lipo>
-2.6419793491272

> <r_i_glide_hbond>
-0.538419776168816

> <r_i_glide_metal>
0

> <r_i_glide_rewards>
-2.4671558246659

> <r_i_glide_evdw>
-41.4078636169434

> <r_i_glide_ecoul>
-5.99461269378662

> <r_i_glide_erotb>
0.725434628022848

> <r_i_glide_esite>
-0.00136826276397338

> <r_i_glide_emodel>
-66.8518962957431

> <r_i_glide_energy>
-47.40247631073

> <r_i_glide_einternal>
5.19321537017822

> <i_i_glide_confnum>
12

> <i_i_glide_posenum>
181

> <r_i_glide_eff_state_penalty>
0

> <s_user_duplicate_titles>
CHEMBL301_lig1363

> <s_m_subgroup_title>
dock_pv

> <s_m_subgroupid>
dock_pv

> <b_m_subgroup_collapsed>
1

$$$$
CHEMBL301_lig313
                    3D
 Schrodinger Suite 2021-1.
 54 57  0  0  1  0            999 V2000
    8.1460   25.8496    4.8208 N   0  0  0  0  0  0
    7.3590   25.2824    6.2691 S   0  0  0  0  0  0
    8.3080   25.4520    7.3747 O   0  0  0  0  0  0
    6.7568   23.9808    5.9686 O   0  0  0  0  0  0
    6.0130   26.4156    6.5624 C   0  0  0  0  0  0
    5.6580   26.7106    7.8757 C   0  0  0  0  0  0
    4.7054   27.6887    8.1363 C   0  0  0  0  0  0
    4.1291   28.3910    7.0782 C   0  0  0  0  0  0
    3.2580   29.4520    7.3145 N   0  0  0  0  0  0
    2.1706   29.4071    8.1984 N   0  0  0  0  0  0
    1.2717   30.3159    8.1760 C   0  0  0  0  0  0
    1.2580   31.5393    7.3700 C   0  0  0  0  0  0
    2.0580   31.8520    6.4955 O   0  0  0  0  0  0
    0.2116   32.2684    7.7767 N   0  0  0  0  0  0
   -0.5578   31.5758    8.6792 C   0  0  0  0  0  0
   -1.7621   31.9252    9.2873 C   0  0  0  0  0  0
   -2.3494   31.0189   10.1743 C   0  0  0  0  0  0
   -1.7224   29.7937   10.4590 C   0  0  0  0  0  0
   -0.5079   29.4778    9.8401 C   0  0  0  0  0  0
    0.0581   30.3706    8.9440 C   0  0  0  0  0  0
   -2.3644   28.8004   11.3760 C   0  0  0  0  0  0
   -3.5867   28.6520   11.3760 O   0  0  0  0  0  0
   -1.5138   28.1021   12.1449 N   0  0  0  0  0  0
   -1.8346   26.9133   12.9246 C   0  0  0  0  0  0
   -1.1238   25.6744   12.3450 C   0  0  0  0  0  0
    0.4198   25.7925   12.3281 C   0  0  0  0  0  0
    1.0300   24.6651   11.6408 N   0  0  0  0  0  0
    1.5860   24.6520   10.3885 C   0  0  0  0  0  0
    1.9960   23.3449   10.1760 C   0  0  0  0  0  0
    1.7292   22.5717   11.2140 N   0  0  0  0  0  0
    1.1550   23.3704   12.0827 C   0  0  0  0  0  0
    4.4548   28.0642    5.7612 C   0  0  0  0  0  0
    5.3732   27.0520    5.4982 C   0  0  0  0  0  0
    8.9736   26.4292    4.9801 H   0  0  0  0  0  0
    8.2339   25.1616    4.0702 H   0  0  0  0  0  0
    6.1464   26.2076    8.6967 H   0  0  0  0  0  0
    4.4566   27.9321    9.1592 H   0  0  0  0  0  0
    3.2048   30.2097    6.6369 H   0  0  0  0  0  0
    0.0040   33.1883    7.4121 H   0  0  0  0  0  0
   -2.2484   32.8676    9.0813 H   0  0  0  0  0  0
   -3.2911   31.2735   10.6424 H   0  0  0  0  0  0
   -0.0166   28.5328   10.0289 H   0  0  0  0  0  0
   -0.5716   28.4514   12.2262 H   0  0  0  0  0  0
   -2.9110   26.7404   13.0017 H   0  0  0  0  0  0
   -1.4802   27.1046   13.9385 H   0  0  0  0  0  0
   -1.4961   25.4993   11.3333 H   0  0  0  0  0  0
   -1.4183   24.7968   12.9218 H   0  0  0  0  0  0
    0.8191   25.8520   13.3396 H   0  0  0  0  0  0
    0.7481   26.7040   11.8268 H   0  0  0  0  0  0
    1.6304   25.5413    9.7760 H   0  0  0  0  0  0
    2.4582   22.9638    9.2756 H   0  0  0  0  0  0
    0.7810   23.0944   13.0570 H   0  0  0  0  0  0
    4.0084   28.6047    4.9398 H   0  0  0  0  0  0
    5.6429   26.8241    4.4770 H   0  0  0  0  0  0
  1  2  1  0  0  0
  1 34  1  0  0  0
  1 35  1  0  0  0
  2  3  2  0  0  0
  2  4  2  0  0  0
  2  5  1  0  0  0
  5  6  2  0  0  0
  5 33  1  0  0  0
  6  7  1  0  0  0
  6 36  1  0  0  0
  7  8  2  0  0  0
  7 37  1  0  0  0
  8  9  1  0  0  0
  8 32  1  0  0  0
  9 10  1  0  0  0
  9 38  1  0  0  0
 10 11  2  0  0  0
 11 12  1  0  0  0
 11 20  1  0  0  0
 12 13  2  0  0  0
 12 14  1  0  0  0
 14 15  1  0  0  0
 14 39  1  0  0  0
 15 16  2  0  0  0
 15 20  1  0  0  0
 16 17  1  0  0  0
 16 40  1  0  0  0
 17 18  2  0  0  0
 17 41  1  0  0  0
 18 19  1  0  0  0
 18 21  1  0  0  0
 19 20  2  0  0  0
 19 42  1  0  0  0
 21 22  2  0  0  0
 21 23  1  0  0  0
 23 24  1  0  0  0
 23 43  1  0  0  0
 24 25  1  0  0  0
 24 44  1  0  0  0
 24 45  1  0  0  0
 25 26  1  0  0  0
 25 46  1  0  0  0
 25 47  1  0  0  0
 26 27  1  0  0  0
 26 48  1  0  0  0
 26 49  1  0  0  0
 27 28  1  0  0  0
 27 31  1  0  0  0
 28 29  2  0  0  0
 28 50  1  0  0  0
 29 30  1  0  0  0
 29 51  1  0  0  0
 30 31  2  0  0  0
 31 52  1  0  0  0
 32 33  2  0  0  0
 32 53  1  0  0  0
 33 54  1  0  0  0
M  END
> <s_m_entry_id>
32764

> <s_m_entry_name>
dock_pv.165

> <s_m_Source_Path>
/home/csk/Desktop/cluster/DUD-E-result/cdk2

> <s_m_Source_File>
dock_pv.maegz

> <i_m_Source_File_Index>
165

> <chembl_id>
CHEMBL272026

> <chembl_pref_name>
GW290597X

> <i_lp_mmshare_version>
53161

> <i_f3d_flags>
0

> <r_lp_tautomer_probability>
1

> <s_lp_Force_Field>
OPLS_2005

> <r_lp_Energy>
51.304503

> <b_lp_Chiralities_Consistent>
1

> <s_lp_Variant>
CHEMBL301_lig313-1

> <s_i_glide_gridfile>
glide-grid_1h00

> <i_i_glide_lignum>
489

> <i_i_glide_rotatable_bonds>
9

> <r_i_docking_score>
-7.87931461754489

> <r_i_glide_ligand_efficiency>
-0.238767109622573

> <r_i_glide_ligand_efficiency_sa>
-0.765853700095674

> <r_i_glide_ligand_efficiency_ln>
-1.7523187740343

> <r_i_glide_gscore>
-7.87931461754489

> <r_i_glide_lipo>
-2.25643709521961

> <r_i_glide_hbond>
-0.497908167011526

> <r_i_glide_metal>
0

> <r_i_glide_rewards>
-1.85760771612194

> <r_i_glide_evdw>
-45.8888893127441

> <r_i_glide_ecoul>
-9.06838226318359

> <r_i_glide_erotb>
0.452492511724027

> <r_i_glide_esite>
-0.0651523458011049

> <r_i_glide_emodel>
-75.7202229022559

> <r_i_glide_energy>
-54.9572715759277

> <r_i_glide_einternal>
10.5280685424805

> <i_i_glide_confnum>
5

> <i_i_glide_posenum>
105

> <r_i_glide_eff_state_penalty>
0

> <s_user_duplicate_titles>
CHEMBL301_lig313,440715,225942

> <s_m_subgroup_title>
dock_pv

> <s_m_subgroupid>
dock_pv

> <b_m_subgroup_collapsed>
1

$$$$
CHEMBL301_lig1380
                    3D
 Schrodinger Suite 2021-1.
 43 44  0  0  1  0            999 V2000
    1.6771   26.7043   10.9756 C   0  0  0  0  0  0
    0.8496   28.0002   10.9169 C   0  0  2  0  0  0
    0.8318   28.6301   12.1759 O   0  0  0  0  0  0
   -0.5844   27.8439   10.3489 C   0  0  1  0  0  0
   -1.4325   26.8127   11.1216 C   0  0  0  0  0  0
   -1.4793   29.4286   10.1758 S   0  0  0  0  0  0
   -0.5593   30.5076    9.1054 C   0  0  0  0  0  0
    0.4937   29.9858    8.4184 N   0  0  0  0  0  0
    1.2174   30.8341    7.6435 C   0  0  0  0  0  0
    2.3450   30.3645    6.9633 N   0  0  0  0  0  0
    3.1321   29.2147    7.0961 C   0  0  0  0  0  0
    3.6591   28.6520    5.9361 C   0  0  0  0  0  0
    4.4622   27.5187    6.0035 C   0  0  0  0  0  0
    4.7373   26.9429    7.2448 C   0  0  0  0  0  0
    4.2367   27.5240    8.4120 C   0  0  0  0  0  0
    3.4507   28.6688    8.3366 C   0  0  0  0  0  0
    5.6881   25.4318    7.3635 S   0  0  1  0  0  0
    6.9032   25.8554    8.1764 N   0  0  0  0  0  0
    4.7927   24.3357    7.7444 O   0  0  0  0  0  0
    6.4579   25.0996    5.6795 C   0  0  0  0  0  0
    0.9418   32.1508    7.4646 N   0  0  0  0  0  0
   -0.1018   32.6526    8.1760 C   0  0  0  0  0  0
   -0.8961   31.8651    9.0102 C   0  0  0  0  0  0
   -2.3419   32.6526    9.9766 Br  0  0  0  0  0  0
    1.6707   26.1910   10.0125 H   0  0  0  0  0  0
    1.3037   26.0101   11.7282 H   0  0  0  0  0  0
    2.7192   26.9146   11.2205 H   0  0  0  0  0  0
    1.3986   28.6789   10.2850 H   0  0  0  0  0  0
    1.5564   28.2579   12.7031 H   0  0  0  0  0  0
   -0.4829   27.4630    9.3323 H   0  0  0  0  0  0
   -0.9072   25.8716   11.2730 H   0  0  0  0  0  0
   -1.7211   27.1936   12.1027 H   0  0  0  0  0  0
   -2.3418   26.5644   10.5782 H   0  0  0  0  0  0
    2.7878   31.0561    6.3764 H   0  0  0  0  0  0
    3.4522   29.0903    4.9760 H   0  0  0  0  0  0
    4.8460   27.0955    5.0881 H   0  0  0  0  0  0
    4.4557   27.0923    9.3760 H   0  0  0  0  0  0
    3.1083   29.1426    9.2385 H   0  0  0  0  0  0
    6.6452   26.0292    9.1422 H   0  0  0  0  0  0
    7.0163   25.9822    5.3652 H   0  0  0  0  0  0
    7.1324   24.2497    5.7729 H   0  0  0  0  0  0
    5.6686   24.8690    4.9649 H   0  0  0  0  0  0
   -0.3024   33.7084    8.0621 H   0  0  0  0  0  0
  1  2  1  0  0  0
  1 25  1  0  0  0
  1 26  1  0  0  0
  1 27  1  0  0  0
  2  3  1  0  0  0
  2  4  1  0  0  0
  2 28  1  0  0  0
  3 29  1  0  0  0
  4  5  1  0  0  0
  4  6  1  0  0  0
  4 30  1  0  0  0
  5 31  1  0  0  0
  5 32  1  0  0  0
  5 33  1  0  0  0
  6  7  1  0  0  0
  7  8  2  0  0  0
  7 23  1  0  0  0
  8  9  1  0  0  0
  9 10  1  0  0  0
  9 21  2  0  0  0
 10 11  1  0  0  0
 10 34  1  0  0  0
 11 12  2  0  0  0
 11 16  1  0  0  0
 12 13  1  0  0  0
 12 35  1  0  0  0
 13 14  2  0  0  0
 13 36  1  0  0  0
 14 15  1  0  0  0
 14 17  1  0  0  0
 15 16  2  0  0  0
 15 37  1  0  0  0
 16 38  1  0  0  0
 17 18  2  0  0  0
 17 19  2  0  0  0
 17 20  1  0  0  0
 18 39  1  0  0  0
 20 40  1  0  0  0
 20 41  1  0  0  0
 20 42  1  0  0  0
 21 22  1  0  0  0
 22 23  2  0  0  0
 22 43  1  0  0  0
 23 24  1  0  0  0
M  END
> <s_m_entry_id>
32765

> <s_m_entry_name>
dock_pv.166

> <s_m_Source_Path>
/home/csk/Desktop/cluster/DUD-E-result/cdk2

> <s_m_Source_File>
dock_pv.maegz

> <i_m_Source_File_Index>
166

> <chembl_id>
CHEMBL3648102

> <chembl_pref_name>
None

> <i_lp_mmshare_version>
53161

> <i_f3d_flags>
0

> <r_lp_tautomer_probability>
0.999999987636

> <s_lp_Force_Field>
OPLS_2005

> <r_lp_Energy>
2.013662

> <b_lp_Chiralities_Consistent>
1

> <s_lp_Variant>
CHEMBL301_lig1380-7

> <s_i_glide_gridfile>
glide-grid_1h00

> <i_i_glide_lignum>
1858

> <i_i_glide_rotatable_bonds>
7

> <r_i_docking_score>
-7.87740995103053

> <r_i_glide_ligand_efficiency>
-0.328225414626272

> <r_i_glide_ligand_efficiency_sa>
-0.946765925414466

> <r_i_glide_ligand_efficiency_ln>
-1.88542567207051

> <r_i_glide_gscore>
-7.87740995103053

> <r_i_glide_lipo>
-2.7422340668904

> <r_i_glide_hbond>
-0.607304723384343

> <r_i_glide_metal>
0

> <r_i_glide_rewards>
-1.53556034873307

> <r_i_glide_evdw>
-36.3243827819824

> <r_i_glide_ecoul>
-11.4034194946289

> <r_i_glide_erotb>
0.534421251270742

> <r_i_glide_esite>
0

> <r_i_glide_emodel>
-69.7351765646595

> <r_i_glide_energy>
-47.7278022766113

> <r_i_glide_einternal>
3.92195820808411

> <i_i_glide_confnum>
41

> <i_i_glide_posenum>
151

> <r_i_glide_eff_state_penalty>
0

> <s_user_duplicate_titles>
CHEMBL301_lig1380

> <s_m_subgroup_title>
dock_pv

> <s_m_subgroupid>
dock_pv

> <b_m_subgroup_collapsed>
1

$$$$
CHEMBL301_lig672
                    3D
 Schrodinger Suite 2021-1.
 34 36  0  0  1  0            999 V2000
    0.1409   30.6480    8.3527 C   0  0  0  0  0  0
   -0.5931   31.8063    8.5761 C   0  0  0  0  0  0
    0.1522   32.7734    7.9599 N   0  0  0  0  0  0
    1.2585   32.3146    7.3715 N   0  0  0  0  0  0
    1.2915   31.0300    7.6363 C   0  0  0  0  0  0
    2.3575   30.2517    7.1994 N   0  0  0  0  0  0
    2.8580   29.1878    7.8659 C   0  0  0  0  0  0
    3.9341   28.3909    7.1604 C   0  0  0  0  0  0
    2.4745   28.8385    8.9821 O   0  0  0  0  0  0
   -1.8840   32.1115    9.3074 C   0  0  0  0  0  0
    3.9294   28.2522    5.7639 C   0  0  0  0  0  0
    4.8081   27.3773    5.1305 C   0  0  0  0  0  0
    5.7324   26.6544    5.8794 C   0  0  0  0  0  0
    5.8143   26.8337    7.2692 C   0  0  0  0  0  0
    4.8890   27.6733    7.8979 C   0  0  0  0  0  0
   -3.0321   31.1362    9.2562 C   0  0  0  0  0  0
   -2.2459   31.3189   10.5389 C   0  0  0  0  0  0
    6.7810   26.2480    8.0645 O   0  0  0  0  0  0
    7.9142   25.6607    7.4310 C   0  0  0  0  0  0
   -0.1038   29.6534    8.6947 H   0  0  0  0  0  0
   -0.0995   33.7523    7.9086 H   0  0  0  0  0  0
    2.9672   30.6574    6.5011 H   0  0  0  0  0  0
   -2.1477   33.1699    9.3248 H   0  0  0  0  0  0
    3.2034   28.7730    5.1588 H   0  0  0  0  0  0
    4.7718   27.2544    4.0577 H   0  0  0  0  0  0
    6.4102   25.9973    5.3570 H   0  0  0  0  0  0
    4.9258   27.7610    8.9758 H   0  0  0  0  0  0
   -4.0602   31.4898    9.2313 H   0  0  0  0  0  0
   -2.8977   30.2518    8.6437 H   0  0  0  0  0  0
   -1.5812   30.5227   10.8758 H   0  0  0  0  0  0
   -2.7058   31.8518   11.3718 H   0  0  0  0  0  0
    8.6795   25.4519    8.1765 H   0  0  0  0  0  0
    7.6515   24.7211    6.9439 H   0  0  0  0  0  0
    8.3642   26.3310    6.6961 H   0  0  0  0  0  0
  1  5  1  0  0  0
  1  2  2  0  0  0
  1 20  1  0  0  0
  2 10  1  0  0  0
  2  3  1  0  0  0
  3  4  1  0  0  0
  3 21  1  0  0  0
  4  5  2  0  0  0
  5  6  1  0  0  0
  6  7  1  0  0  0
  6 22  1  0  0  0
  7  8  1  0  0  0
  7  9  2  0  0  0
  8 11  2  0  0  0
  8 15  1  0  0  0
 10 16  1  0  0  0
 10 17  1  0  0  0
 10 23  1  0  0  0
 11 12  1  0  0  0
 11 24  1  0  0  0
 12 13  2  0  0  0
 12 25  1  0  0  0
 13 14  1  0  0  0
 13 26  1  0  0  0
 14 15  2  0  0  0
 14 18  1  0  0  0
 15 27  1  0  0  0
 16 17  1  0  0  0
 16 28  1  0  0  0
 16 29  1  0  0  0
 17 30  1  0  0  0
 17 31  1  0  0  0
 18 19  1  0  0  0
 19 32  1  0  0  0
 19 33  1  0  0  0
 19 34  1  0  0  0
M  END
> <s_m_entry_id>
32766

> <s_m_entry_name>
dock_pv.167

> <s_m_Source_Path>
/home/csk/Desktop/cluster/DUD-E-result/cdk2

> <s_m_Source_File>
dock_pv.maegz

> <i_m_Source_File_Index>
167

> <chembl_id>
CHEMBL420135

> <chembl_pref_name>
None

> <i_lp_mmshare_version>
53161

> <i_f3d_flags>
0

> <r_lp_tautomer_probability>
0.5

> <s_lp_Force_Field>
OPLS_2005

> <r_lp_Energy>
19.756349

> <b_lp_Chiralities_Consistent>
1

> <s_lp_Variant>
CHEMBL301_lig672-1

> <s_i_glide_gridfile>
glide-grid_1h00

> <i_i_glide_lignum>
928

> <i_i_glide_rotatable_bonds>
5

> <r_i_docking_score>
-7.86996762518258

> <r_i_glide_ligand_efficiency>
-0.41420882237803

> <r_i_glide_ligand_efficiency_sa>
-1.10527550346391

> <r_i_glide_ligand_efficiency_ln>
-1.99520582438968

> <r_i_glide_gscore>
-7.86996762518258

> <r_i_glide_lipo>
-2.64048013377698

> <r_i_glide_hbond>
-0.54263850226144

> <r_i_glide_metal>
0

> <r_i_glide_rewards>
-3.15744978328609

> <r_i_glide_evdw>
-31.6670913696289

> <r_i_glide_ecoul>
-4.61532497406006

> <r_i_glide_erotb>
0.746254108732378

> <r_i_glide_esite>
0

> <r_i_glide_emodel>
-47.4623236554474

> <r_i_glide_energy>
-36.282416343689

> <r_i_glide_einternal>
7.14313936233521

> <i_i_glide_confnum>
8

> <i_i_glide_posenum>
166

> <r_i_glide_eff_state_penalty>
0

> <s_user_duplicate_titles>
CHEMBL301_lig672,187378

> <s_m_subgroup_title>
dock_pv

> <s_m_subgroupid>
dock_pv

> <b_m_subgroup_collapsed>
1

$$$$
CHEMBL301_lig1405
                    3D
 Schrodinger Suite 2021-1.
 48 49  0  0  1  0            999 V2000
    5.2505   27.3720    7.9496 C   0  0  0  0  0  0
    4.4132   28.6614    7.9050 C   0  0  1  0  0  0
    4.3392   29.0518    6.5415 O   0  0  0  0  0  0
    2.9699   28.5232    8.4733 C   0  0  1  0  0  0
    2.8549   27.7304    9.8037 C   0  0  0  0  0  0
    2.2613   29.8073    8.3771 N   0  0  0  0  0  0
    0.9255   30.0879    8.7067 C   0  0  0  0  0  0
    0.2707   29.3180    9.6089 N   0  0  0  0  0  0
   -0.9475   29.7418   10.0377 C   0  0  0  0  0  0
   -1.5833   29.0105   11.0480 N   0  0  0  0  0  0
   -1.2817   27.7056   11.4622 C   0  0  0  0  0  0
   -1.1045   26.6971   10.5149 C   0  0  0  0  0  0
   -0.7668   25.4149   10.9195 C   0  0  0  0  0  0
   -0.5671   25.1311   12.2701 C   0  0  0  0  0  0
   -0.7693   26.1340   13.2245 C   0  0  0  0  0  0
   -1.1426   27.4166   12.8193 C   0  0  0  0  0  0
   -0.0277   23.4882   12.7717 S   0  0  2  0  0  0
   -0.9376   22.5483   11.9768 N   0  0  0  0  0  0
    0.0578   23.4527   14.2351 O   0  0  0  0  0  0
    1.6966   23.2197   12.0065 C   0  0  0  0  0  0
    1.6584   23.1391   10.4682 C   0  0  0  0  0  0
    2.8573   22.6140    9.9431 O   0  0  0  0  0  0
   -1.5790   30.8596    9.6033 N   0  0  0  0  0  0
   -0.9260   31.5939    8.6656 C   0  0  0  0  0  0
    0.3351   31.2434    8.1764 C   0  0  0  0  0  0
    1.2578   32.3992    6.9760 Br  0  0  0  0  0  0
    5.5708   27.1496    8.9680 H   0  0  0  0  0  0
    6.1486   27.4506    7.3379 H   0  0  0  0  0  0
    4.6855   26.5164    7.5782 H   0  0  0  0  0  0
    4.9553   29.4390    8.4470 H   0  0  0  0  0  0
    4.4583   30.0133    6.4625 H   0  0  0  0  0  0
    2.4594   27.8795    7.7761 H   0  0  0  0  0  0
    3.3844   26.7808    9.7447 H   0  0  0  0  0  0
    3.2578   28.2521   10.6640 H   0  0  0  0  0  0
    1.8312   27.4516   10.0431 H   0  0  0  0  0  0
    2.6339   30.4193    7.6658 H   0  0  0  0  0  0
   -2.3980   29.4468   11.4591 H   0  0  0  0  0  0
   -1.2083   26.9097    9.4611 H   0  0  0  0  0  0
   -0.6495   24.6520   10.1739 H   0  0  0  0  0  0
   -0.6273   25.9289   14.2753 H   0  0  0  0  0  0
   -1.2948   28.1936   13.5527 H   0  0  0  0  0  0
   -0.7433   21.5747   12.1736 H   0  0  0  0  0  0
    2.3191   24.0488   12.3406 H   0  0  0  0  0  0
    2.0748   22.2946   12.4381 H   0  0  0  0  0  0
    0.8611   22.4731   10.1472 H   0  0  0  0  0  0
    1.4791   24.1148   10.0178 H   0  0  0  0  0  0
    2.7786   22.6125    8.9816 H   0  0  0  0  0  0
   -1.4110   32.5035    8.3427 H   0  0  0  0  0  0
  1  2  1  0  0  0
  1 27  1  0  0  0
  1 28  1  0  0  0
  1 29  1  0  0  0
  2  3  1  0  0  0
  2  4  1  0  0  0
  2 30  1  0  0  0
  3 31  1  0  0  0
  4  5  1  0  0  0
  4  6  1  0  0  0
  4 32  1  0  0  0
  5 33  1  0  0  0
  5 34  1  0  0  0
  5 35  1  0  0  0
  6  7  1  0  0  0
  6 36  1  0  0  0
  7  8  2  0  0  0
  7 25  1  0  0  0
  8  9  1  0  0  0
  9 10  1  0  0  0
  9 23  2  0  0  0
 10 11  1  0  0  0
 10 37  1  0  0  0
 11 12  2  0  0  0
 11 16  1  0  0  0
 12 13  1  0  0  0
 12 38  1  0  0  0
 13 14  2  0  0  0
 13 39  1  0  0  0
 14 15  1  0  0  0
 14 17  1  0  0  0
 15 16  2  0  0  0
 15 40  1  0  0  0
 16 41  1  0  0  0
 17 18  2  0  0  0
 17 19  2  0  0  0
 17 20  1  0  0  0
 18 42  1  0  0  0
 20 21  1  0  0  0
 20 43  1  0  0  0
 20 44  1  0  0  0
 21 22  1  0  0  0
 21 45  1  0  0  0
 21 46  1  0  0  0
 22 47  1  0  0  0
 23 24  1  0  0  0
 24 25  2  0  0  0
 24 48  1  0  0  0
 25 26  1  0  0  0
M  END
> <s_m_entry_id>
32767

> <s_m_entry_name>
dock_pv.168

> <s_m_Source_Path>
/home/csk/Desktop/cluster/DUD-E-result/cdk2

> <s_m_Source_File>
dock_pv.maegz

> <i_m_Source_File_Index>
168

> <chembl_id>
CHEMBL3648109

> <chembl_pref_name>
None

> <i_lp_mmshare_version>
53161

> <i_f3d_flags>
0

> <r_lp_tautomer_probability>
0.999999624730965

> <s_lp_Force_Field>
OPLS_2005

> <r_lp_Energy>
11.955331

> <b_lp_Chiralities_Consistent>
1

> <s_lp_Variant>
CHEMBL301_lig1405-1

> <s_i_glide_gridfile>
glide-grid_1h00

> <i_i_glide_lignum>
1916

> <i_i_glide_rotatable_bonds>
10

> <r_i_docking_score>
-7.8688632469851

> <r_i_glide_ligand_efficiency>
-0.302648586422504

> <r_i_glide_ligand_efficiency_sa>
-0.896595246411985

> <r_i_glide_ligand_efficiency_ln>
-1.84797671370818

> <r_i_glide_gscore>
-7.8688632469851

> <r_i_glide_lipo>
-2.80193711198429

> <r_i_glide_hbond>
-0.71424827147303

> <r_i_glide_metal>
0

> <r_i_glide_rewards>
-1.09037210973579

> <r_i_glide_evdw>
-36.3300437927246

> <r_i_glide_ecoul>
-15.040828704834

> <r_i_glide_erotb>
0.810320741569342

> <r_i_glide_esite>
0

> <r_i_glide_emodel>
-71.096899649165

> <r_i_glide_energy>
-51.3708724975586

> <r_i_glide_einternal>
6.61941719055176

> <i_i_glide_confnum>
71

> <i_i_glide_posenum>
283

> <r_i_glide_eff_state_penalty>
0

> <s_user_duplicate_titles>
CHEMBL301_lig1405

> <s_m_subgroup_title>
dock_pv

> <s_m_subgroupid>
dock_pv

> <b_m_subgroup_collapsed>
1

$$$$
CHEMBL301_lig1440
                    3D
 Schrodinger Suite 2021-1.
 52 55  0  0  1  0            999 V2000
    0.0970   32.7045    8.0212 C   0  0  0  0  0  0
   -0.7419   31.8189    8.9396 C   0  0  0  0  0  0
   -1.9039   32.3921    9.3431 N   0  0  0  0  0  0
   -2.7198   31.6783   10.1512 C   0  0  0  0  0  0
   -2.4157   30.3886   10.5757 C   0  0  0  0  0  0
   -1.2152   29.7917   10.1871 C   0  0  0  0  0  0
   -0.9344   28.4152   10.6859 C   0  0  0  0  0  0
   -0.7424   27.3602    9.7913 C   0  0  0  0  0  0
   -0.5327   26.0651   10.2518 C   0  0  0  0  0  0
   -0.4818   25.7990   11.6245 C   0  0  0  0  0  0
   -0.2030   24.3884   12.0718 C   0  0  0  0  0  0
   -1.1403   23.6960   12.4734 O   0  0  0  0  0  0
    1.0763   23.9342   11.9792 N   0  0  0  0  0  0
    1.3934   22.5184   12.2283 C   0  0  0  0  0  0
    1.7410   21.9169   10.8425 C   0  0  0  0  0  0
    2.7945   22.6542   10.2124 O   0  0  0  0  0  0
    2.4959   24.0439   10.0413 C   0  0  0  0  0  0
    2.1876   24.7112   11.3998 C   0  0  0  0  0  0
   -0.6571   26.8562   12.5357 C   0  0  0  0  0  0
   -0.5802   26.6276   14.2508 Cl  0  0  0  0  0  0
   -0.8932   28.1470   12.0588 C   0  0  0  0  0  0
   -0.3475   30.5253    9.3453 C   0  0  0  0  0  0
    0.9416   29.9722    8.9329 C   0  0  0  0  0  0
    1.9856   29.4521    8.5759 C   0  0  0  0  0  0
    3.1370   28.7338    8.0653 C   0  0  0  0  0  0
    3.6772   27.6489    8.7600 C   0  0  0  0  0  0
    4.7144   26.9182    8.1758 C   0  0  0  0  0  0
    5.1945   27.3119    6.9308 C   0  0  0  0  0  0
    6.2658   26.6480    6.3563 N   0  0  0  0  0  0
    4.6765   28.3525    6.2403 N   0  0  0  0  0  0
    3.6580   29.0448    6.8083 C   0  0  0  0  0  0
    0.8581   33.2460    8.5760 H   0  0  0  0  0  0
    0.5962   32.1220    7.2485 H   0  0  0  0  0  0
   -0.5111   33.4520    7.5187 H   0  0  0  0  0  0
   -3.6338   32.1598   10.4684 H   0  0  0  0  0  0
   -3.1045   29.8544   11.2160 H   0  0  0  0  0  0
   -0.7761   27.5435    8.7277 H   0  0  0  0  0  0
   -0.4071   25.2716    9.5292 H   0  0  0  0  0  0
    2.2856   22.5356   12.8548 H   0  0  0  0  0  0
    0.6388   21.9733   12.7990 H   0  0  0  0  0  0
    0.8610   21.8992   10.1969 H   0  0  0  0  0  0
    2.0475   20.8771   10.9555 H   0  0  0  0  0  0
    1.6428   24.1613    9.3759 H   0  0  0  0  0  0
    3.3314   24.5460    9.5533 H   0  0  0  0  0  0
    2.0639   25.7958   11.3884 H   0  0  0  0  0  0
    3.0227   24.5536   12.0821 H   0  0  0  0  0  0
   -1.0426   28.9516   12.7649 H   0  0  0  0  0  0
    3.2957   27.3567    9.7284 H   0  0  0  0  0  0
    5.1444   26.0688    8.6806 H   0  0  0  0  0  0
    6.7508   25.9426    6.8869 H   0  0  0  0  0  0
    6.7387   27.1478    5.6109 H   0  0  0  0  0  0
    3.2575   29.8519    6.2135 H   0  0  0  0  0  0
  1  2  1  0  0  0
  1 32  1  0  0  0
  1 33  1  0  0  0
  1 34  1  0  0  0
  2  3  2  0  0  0
  2 22  1  0  0  0
  3  4  1  0  0  0
  4  5  2  0  0  0
  4 35  1  0  0  0
  5  6  1  0  0  0
  5 36  1  0  0  0
  6  7  1  0  0  0
  6 22  2  0  0  0
  7  8  2  0  0  0
  7 21  1  0  0  0
  8  9  1  0  0  0
  8 37  1  0  0  0
  9 10  2  0  0  0
  9 38  1  0  0  0
 10 11  1  0  0  0
 10 19  1  0  0  0
 11 12  2  0  0  0
 11 13  1  0  0  0
 13 14  1  0  0  0
 13 18  1  0  0  0
 14 15  1  0  0  0
 14 39  1  0  0  0
 14 40  1  0  0  0
 15 16  1  0  0  0
 15 41  1  0  0  0
 15 42  1  0  0  0
 16 17  1  0  0  0
 17 18  1  0  0  0
 17 43  1  0  0  0
 17 44  1  0  0  0
 18 45  1  0  0  0
 18 46  1  0  0  0
 19 20  1  0  0  0
 19 21  2  0  0  0
 21 47  1  0  0  0
 22 23  1  0  0  0
 23 24  3  0  0  0
 24 25  1  0  0  0
 25 26  2  0  0  0
 25 31  1  0  0  0
 26 27  1  0  0  0
 26 48  1  0  0  0
 27 28  2  0  0  0
 27 49  1  0  0  0
 28 29  1  0  0  0
 28 30  1  0  0  0
 29 50  1  0  0  0
 29 51  1  0  0  0
 30 31  2  0  0  0
 31 52  1  0  0  0
M  END
> <s_m_entry_id>
32768

> <s_m_entry_name>
dock_pv.169

> <s_m_Source_Path>
/home/csk/Desktop/cluster/DUD-E-result/cdk2

> <s_m_Source_File>
dock_pv.maegz

> <i_m_Source_File_Index>
169

> <chembl_id>
CHEMBL3701062

> <chembl_pref_name>
None

> <i_lp_mmshare_version>
53161

> <i_f3d_flags>
0

> <r_lp_tautomer_probability>
1

> <s_lp_Force_Field>
OPLS_2005

> <r_lp_Energy>
39.735508

> <b_lp_Chiralities_Consistent>
1

> <s_lp_Variant>
CHEMBL301_lig1440-1

> <s_i_glide_gridfile>
glide-grid_1h00

> <i_i_glide_lignum>
1953

> <i_i_glide_rotatable_bonds>
5

> <r_i_docking_score>
-7.86602359821588

> <r_i_glide_ligand_efficiency>
-0.253742696716641

> <r_i_glide_ligand_efficiency_sa>
-0.797102397238861

> <r_i_glide_ligand_efficiency_ln>
-1.77402938607019

> <r_i_glide_gscore>
-7.86602359821588

> <r_i_glide_lipo>
-3.55467929526465

> <r_i_glide_hbond>
-0.396744744725924

> <r_i_glide_metal>
0

> <r_i_glide_rewards>
-1.02758084015533

> <r_i_glide_evdw>
-44.8522987365723

> <r_i_glide_ecoul>
-7.80457544326782

> <r_i_glide_erotb>
0.531006010827528

> <r_i_glide_esite>
-0.00472347557871351

> <r_i_glide_emodel>
-74.3744785487991

> <r_i_glide_energy>
-52.6568741798401

> <r_i_glide_einternal>
3.06918001174927

> <i_i_glide_confnum>
25

> <i_i_glide_posenum>
91

> <r_i_glide_eff_state_penalty>
0

> <s_user_duplicate_titles>
CHEMBL301_lig1440

> <s_m_subgroup_title>
dock_pv

> <s_m_subgroupid>
dock_pv

> <b_m_subgroup_collapsed>
1

$$$$
CHEMBL301_lig1272
                    3D
 Schrodinger Suite 2021-1.
 39 42  0  0  1  0            999 V2000
   -1.4106   32.2936    9.1327 C   0  0  0  0  0  0
   -1.5550   31.1818    9.9614 C   0  0  0  0  0  0
   -0.6343   30.1272    9.9083 C   0  0  0  0  0  0
   -0.3625   32.3817    8.2069 C   0  0  0  0  0  0
    0.5390   31.3124    8.1159 C   0  0  0  0  0  0
    0.3908   30.2342    8.9882 N   0  0  0  0  0  0
    1.4598   29.4290    8.8254 N   0  0  0  0  0  0
    2.1236   29.9793    7.8232 C   0  0  0  0  0  0
    1.6342   31.1071    7.3398 N   0  0  0  0  0  0
   -0.7283   28.9268   10.8024 C   0  0  0  0  0  0
   -1.1327   29.0726   12.1326 C   0  0  0  0  0  0
   -1.2123   27.9682   12.9758 C   0  0  0  0  0  0
   -0.9023   26.6913   12.5161 C   0  0  0  0  0  0
   -0.5167   26.5306   11.1784 C   0  0  0  0  0  0
   -0.4394   27.6365   10.3359 C   0  0  0  0  0  0
    3.2566   29.4520    7.2315 N   0  0  0  0  0  0
    3.9252   28.3333    7.5721 C   0  0  0  0  0  0
    4.9885   27.9010    6.5496 C   0  0  0  0  0  0
    3.6693   27.6424    8.5616 O   0  0  0  0  0  0
    6.0658   26.9496    7.0242 C   0  0  0  0  0  0
    4.9397   26.4351    6.1530 C   0  0  0  0  0  0
   -1.0092   25.6642   13.4326 O   0  0  0  0  0  0
   -0.7312   24.3312   13.0154 C   0  0  0  0  0  0
   -2.1215   33.1041    9.2115 H   0  0  0  0  0  0
   -2.3812   31.1509   10.6599 H   0  0  0  0  0  0
   -0.2469   33.2550    7.5835 H   0  0  0  0  0  0
   -1.3873   30.0456   12.5306 H   0  0  0  0  0  0
   -1.5410   28.1054   13.9952 H   0  0  0  0  0  0
   -0.2708   25.5618   10.7734 H   0  0  0  0  0  0
   -0.1475   27.4742    9.3104 H   0  0  0  0  0  0
    3.6351   30.0117    6.4775 H   0  0  0  0  0  0
    5.2577   28.6482    5.8010 H   0  0  0  0  0  0
    6.1154   26.6600    8.0763 H   0  0  0  0  0  0
    7.0557   27.0518    6.5778 H   0  0  0  0  0  0
    5.1503   26.1674    5.1170 H   0  0  0  0  0  0
    4.1892   25.7718    6.5904 H   0  0  0  0  0  0
   -0.8644   23.6523   13.8585 H   0  0  0  0  0  0
   -1.4130   24.0120   12.2261 H   0  0  0  0  0  0
    0.2980   24.2258   12.6695 H   0  0  0  0  0  0
  1  2  1  0  0  0
  1  4  2  0  0  0
  1 24  1  0  0  0
  2  3  2  0  0  0
  2 25  1  0  0  0
  3  6  1  0  0  0
  3 10  1  0  0  0
  4  5  1  0  0  0
  4 26  1  0  0  0
  5  6  1  0  0  0
  5  9  2  0  0  0
  6  7  1  0  0  0
  7  8  2  0  0  0
  8  9  1  0  0  0
  8 16  1  0  0  0
 10 11  2  0  0  0
 10 15  1  0  0  0
 11 12  1  0  0  0
 11 27  1  0  0  0
 12 13  2  0  0  0
 12 28  1  0  0  0
 13 14  1  0  0  0
 13 22  1  0  0  0
 14 15  2  0  0  0
 14 29  1  0  0  0
 15 30  1  0  0  0
 16 17  1  0  0  0
 16 31  1  0  0  0
 17 18  1  0  0  0
 17 19  2  0  0  0
 18 20  1  0  0  0
 18 21  1  0  0  0
 18 32  1  0  0  0
 20 21  1  0  0  0
 20 33  1  0  0  0
 20 34  1  0  0  0
 21 35  1  0  0  0
 21 36  1  0  0  0
 22 23  1  0  0  0
 23 37  1  0  0  0
 23 38  1  0  0  0
 23 39  1  0  0  0
M  END
> <s_m_entry_id>
32769

> <s_m_entry_name>
dock_pv.170

> <s_m_Source_Path>
/home/csk/Desktop/cluster/DUD-E-result/cdk2

> <s_m_Source_File>
dock_pv.maegz

> <i_m_Source_File_Index>
170

> <chembl_id>
CHEMBL3360318

> <chembl_pref_name>
None

> <i_lp_mmshare_version>
53161

> <i_f3d_flags>
0

> <r_lp_tautomer_probability>
1

> <s_lp_Force_Field>
OPLS_2005

> <r_lp_Energy>
23.482884

> <b_lp_Chiralities_Consistent>
1

> <s_lp_Variant>
CHEMBL301_lig1272-1

> <s_i_glide_gridfile>
glide-grid_1h00

> <i_i_glide_lignum>
1688

> <i_i_glide_rotatable_bonds>
5

> <r_i_docking_score>
-7.85727711710728

> <r_i_glide_ligand_efficiency>
-0.341620744222056

> <r_i_glide_ligand_efficiency_sa>
-0.971523953110019

> <r_i_glide_ligand_efficiency_ln>
-1.8999608527664

> <r_i_glide_gscore>
-7.85727711710728

> <r_i_glide_lipo>
-2.31827052249794

> <r_i_glide_hbond>
-0.28790788760468

> <r_i_glide_metal>
0

> <r_i_glide_rewards>
-3.69022568962547

> <r_i_glide_evdw>
-35.9365730285645

> <r_i_glide_ecoul>
-3.59868025779724

> <r_i_glide_erotb>
0.778373032024261

> <r_i_glide_esite>
-0.0026153593056445

> <r_i_glide_emodel>
-58.1257309112748

> <r_i_glide_energy>
-39.5352532863617

> <r_i_glide_einternal>
1.58535051345825

> <i_i_glide_confnum>
7

> <i_i_glide_posenum>
275

> <r_i_glide_eff_state_penalty>
0

> <s_user_duplicate_titles>
CHEMBL301_lig1272

> <s_m_subgroup_title>
dock_pv

> <s_m_subgroupid>
dock_pv

> <b_m_subgroup_collapsed>
1

$$$$
CHEMBL301_lig14
                    3D
 Schrodinger Suite 2021-1.
 59 61  0  0  1  0            999 V2000
    1.8225   28.1967    9.9100 N   0  0  0  0  0  0
    0.8353   28.1970   10.8171 C   0  0  0  0  0  0
   -0.2416   28.9879   10.8885 N   0  0  0  0  0  0
   -0.3916   29.9408    9.9340 C   0  0  0  0  0  0
    1.6580   29.1647    8.9753 C   0  0  0  0  0  0
    0.5939   30.0515    8.9225 C   0  0  0  0  0  0
    0.7150   30.8971    7.8840 N   0  0  0  0  0  0
    1.8384   30.5447    7.3112 C   0  0  0  0  0  0
    2.4110   29.4520    7.8545 N   0  0  0  0  0  0
   -1.5075   30.7674   10.0173 N   0  0  0  0  0  0
    3.7073   28.8136    7.3622 C   0  0  2  0  0  0
    3.6580   28.5252    5.9905 O   0  0  0  0  0  0
    4.7932   27.7222    5.6976 C   0  0  1  0  0  0
    4.7611   26.7153    6.8376 C   0  0  2  0  0  0
    4.2039   27.5103    8.0239 C   0  0  1  0  0  0
    6.0279   26.1196    7.0697 O   0  0  0  0  0  0
    5.1805   27.8520    8.9760 O   0  0  0  0  0  0
    4.7886   27.0765    4.3044 C   0  0  0  0  0  0
    5.5267   27.8520    3.3760 O   0  0  0  0  0  0
    6.8339   27.2711    2.5889 P   0  0  2  0  0  0
    6.4084   25.7643    2.1982 O   0  0  0  0  0  0
    7.9083   27.0520    3.7760 O   0  0  0  0  0  0
    7.2858   28.1283    1.4603 O   0  0  0  0  0  0
    6.9814   24.1622    2.1741 P   0  0  1  0  0  0
    5.7644   23.1969    2.8707 O   0  0  0  0  0  0
    6.8580   23.7551    0.5259 O   0  0  0  0  0  0
    8.3553   23.9617    2.7677 O   0  0  0  0  0  0
    4.5977   23.2843    3.9784 P   0  0  1  0  0  0
    3.6580   21.9125    3.6814 N   0  0  1  0  0  0
    5.0608   23.5222    5.3700 O   0  0  0  0  0  0
    3.6550   24.4511    3.3760 O   0  0  0  0  0  0
    4.0268   20.5576    4.0799 C   0  0  0  0  0  0
    4.1428   20.3247    5.6033 C   0  0  0  0  0  0
    3.0099   20.8958    6.4883 C   0  0  0  0  0  0
    1.6306   20.5037    6.1446 C   0  0  0  0  0  0
    0.4580   20.2520    5.9169 C   0  0  0  0  0  0
    0.9214   27.4550   11.5979 H   0  0  0  0  0  0
    2.2781   31.0082    6.4383 H   0  0  0  0  0  0
   -1.5950   31.5396    9.3736 H   0  0  0  0  0  0
   -2.1346   30.6519   10.8017 H   0  0  0  0  0  0
    4.4526   29.6033    7.5024 H   0  0  0  0  0  0
    5.6580   28.3664    5.7920 H   0  0  0  0  0  0
    4.0571   25.9219    6.5843 H   0  0  0  0  0  0
    3.3816   26.9511    8.4647 H   0  0  0  0  0  0
    6.5758   26.7713    7.5141 H   0  0  0  0  0  0
    5.2580   27.1291    9.6232 H   0  0  0  0  0  0
    3.7682   26.9547    3.9421 H   0  0  0  0  0  0
    5.2255   26.0821    4.3790 H   0  0  0  0  0  0
    7.9792   27.8054    4.4125 H   0  0  0  0  0  0
    5.9898   23.8634    0.0798 H   0  0  0  0  0  0
    2.6563   22.0719    3.5412 H   0  0  0  0  0  0
    3.7482   24.5669    2.3920 H   0  0  0  0  0  0
    4.9725   20.3022    3.5990 H   0  0  0  0  0  0
    3.2831   19.8788    3.6623 H   0  0  0  0  0  0
    5.0843   20.7563    5.9464 H   0  0  0  0  0  0
    4.2370   19.2529    5.7829 H   0  0  0  0  0  0
    3.0396   21.9847    6.4608 H   0  0  0  0  0  0
    3.1763   20.6174    7.5291 H   0  0  0  0  0  0
   -0.5870   20.0884    5.7760 H   0  0  0  0  0  0
  1  2  2  0  0  0
  1  5  1  0  0  0
  2  3  1  0  0  0
  2 37  1  0  0  0
  3  4  2  0  0  0
  4  6  1  0  0  0
  4 10  1  0  0  0
  5  9  1  0  0  0
  5  6  2  0  0  0
  6  7  1  0  0  0
  7  8  2  0  0  0
  8  9  1  0  0  0
  8 38  1  0  0  0
  9 11  1  0  0  0
 10 39  1  0  0  0
 10 40  1  0  0  0
 11 12  1  0  0  0
 11 15  1  0  0  0
 11 41  1  0  0  0
 12 13  1  0  0  0
 13 18  1  0  0  0
 13 14  1  0  0  0
 13 42  1  0  0  0
 14 15  1  0  0  0
 14 16  1  0  0  0
 14 43  1  0  0  0
 15 17  1  0  0  0
 15 44  1  0  0  0
 16 45  1  0  0  0
 17 46  1  0  0  0
 18 19  1  0  0  0
 18 47  1  0  0  0
 18 48  1  0  0  0
 19 20  1  0  0  0
 20 21  1  0  0  0
 20 22  1  0  0  0
 20 23  2  0  0  0
 21 24  1  0  0  0
 22 49  1  0  0  0
 24 25  1  0  0  0
 24 26  1  0  0  0
 24 27  2  0  0  0
 25 28  1  0  0  0
 26 50  1  0  0  0
 28 29  1  0  0  0
 28 30  2  0  0  0
 28 31  1  0  0  0
 29 32  1  0  0  0
 29 51  1  0  0  0
 31 52  1  0  0  0
 32 33  1  0  0  0
 32 53  1  0  0  0
 32 54  1  0  0  0
 33 34  1  0  0  0
 33 55  1  0  0  0
 33 56  1  0  0  0
 34 35  1  0  0  0
 34 57  1  0  0  0
 34 58  1  0  0  0
 35 36  3  0  0  0
 36 59  1  0  0  0
M  END
> <s_m_entry_id>
32770

> <s_m_entry_name>
dock_pv.171

> <s_m_Source_Path>
/home/csk/Desktop/cluster/DUD-E-result/cdk2

> <s_m_Source_File>
dock_pv.maegz

> <i_m_Source_File_Index>
171

> <chembl_id>
CHEMBL560883

> <chembl_pref_name>
None

> <i_lp_mmshare_version>
53161

> <i_f3d_flags>
0

> <r_lp_tautomer_probability>
0.999997216410988

> <s_lp_Force_Field>
OPLS_2005

> <r_lp_Energy>
26.755576

> <b_lp_Chiralities_Consistent>
1

> <s_lp_Variant>
CHEMBL301_lig14-3

> <s_i_glide_gridfile>
glide-grid_1h00

> <i_i_glide_lignum>
66

> <i_i_glide_rotatable_bonds>
18

> <r_i_docking_score>
-7.85479362227716

> <r_i_glide_ligand_efficiency>
-0.218188711729921

> <r_i_glide_ligand_efficiency_sa>
-0.720443251801668

> <r_i_glide_ligand_efficiency_ln>
-1.71370375638132

> <r_i_glide_gscore>
-7.85479362227716

> <r_i_glide_lipo>
-1.0349756488844

> <r_i_glide_hbond>
-0.32

> <r_i_glide_metal>
0

> <r_i_glide_rewards>
-1.33281274789847

> <r_i_glide_evdw>
-36.0886993408203

> <r_i_glide_ecoul>
-26.3327255249023

> <r_i_glide_erotb>
0.735727852696252

> <r_i_glide_esite>
-0.148389282414184

> <r_i_glide_emodel>
-80.6817917083845

> <r_i_glide_energy>
-62.4214248657227

> <r_i_glide_einternal>
27.2789573669434

> <i_i_glide_confnum>
53

> <i_i_glide_posenum>
274

> <r_i_glide_eff_state_penalty>
0

> <s_user_duplicate_titles>
CHEMBL301_lig14

> <s_m_subgroup_title>
dock_pv

> <s_m_subgroupid>
dock_pv

> <b_m_subgroup_collapsed>
1

$$$$
CHEMBL301_lig4
                    3D
 Schrodinger Suite 2021-1.
 54 57  0  0  1  0            999 V2000
    4.2933   28.0542    8.4901 C   0  0  0  0  0  0
    5.3517   27.3013    7.9924 C   0  0  0  0  0  0
    5.5680   27.2266    6.6214 C   0  0  0  0  0  0
    4.7104   27.8943    5.7397 C   0  0  0  0  0  0
    3.6580   28.6521    6.2445 C   0  0  0  0  0  0
    3.4282   28.7354    7.6250 C   0  0  0  0  0  0
    2.2560   29.4506    8.1760 C   0  0  0  0  0  0
    1.6225   30.5231    7.6460 C   0  0  0  0  0  0
    0.3937   31.0524    8.2508 C   0  0  0  0  0  0
   -0.1203   32.1219    7.9301 O   0  0  0  0  0  0
   -0.1112   30.2509    9.4205 C   0  0  0  0  0  0
    0.6216   29.1334    9.8565 C   0  0  0  0  0  0
    1.7647   28.7246    9.2129 O   0  0  0  0  0  0
    0.2775   28.4041   11.0011 C   0  0  0  0  0  0
   -0.7988   28.8516   11.7729 C   0  0  0  0  0  0
   -1.5410   29.9359   11.3423 C   0  0  0  0  0  0
   -1.2300   30.6257   10.1804 C   0  0  0  0  0  0
   -2.0404   31.6834    9.8653 O   0  0  0  0  0  0
   -1.1421   28.2932   12.9753 O   0  0  0  0  0  0
    1.0555   27.3271   11.3756 O   0  0  0  0  0  0
    0.5043   26.0487   11.2326 C   0  0  1  0  0  0
    1.6628   25.0364   11.2512 C   0  0  1  0  0  0
    1.0979   23.5921   11.1943 C   0  0  2  0  0  0
   -0.0659   23.3479   12.1809 C   0  0  1  0  0  0
   -1.0511   24.5416   12.2035 C   0  0  2  0  0  0
   -0.3331   25.7702   12.3184 O   0  0  0  0  0  0
   -2.0520   24.4996   13.3783 C   0  0  0  0  0  0
   -1.3930   24.6550   14.6223 O   0  0  0  0  0  0
   -0.7386   22.1423   11.8400 O   0  0  0  0  0  0
    2.0933   22.5984   11.3765 O   0  0  0  0  0  0
    2.5496   25.2654   10.1703 O   0  0  0  0  0  0
    2.0570   31.2412    6.5677 O   0  0  0  0  0  0
    4.8740   27.8087    4.3805 O   0  0  0  0  0  0
    6.6648   26.5513    6.1628 O   0  0  0  0  0  0
    4.1258   28.0825    9.5564 H   0  0  0  0  0  0
    6.0103   26.7846    8.6744 H   0  0  0  0  0  0
    2.9907   29.1312    5.5449 H   0  0  0  0  0  0
   -2.3419   30.2793   11.9602 H   0  0  0  0  0  0
   -2.7406   31.8030   10.5111 H   0  0  0  0  0  0
   -1.9723   28.6495   13.3139 H   0  0  0  0  0  0
   -0.0876   25.9928   10.3136 H   0  0  0  0  0  0
    2.2223   25.1847   12.1763 H   0  0  0  0  0  0
    0.7424   23.4571   10.1764 H   0  0  0  0  0  0
    0.3522   23.2231   13.1820 H   0  0  0  0  0  0
   -1.6269   24.5524   11.2745 H   0  0  0  0  0  0
   -2.6001   23.5589   13.3847 H   0  0  0  0  0  0
   -2.7862   25.2995   13.2693 H   0  0  0  0  0  0
   -0.9106   25.4876   14.5753 H   0  0  0  0  0  0
   -0.7261   21.5414   12.5949 H   0  0  0  0  0  0
    1.6428   21.7514   11.4584 H   0  0  0  0  0  0
    3.1669   25.9609   10.4205 H   0  0  0  0  0  0
    2.9905   31.0514    6.3860 H   0  0  0  0  0  0
    5.4993   27.1210    4.1379 H   0  0  0  0  0  0
    7.2573   27.1732    5.7167 H   0  0  0  0  0  0
  1  2  2  0  0  0
  1  6  1  0  0  0
  1 35  1  0  0  0
  2  3  1  0  0  0
  2 36  1  0  0  0
  3  4  2  0  0  0
  3 34  1  0  0  0
  4  5  1  0  0  0
  4 33  1  0  0  0
  5  6  2  0  0  0
  5 37  1  0  0  0
  6  7  1  0  0  0
  7  8  2  0  0  0
  7 13  1  0  0  0
  8  9  1  0  0  0
  8 32  1  0  0  0
  9 10  2  0  0  0
  9 11  1  0  0  0
 11 12  2  0  0  0
 11 17  1  0  0  0
 12 13  1  0  0  0
 12 14  1  0  0  0
 14 15  2  0  0  0
 14 20  1  0  0  0
 15 16  1  0  0  0
 15 19  1  0  0  0
 16 17  2  0  0  0
 16 38  1  0  0  0
 17 18  1  0  0  0
 18 39  1  0  0  0
 19 40  1  0  0  0
 20 21  1  0  0  0
 21 22  1  0  0  0
 21 26  1  0  0  0
 21 41  1  0  0  0
 22 23  1  0  0  0
 22 31  1  0  0  0
 22 42  1  0  0  0
 23 24  1  0  0  0
 23 30  1  0  0  0
 23 43  1  0  0  0
 24 25  1  0  0  0
 24 29  1  0  0  0
 24 44  1  0  0  0
 25 26  1  0  0  0
 25 27  1  0  0  0
 25 45  1  0  0  0
 27 28  1  0  0  0
 27 46  1  0  0  0
 27 47  1  0  0  0
 28 48  1  0  0  0
 29 49  1  0  0  0
 30 50  1  0  0  0
 31 51  1  0  0  0
 32 52  1  0  0  0
 33 53  1  0  0  0
 34 54  1  0  0  0
M  END
> <s_m_entry_id>
32771

> <s_m_entry_name>
dock_pv.172

> <s_m_Source_Path>
/home/csk/Desktop/cluster/DUD-E-result/cdk2

> <s_m_Source_File>
dock_pv.maegz

> <i_m_Source_File_Index>
172

> <chembl_id>
CHEMBL402915

> <chembl_pref_name>
None

> <i_lp_mmshare_version>
53161

> <i_f3d_flags>
0

> <r_lp_tautomer_probability>
0.999999999999776

> <s_lp_Force_Field>
OPLS_2005

> <r_lp_Energy>
49.649518

> <b_lp_Chiralities_Consistent>
1

> <s_lp_Variant>
CHEMBL301_lig4-1

> <s_i_glide_gridfile>
glide-grid_1h00

> <i_i_glide_lignum>
4

> <i_i_glide_rotatable_bonds>
13

> <r_i_docking_score>
-7.85478052547762

> <r_i_glide_ligand_efficiency>
-0.231022956631695

> <r_i_glide_ligand_efficiency_sa>
-0.748424695790316

> <r_i_glide_ligand_efficiency_ln>
-1.73534133720904

> <r_i_glide_gscore>
-7.85478052547762

> <r_i_glide_lipo>
-3.17661167128189

> <r_i_glide_hbond>
0

> <r_i_glide_metal>
0

> <r_i_glide_rewards>
-0.316896301124819

> <r_i_glide_evdw>
-42.3875350952148

> <r_i_glide_ecoul>
-17.2893619537354

> <r_i_glide_erotb>
0.351508494750134

> <r_i_glide_esite>
0

> <r_i_glide_emodel>
-73.2189652141724

> <r_i_glide_energy>
-59.6768970489502

> <r_i_glide_einternal>
15.6663780212402

> <i_i_glide_confnum>
17

> <i_i_glide_posenum>
381

> <r_i_glide_eff_state_penalty>
0

> <s_user_duplicate_titles>
CHEMBL301_lig4

> <s_m_subgroup_title>
dock_pv

> <s_m_subgroupid>
dock_pv

> <b_m_subgroup_collapsed>
1

$$$$
CHEMBL301_lig1405
                    3D
 Schrodinger Suite 2021-1.
 48 49  0  0  1  0            999 V2000
   -1.5421   28.8035   12.9633 C   0  0  0  0  0  0
   -0.2539   28.3392   12.2871 C   0  0  1  0  0  0
    0.0580   27.0856   12.8576 O   0  0  0  0  0  0
   -0.3294   28.2838   10.7308 C   0  0  1  0  0  0
   -1.0122   27.0136   10.1821 C   0  0  0  0  0  0
   -0.9691   29.4861   10.1804 N   0  0  0  0  0  0
   -0.3415   30.3254    9.2502 C   0  0  0  0  0  0
    0.7176   29.8498    8.5513 N   0  0  0  0  0  0
    1.3388   30.6803    7.6811 C   0  0  0  0  0  0
    2.4580   30.2235    6.9760 N   0  0  0  0  0  0
    3.2577   29.0734    7.1117 C   0  0  0  0  0  0
    3.3273   28.3521    8.3047 C   0  0  0  0  0  0
    4.0576   27.1752    8.3561 C   0  0  0  0  0  0
    4.7722   26.7404    7.2429 C   0  0  0  0  0  0
    4.7782   27.4985    6.0738 C   0  0  0  0  0  0
    4.0075   28.6520    6.0094 C   0  0  0  0  0  0
    5.6416   25.1898    7.3565 S   0  0  1  0  0  0
    6.8586   25.6014    8.1759 N   0  0  0  0  0  0
    4.6999   24.1471    7.7743 O   0  0  0  0  0  0
    6.3823   24.7906    5.6609 C   0  0  0  0  0  0
    5.2812   24.4224    4.6456 C   0  0  0  0  0  0
    5.6580   24.9192    3.3761 O   0  0  0  0  0  0
    0.9722   31.9633    7.4437 N   0  0  0  0  0  0
   -0.0734   32.4321    8.1760 C   0  0  0  0  0  0
   -0.7776   31.6449    9.0873 C   0  0  0  0  0  0
   -2.2418   32.3820   10.0650 Br  0  0  0  0  0  0
   -1.7221   29.8612   12.7735 H   0  0  0  0  0  0
   -1.5420   28.6685   14.0446 H   0  0  0  0  0  0
   -2.3983   28.2517   12.5759 H   0  0  0  0  0  0
    0.5232   29.0491   12.5756 H   0  0  0  0  0  0
    1.0181   27.0520   12.9754 H   0  0  0  0  0  0
    0.7068   28.2276   10.3953 H   0  0  0  0  0  0
   -0.4157   26.1256   10.3924 H   0  0  0  0  0  0
   -1.9892   26.8576   10.6335 H   0  0  0  0  0  0
   -1.1412   27.0610    9.0998 H   0  0  0  0  0  0
   -1.7184   29.8924   10.7231 H   0  0  0  0  0  0
    2.9068   30.9292    6.4051 H   0  0  0  0  0  0
    2.7959   28.6632    9.1889 H   0  0  0  0  0  0
    4.0281   26.5901    9.2561 H   0  0  0  0  0  0
    5.3423   27.1992    5.2040 H   0  0  0  0  0  0
    4.0025   29.2117    5.0887 H   0  0  0  0  0  0
    6.5884   25.8508    9.1234 H   0  0  0  0  0  0
    6.9875   25.6448    5.3556 H   0  0  0  0  0  0
    7.0510   23.9468    5.8213 H   0  0  0  0  0  0
    5.1512   23.3416    4.5744 H   0  0  0  0  0  0
    4.3206   24.8740    4.8967 H   0  0  0  0  0  0
    5.0132   24.6521    2.7045 H   0  0  0  0  0  0
   -0.3630   33.4522    8.0032 H   0  0  0  0  0  0
  1  2  1  0  0  0
  1 27  1  0  0  0
  1 28  1  0  0  0
  1 29  1  0  0  0
  2  3  1  0  0  0
  2  4  1  0  0  0
  2 30  1  0  0  0
  3 31  1  0  0  0
  4  5  1  0  0  0
  4  6  1  0  0  0
  4 32  1  0  0  0
  5 33  1  0  0  0
  5 34  1  0  0  0
  5 35  1  0  0  0
  6  7  1  0  0  0
  6 36  1  0  0  0
  7  8  2  0  0  0
  7 25  1  0  0  0
  8  9  1  0  0  0
  9 10  1  0  0  0
  9 23  2  0  0  0
 10 11  1  0  0  0
 10 37  1  0  0  0
 11 12  2  0  0  0
 11 16  1  0  0  0
 12 13  1  0  0  0
 12 38  1  0  0  0
 13 14  2  0  0  0
 13 39  1  0  0  0
 14 15  1  0  0  0
 14 17  1  0  0  0
 15 16  2  0  0  0
 15 40  1  0  0  0
 16 41  1  0  0  0
 17 18  2  0  0  0
 17 19  2  0  0  0
 17 20  1  0  0  0
 18 42  1  0  0  0
 20 21  1  0  0  0
 20 43  1  0  0  0
 20 44  1  0  0  0
 21 22  1  0  0  0
 21 45  1  0  0  0
 21 46  1  0  0  0
 22 47  1  0  0  0
 23 24  1  0  0  0
 24 25  2  0  0  0
 24 48  1  0  0  0
 25 26  1  0  0  0
M  END
> <s_m_entry_id>
32772

> <s_m_entry_name>
dock_pv.173

> <s_m_Source_Path>
/home/csk/Desktop/cluster/DUD-E-result/cdk2

> <s_m_Source_File>
dock_pv.maegz

> <i_m_Source_File_Index>
173

> <chembl_id>
CHEMBL3648109

> <chembl_pref_name>
None

> <i_lp_mmshare_version>
53161

> <i_f3d_flags>
0

> <r_lp_tautomer_probability>
0.999999624730965

> <s_lp_Force_Field>
OPLS_2005

> <r_lp_Energy>
8.342613

> <b_lp_Chiralities_Consistent>
1

> <s_lp_Variant>
CHEMBL301_lig1405-2

> <s_i_glide_gridfile>
glide-grid_1h00

> <i_i_glide_lignum>
1917

> <i_i_glide_rotatable_bonds>
10

> <r_i_docking_score>
-7.85146664205368

> <r_i_glide_ligand_efficiency>
-0.301979486232834

> <r_i_glide_ligand_efficiency_sa>
-0.894613039732869

> <r_i_glide_ligand_efficiency_ln>
-1.84389117812295

> <r_i_glide_gscore>
-7.85146664205368

> <r_i_glide_lipo>
-2.48698342113738

> <r_i_glide_hbond>
-0.724587772157247

> <r_i_glide_metal>
0

> <r_i_glide_rewards>
-1.52700604628542

> <r_i_glide_evdw>
-37.5288696289062

> <r_i_glide_ecoul>
-13.6451110839844

> <r_i_glide_erotb>
0.810320741569342

> <r_i_glide_esite>
0

> <r_i_glide_emodel>
-69.6666000947847

> <r_i_glide_energy>
-51.1739807128906

> <r_i_glide_einternal>
13.2103462219238

> <i_i_glide_confnum>
80

> <i_i_glide_posenum>
218

> <r_i_glide_eff_state_penalty>
0

> <s_user_duplicate_titles>
CHEMBL301_lig1405

> <s_m_subgroup_title>
dock_pv

> <s_m_subgroupid>
dock_pv

> <b_m_subgroup_collapsed>
1

$$$$
CHEMBL301_lig110
                    3D
 Schrodinger Suite 2021-1.
 49 51  0  0  1  0            999 V2000
   -0.2555   30.1763    9.1721 C   0  0  0  0  0  0
   -0.9959   31.3341    9.0515 N   0  0  0  0  0  0
    0.9204   30.4074    8.4356 C   0  0  0  0  0  0
   -0.5038   29.1013    9.9154 N   0  0  0  0  0  0
    0.8562   31.6046    7.7730 N   0  0  0  0  0  0
    1.7511   28.3680    9.3789 N   0  0  0  0  0  0
    1.9442   29.4547    8.5769 C   0  0  0  0  0  0
   -0.2728   32.1304    8.1783 C   0  0  0  0  0  0
    0.5524   28.2467   10.0073 C   0  0  0  0  0  0
    3.1853   29.6773    7.9608 N   0  0  0  0  0  0
    0.4446   27.1515   10.8741 N   0  0  0  0  0  0
   -2.2477   31.6507    9.7420 C   0  0  0  0  0  0
    4.3339   28.7890    8.1179 C   0  0  0  0  0  0
   -0.7653   26.8665   11.6542 C   0  0  0  0  0  0
    4.4641   27.8148    6.9543 C   0  0  0  0  0  0
   -1.9407   27.0526   13.7389 O   0  0  0  0  0  0
   -0.8255   27.5594   13.0353 C   0  0  2  0  0  0
   -3.4385   31.2839    8.8455 C   0  0  0  0  0  0
   -2.2682   33.1135   10.2247 C   0  0  0  0  0  0
    4.3053   28.2504    5.6312 C   0  0  0  0  0  0
    4.8269   26.4889    7.2139 C   0  0  0  0  0  0
   -0.9673   29.0903   12.9771 C   0  0  0  0  0  0
    4.4594   27.3491    4.5804 C   0  0  0  0  0  0
    4.9755   25.5889    6.1610 C   0  0  0  0  0  0
    4.7848   26.0222    4.8503 C   0  0  0  0  0  0
   -0.6391   33.1108    7.9039 H   0  0  0  0  0  0
    3.3058   30.5057    7.3943 H   0  0  0  0  0  0
    1.3016   26.6633   11.0955 H   0  0  0  0  0  0
   -2.2927   31.0224   10.6360 H   0  0  0  0  0  0
    5.2375   29.3966    8.1636 H   0  0  0  0  0  0
    4.2737   28.2400    9.0599 H   0  0  0  0  0  0
   -1.6514   27.1317   11.0724 H   0  0  0  0  0  0
   -0.8195   25.7842   11.7769 H   0  0  0  0  0  0
   -2.6238   27.7411   13.7765 H   0  0  0  0  0  0
    0.0577   27.2930   13.6156 H   0  0  0  0  0  0
   -4.3791   31.4517    9.3687 H   0  0  0  0  0  0
   -3.4146   30.2343    8.5763 H   0  0  0  0  0  0
   -3.4482   31.8550    7.9178 H   0  0  0  0  0  0
   -3.1591   33.3182   10.8175 H   0  0  0  0  0  0
   -1.4085   33.3368   10.8556 H   0  0  0  0  0  0
   -2.2552   33.8154    9.3944 H   0  0  0  0  0  0
    4.0636   29.2816    5.4151 H   0  0  0  0  0  0
    4.9776   26.1524    8.2295 H   0  0  0  0  0  0
   -0.0662   29.5547   12.5760 H   0  0  0  0  0  0
   -1.8065   29.3866   12.3472 H   0  0  0  0  0  0
   -1.1461   29.5295   13.9544 H   0  0  0  0  0  0
    4.3275   27.6754    3.5617 H   0  0  0  0  0  0
    5.2354   24.5609    6.3602 H   0  0  0  0  0  0
    4.8969   25.3242    4.0330 H   0  0  0  0  0  0
  1  2  1  0  0  0
  1  3  2  0  0  0
  1  4  1  0  0  0
  2  8  1  0  0  0
  2 12  1  0  0  0
  3  5  1  0  0  0
  3  7  1  0  0  0
  4  9  2  0  0  0
  5  8  2  0  0  0
  6  9  1  0  0  0
  6  7  2  0  0  0
  7 10  1  0  0  0
  8 26  1  0  0  0
  9 11  1  0  0  0
 10 13  1  0  0  0
 10 27  1  0  0  0
 11 14  1  0  0  0
 11 28  1  0  0  0
 12 18  1  0  0  0
 12 19  1  0  0  0
 12 29  1  0  0  0
 13 15  1  0  0  0
 13 30  1  0  0  0
 13 31  1  0  0  0
 14 17  1  0  0  0
 14 32  1  0  0  0
 14 33  1  0  0  0
 15 20  1  0  0  0
 15 21  2  0  0  0
 16 17  1  0  0  0
 16 34  1  0  0  0
 17 22  1  0  0  0
 17 35  1  0  0  0
 18 36  1  0  0  0
 18 37  1  0  0  0
 18 38  1  0  0  0
 19 39  1  0  0  0
 19 40  1  0  0  0
 19 41  1  0  0  0
 20 23  2  0  0  0
 20 42  1  0  0  0
 21 24  1  0  0  0
 21 43  1  0  0  0
 22 44  1  0  0  0
 22 45  1  0  0  0
 22 46  1  0  0  0
 23 25  1  0  0  0
 23 47  1  0  0  0
 24 25  2  0  0  0
 24 48  1  0  0  0
 25 49  1  0  0  0
M  END
> <s_m_entry_id>
32773

> <s_m_entry_name>
dock_pv.174

> <s_m_Source_Path>
/home/csk/Desktop/cluster/DUD-E-result/cdk2

> <s_m_Source_File>
dock_pv.maegz

> <i_m_Source_File_Index>
174

> <chembl_id>
CHEMBL84436

> <chembl_pref_name>
None

> <i_lp_mmshare_version>
53161

> <i_f3d_flags>
0

> <r_lp_tautomer_probability>
1

> <s_lp_Force_Field>
OPLS_2005

> <r_lp_Energy>
16.646652

> <b_lp_Chiralities_Consistent>
1

> <s_lp_Variant>
CHEMBL301_lig110-1

> <s_i_glide_gridfile>
glide-grid_1h00

> <i_i_glide_lignum>
231

> <i_i_glide_rotatable_bonds>
8

> <r_i_docking_score>
-7.84917146871317

> <r_i_glide_ligand_efficiency>
-0.313966858748527

> <r_i_glide_ligand_efficiency_sa>
-0.918044663206642

> <r_i_glide_ligand_efficiency_ln>
-1.86048885877279

> <r_i_glide_gscore>
-7.84917146871317

> <r_i_glide_lipo>
-3.10197907050998

> <r_i_glide_hbond>
-0.322071049799136

> <r_i_glide_metal>
0

> <r_i_glide_rewards>
-2.55723401566333

> <r_i_glide_evdw>
-40.9095039367676

> <r_i_glide_ecoul>
-5.35246753692627

> <r_i_glide_erotb>
0.980457994636586

> <r_i_glide_esite>
0

> <r_i_glide_emodel>
-64.9071964229944

> <r_i_glide_energy>
-46.2619714736938

> <r_i_glide_einternal>
8.16992092132568

> <i_i_glide_confnum>
40

> <i_i_glide_posenum>
158

> <r_i_glide_eff_state_penalty>
0

> <s_user_duplicate_titles>
CHEMBL301_lig110,133972

> <s_m_subgroup_title>
dock_pv

> <s_m_subgroupid>
dock_pv

> <b_m_subgroup_collapsed>
1

$$$$
CHEMBL301_lig235
                    3D
 Schrodinger Suite 2021-1.
 44 47  0  0  1  0            999 V2000
    1.2219   29.7063    8.8700 C   0  0  0  0  0  0
    1.7088   30.5679    7.7333 C   0  0  0  0  0  0
    2.1007   28.6523    8.9662 C   0  0  0  0  0  0
    0.1204   29.7394    9.7298 C   0  0  0  0  0  0
    2.8584   29.9837    7.3578 N   0  0  0  0  0  0
    3.1042   28.8051    8.0358 C   0  0  0  0  0  0
    1.9259   27.5183    9.7767 C   0  0  0  0  0  0
    0.8153   27.5576   10.6824 C   0  0  0  0  0  0
   -0.0381   28.6798   10.6425 C   0  0  0  0  0  0
   -0.8673   30.8557    9.7440 C   0  0  0  0  0  0
    0.5739   26.5005   11.5793 N   0  0  0  0  0  0
   -2.1579   30.6941   10.1953 N   0  0  0  0  0  0
    1.2474   31.5882    7.2314 O   0  0  0  0  0  0
    2.8577   26.4530    9.5360 C   0  0  0  0  0  0
    4.0487   27.7977    7.8572 C   0  0  0  0  0  0
   -0.7528   32.2013    9.3877 C   0  0  0  0  0  0
   -2.8199   31.8882   10.1775 C   0  0  0  0  0  0
   -1.9425   32.8442    9.7106 C   0  0  0  0  0  0
    3.8832   26.6084    8.5761 C   0  0  0  0  0  0
   -1.4966   26.1974   13.0808 C   0  0  0  0  0  0
   -0.0550   26.7438   12.8829 C   0  0  0  0  0  0
   -1.9427   26.6515   14.3846 N   0  0  0  0  0  0
    2.7385   25.2730   10.1898 F   0  0  0  0  0  0
   -2.5300   26.7282   12.0683 C   0  0  0  0  0  0
   -1.5102   24.6578   13.1152 C   0  0  0  0  0  0
    3.4760   30.3903    6.6617 H   0  0  0  0  0  0
   -0.8626   28.7255   11.3323 H   0  0  0  0  0  0
    1.1742   25.6900   11.5034 H   0  0  0  0  0  0
   -2.5455   29.8263   10.5407 H   0  0  0  0  0  0
    4.8406   27.8882    7.1265 H   0  0  0  0  0  0
    0.1120   32.7020    8.9797 H   0  0  0  0  0  0
   -3.8373   31.9567   10.5383 H   0  0  0  0  0  0
   -2.1461   33.8959    9.6019 H   0  0  0  0  0  0
    4.5761   25.7956    8.4199 H   0  0  0  0  0  0
    0.5807   26.2538   13.6202 H   0  0  0  0  0  0
    0.0053   27.8016   13.1456 H   0  0  0  0  0  0
   -2.1249   27.6470   14.3192 H   0  0  0  0  0  0
   -2.8546   26.2533   14.5504 H   0  0  0  0  0  0
   -2.2263   26.5160   11.0427 H   0  0  0  0  0  0
   -3.5082   26.2645   12.2102 H   0  0  0  0  0  0
   -2.6848   27.8045   12.1568 H   0  0  0  0  0  0
   -1.1989   24.2392   12.1577 H   0  0  0  0  0  0
   -0.8393   24.2674   13.8813 H   0  0  0  0  0  0
   -2.5045   24.2664   13.3384 H   0  0  0  0  0  0
  1  2  1  0  0  0
  1  3  1  0  0  0
  1  4  2  0  0  0
  2  5  1  0  0  0
  2 13  2  0  0  0
  3  6  1  0  0  0
  3  7  2  0  0  0
  4  9  1  0  0  0
  4 10  1  0  0  0
  5  6  1  0  0  0
  5 26  1  0  0  0
  6 15  2  0  0  0
  7 14  1  0  0  0
  7  8  1  0  0  0
  8  9  2  0  0  0
  8 11  1  0  0  0
  9 27  1  0  0  0
 10 12  1  0  0  0
 10 16  2  0  0  0
 11 21  1  0  0  0
 11 28  1  0  0  0
 12 17  1  0  0  0
 12 29  1  0  0  0
 14 19  2  0  0  0
 14 23  1  0  0  0
 15 19  1  0  0  0
 15 30  1  0  0  0
 16 18  1  0  0  0
 16 31  1  0  0  0
 17 18  2  0  0  0
 17 32  1  0  0  0
 18 33  1  0  0  0
 19 34  1  0  0  0
 20 21  1  0  0  0
 20 22  1  0  0  0
 20 24  1  0  0  0
 20 25  1  0  0  0
 21 35  1  0  0  0
 21 36  1  0  0  0
 22 37  1  0  0  0
 22 38  1  0  0  0
 24 39  1  0  0  0
 24 40  1  0  0  0
 24 41  1  0  0  0
 25 42  1  0  0  0
 25 43  1  0  0  0
 25 44  1  0  0  0
M  END
> <s_m_entry_id>
32774

> <s_m_entry_name>
dock_pv.175

> <s_m_Source_Path>
/home/csk/Desktop/cluster/DUD-E-result/cdk2

> <s_m_Source_File>
dock_pv.maegz

> <i_m_Source_File_Index>
175

> <chembl_id>
CHEMBL82768

> <chembl_pref_name>
None

> <i_lp_mmshare_version>
53161

> <i_f3d_flags>
0

> <r_lp_tautomer_probability>
1

> <s_lp_Force_Field>
OPLS_2005

> <r_lp_Energy>
59.707854

> <b_lp_Chiralities_Consistent>
1

> <s_lp_Variant>
CHEMBL301_lig235-1

> <s_i_glide_gridfile>
glide-grid_1h00

> <i_i_glide_lignum>
377

> <i_i_glide_rotatable_bonds>
4

> <r_i_docking_score>
-7.83920033921239

> <r_i_glide_ligand_efficiency>
-0.313568013568496

> <r_i_glide_ligand_efficiency_sa>
-0.916878432826681

> <r_i_glide_ligand_efficiency_ln>
-1.85812540227047

> <r_i_glide_gscore>
-7.83920033921239

> <r_i_glide_lipo>
-3.02123907938147

> <r_i_glide_hbond>
-0.359878536483818

> <r_i_glide_metal>
0

> <r_i_glide_rewards>
-2.19535983095246

> <r_i_glide_evdw>
-32.2542610168457

> <r_i_glide_ecoul>
-7.35443830490112

> <r_i_glide_erotb>
0.49548981725461

> <r_i_glide_esite>
-0.042333913071797

> <r_i_glide_emodel>
-55.5963789015825

> <r_i_glide_energy>
-39.6086993217468

> <r_i_glide_einternal>
3.89819407463074

> <i_i_glide_confnum>
19

> <i_i_glide_posenum>
97

> <r_i_glide_eff_state_penalty>
0

> <s_user_duplicate_titles>
CHEMBL301_lig235,131429

> <s_m_subgroup_title>
dock_pv

> <s_m_subgroupid>
dock_pv

> <b_m_subgroup_collapsed>
1

$$$$
CHEMBL301_lig575
                    3D
 Schrodinger Suite 2021-1.
 50 52  0  0  1  0            999 V2000
    0.2334   28.5254   11.5908 C   0  0  0  0  0  0
   -0.1517   29.7826   11.5024 N   0  0  0  0  0  0
   -1.4099   29.6952   11.1418 C   0  0  0  0  0  0
   -1.8926   28.4251   11.0826 O   0  0  0  0  0  0
   -0.8278   27.6514   11.4131 C   0  0  0  0  0  0
   -1.0175   26.1385   11.5136 C   0  0  0  0  0  0
   -1.3647   25.5336   10.1362 C   0  0  0  0  0  0
   -2.1536   25.8343   12.5142 C   0  0  0  0  0  0
    0.2880   25.4841   12.0223 C   0  0  0  0  0  0
   -2.3323   30.8359   10.7697 C   0  0  0  0  0  0
   -2.3476   31.3558    9.0254 S   0  0  0  0  0  0
   -0.6555   31.3387    8.5263 C   0  0  0  0  0  0
    0.0885   32.3959    8.0008 C   0  0  0  0  0  0
    1.2175   32.0863    7.3762 N   0  0  0  0  0  0
    1.4932   30.8110    7.4880 C   0  0  0  0  0  0
    0.2819   29.8914    8.3206 S   0  0  0  0  0  0
    2.6367   30.2520    6.9760 N   0  0  0  0  0  0
    3.2335   28.9309    7.1034 C   0  0  1  0  0  0
    3.8417   28.5392    5.7372 C   0  0  0  0  0  0
    4.5524   27.1706    5.7804 C   0  0  0  0  0  0
    5.5921   27.0948    6.9183 C   0  0  1  0  0  0
    4.9855   27.5159    8.2713 C   0  0  0  0  0  0
    4.2876   28.8935    8.2206 C   0  0  0  0  0  0
    6.2806   25.8214    6.9762 N   0  0  0  0  0  0
    1.2580   28.2522   11.7800 H   0  0  0  0  0  0
   -1.3870   24.4450   10.1760 H   0  0  0  0  0  0
   -0.6374   25.8189    9.3764 H   0  0  0  0  0  0
   -2.3420   25.8520    9.7823 H   0  0  0  0  0  0
   -1.9487   26.2678   13.4944 H   0  0  0  0  0  0
   -3.1043   26.2519   12.1779 H   0  0  0  0  0  0
   -2.2982   24.7620   12.6497 H   0  0  0  0  0  0
    0.5870   25.8894   12.9899 H   0  0  0  0  0  0
    0.1824   24.4048   12.1394 H   0  0  0  0  0  0
    1.1177   25.6597   11.3356 H   0  0  0  0  0  0
   -3.3566   30.5330   10.9759 H   0  0  0  0  0  0
   -2.1602   31.7206   11.3760 H   0  0  0  0  0  0
   -0.2561   33.4197    7.9684 H   0  0  0  0  0  0
    3.3382   30.8765    6.5762 H   0  0  0  0  0  0
    2.4580   28.2520    7.3961 H   0  0  0  0  0  0
    3.0630   28.5147    4.9761 H   0  0  0  0  0  0
    4.5572   29.2952    5.4082 H   0  0  0  0  0  0
    3.8060   26.3859    5.9045 H   0  0  0  0  0  0
    5.0374   26.9901    4.8197 H   0  0  0  0  0  0
    6.3370   27.8519    6.6915 H   0  0  0  0  0  0
    4.2608   26.7673    8.5960 H   0  0  0  0  0  0
    5.7727   27.5366    9.0220 H   0  0  0  0  0  0
    5.0237   29.6903    8.0946 H   0  0  0  0  0  0
    3.7919   29.0520    9.1769 H   0  0  0  0  0  0
    5.6068   25.0840    7.1214 H   0  0  0  0  0  0
    6.7150   25.6408    6.0818 H   0  0  0  0  0  0
  1  5  2  0  0  0
  1  2  1  0  0  0
  1 25  1  0  0  0
  2  3  2  0  0  0
  3  4  1  0  0  0
  3 10  1  0  0  0
  4  5  1  0  0  0
  5  6  1  0  0  0
  6  7  1  0  0  0
  6  8  1  0  0  0
  6  9  1  0  0  0
  7 26  1  0  0  0
  7 27  1  0  0  0
  7 28  1  0  0  0
  8 29  1  0  0  0
  8 30  1  0  0  0
  8 31  1  0  0  0
  9 32  1  0  0  0
  9 33  1  0  0  0
  9 34  1  0  0  0
 10 11  1  0  0  0
 10 35  1  0  0  0
 10 36  1  0  0  0
 11 12  1  0  0  0
 12 13  2  0  0  0
 12 16  1  0  0  0
 13 14  1  0  0  0
 13 37  1  0  0  0
 14 15  2  0  0  0
 15 16  1  0  0  0
 15 17  1  0  0  0
 17 18  1  0  0  0
 17 38  1  0  0  0
 18 19  1  0  0  0
 18 23  1  0  0  0
 18 39  1  0  0  0
 19 20  1  0  0  0
 19 40  1  0  0  0
 19 41  1  0  0  0
 20 21  1  0  0  0
 20 42  1  0  0  0
 20 43  1  0  0  0
 21 22  1  0  0  0
 21 24  1  0  0  0
 21 44  1  0  0  0
 22 23  1  0  0  0
 22 45  1  0  0  0
 22 46  1  0  0  0
 23 47  1  0  0  0
 23 48  1  0  0  0
 24 49  1  0  0  0
 24 50  1  0  0  0
M  END
> <s_m_entry_id>
32775

> <s_m_entry_name>
dock_pv.176

> <s_m_Source_Path>
/home/csk/Desktop/cluster/DUD-E-result/cdk2

> <s_m_Source_File>
dock_pv.maegz

> <i_m_Source_File_Index>
176

> <chembl_id>
CHEMBL496567

> <chembl_pref_name>
None

> <i_lp_mmshare_version>
53161

> <i_f3d_flags>
0

> <r_lp_tautomer_probability>
1

> <s_lp_Force_Field>
OPLS_2005

> <r_lp_Energy>
3.792368

> <b_lp_Chiralities_Consistent>
1

> <s_lp_Variant>
CHEMBL301_lig575-1

> <s_i_glide_gridfile>
glide-grid_1h00

> <i_i_glide_lignum>
806

> <i_i_glide_rotatable_bonds>
6

> <r_i_docking_score>
-7.83896295245104

> <r_i_glide_ligand_efficiency>
-0.326623456352127

> <r_i_glide_ligand_efficiency_sa>
-0.942145078154288

> <r_i_glide_ligand_efficiency_ln>
-1.87622354109263

> <r_i_glide_gscore>
-7.83896295245104

> <r_i_glide_lipo>
-3.41580204758405

> <r_i_glide_hbond>
-0.32

> <r_i_glide_metal>
0

> <r_i_glide_rewards>
-2.20615754961203

> <r_i_glide_evdw>
-31.6040439605713

> <r_i_glide_ecoul>
-6.88752841949463

> <r_i_glide_erotb>
0.716328105697801

> <r_i_glide_esite>
0

> <r_i_glide_emodel>
-55.4682083281634

> <r_i_glide_energy>
-38.4915723800659

> <r_i_glide_einternal>
3.0008692741394

> <i_i_glide_confnum>
63

> <i_i_glide_posenum>
141

> <r_i_glide_eff_state_penalty>
0

> <s_user_duplicate_titles>
CHEMBL301_lig575,494696

> <s_m_subgroup_title>
dock_pv

> <s_m_subgroupid>
dock_pv

> <b_m_subgroup_collapsed>
1

$$$$
CHEMBL301_lig1087
                    3D
 Schrodinger Suite 2021-1.
 55 58  0  0  1  0            999 V2000
   -1.2903   31.7922    9.5089 C   0  0  0  0  0  0
   -0.7421   32.6740    8.5761 C   0  0  0  0  0  0
    0.3190   32.4039    7.7760 N   0  0  0  0  0  0
   -0.7227   30.5184    9.6870 C   0  0  0  0  0  0
   -1.3479   29.6255   10.5755 N   0  0  0  0  0  0
   -0.5753   28.6999   11.3892 C   0  0  0  0  0  0
    0.4577   30.2457    8.9421 C   0  0  0  0  0  0
    0.8585   31.2068    7.9801 C   0  0  0  0  0  0
    1.9706   30.6795    7.3763 N   0  0  0  0  0  0
    2.2638   29.5107    8.0346 C   0  0  0  0  0  0
    1.3826   29.2241    8.9760 N   0  0  0  0  0  0
    3.4210   28.6520    7.6409 C   0  0  0  0  0  0
    4.0144   27.7846    8.5596 C   0  0  0  0  0  0
    5.0070   26.9053    8.1382 C   0  0  0  0  0  0
    5.4266   26.8734    6.8124 C   0  0  0  0  0  0
    4.8580   27.7685    5.8981 C   0  0  0  0  0  0
    3.8663   28.6520    6.3122 C   0  0  0  0  0  0
    6.3870   25.9318    6.4985 O   0  0  0  0  0  0
    6.7775   25.7643    5.1395 C   0  0  0  0  0  0
   -2.7768   32.3847   10.5502 Br  0  0  0  0  0  0
   -1.4734   27.7146   12.1578 C   0  0  0  0  0  0
   -0.7024   26.7496   13.0765 C   0  0  0  0  0  0
    0.3565   26.0168   12.3898 N   0  0  0  0  0  0
    0.1874   24.9617   11.5770 C   0  0  0  0  0  0
    1.4413   24.3851   10.8842 C   0  0  0  0  0  0
   -0.9136   24.4524   11.3652 O   0  0  0  0  0  0
    1.9162   25.1985    9.6751 C   0  0  0  0  0  0
    2.7259   25.2003   10.9365 C   0  0  0  0  0  0
    1.5474   22.8349   10.9128 C   0  0  0  0  0  0
    2.2586   22.2773    9.7755 N   0  0  0  0  0  0
   -1.1624   33.6601    8.4527 H   0  0  0  0  0  0
   -2.1147   30.0549   11.0775 H   0  0  0  0  0  0
    0.0722   29.2576   12.0685 H   0  0  0  0  0  0
    0.1223   28.1311   10.7773 H   0  0  0  0  0  0
    2.5602   31.0653    6.6516 H   0  0  0  0  0  0
    3.6894   27.7663    9.5893 H   0  0  0  0  0  0
    5.4472   26.2138    8.8354 H   0  0  0  0  0  0
    5.1692   27.7857    4.8649 H   0  0  0  0  0  0
    3.4266   29.3137    5.5803 H   0  0  0  0  0  0
    7.4843   24.9375    5.0707 H   0  0  0  0  0  0
    5.9254   25.5227    4.5026 H   0  0  0  0  0  0
    7.2753   26.6515    4.7501 H   0  0  0  0  0  0
   -2.0678   27.1381   11.4475 H   0  0  0  0  0  0
   -2.2014   28.2663   12.7532 H   0  0  0  0  0  0
   -1.3840   26.0678   13.5895 H   0  0  0  0  0  0
   -0.1934   27.3360   13.8411 H   0  0  0  0  0  0
    1.2945   26.3705   12.5283 H   0  0  0  0  0  0
    1.3992   26.1155    9.3918 H   0  0  0  0  0  0
    2.3710   24.7253    8.8062 H   0  0  0  0  0  0
    3.6580   24.6521   10.9279 H   0  0  0  0  0  0
    2.8108   26.1333   11.4948 H   0  0  0  0  0  0
    2.0596   22.5312   11.8257 H   0  0  0  0  0  0
    0.5634   22.3659   10.9541 H   0  0  0  0  0  0
    1.6582   22.3275    8.9585 H   0  0  0  0  0  0
    3.0295   22.8822    9.5356 H   0  0  0  0  0  0
  1  2  2  0  0  0
  1  4  1  0  0  0
  1 20  1  0  0  0
  2  3  1  0  0  0
  2 31  1  0  0  0
  3  8  2  0  0  0
  4  7  2  0  0  0
  4  5  1  0  0  0
  5  6  1  0  0  0
  5 32  1  0  0  0
  6 21  1  0  0  0
  6 33  1  0  0  0
  6 34  1  0  0  0
  7  8  1  0  0  0
  7 11  1  0  0  0
  8  9  1  0  0  0
  9 10  1  0  0  0
  9 35  1  0  0  0
 10 11  2  0  0  0
 10 12  1  0  0  0
 12 17  1  0  0  0
 12 13  2  0  0  0
 13 14  1  0  0  0
 13 36  1  0  0  0
 14 15  2  0  0  0
 14 37  1  0  0  0
 15 16  1  0  0  0
 15 18  1  0  0  0
 16 17  2  0  0  0
 16 38  1  0  0  0
 17 39  1  0  0  0
 18 19  1  0  0  0
 19 40  1  0  0  0
 19 41  1  0  0  0
 19 42  1  0  0  0
 21 22  1  0  0  0
 21 43  1  0  0  0
 21 44  1  0  0  0
 22 23  1  0  0  0
 22 45  1  0  0  0
 22 46  1  0  0  0
 23 24  1  0  0  0
 23 47  1  0  0  0
 24 25  1  0  0  0
 24 26  2  0  0  0
 25 27  1  0  0  0
 25 28  1  0  0  0
 25 29  1  0  0  0
 27 28  1  0  0  0
 27 48  1  0  0  0
 27 49  1  0  0  0
 28 50  1  0  0  0
 28 51  1  0  0  0
 29 30  1  0  0  0
 29 52  1  0  0  0
 29 53  1  0  0  0
 30 54  1  0  0  0
 30 55  1  0  0  0
M  END
> <s_m_entry_id>
32776

> <s_m_entry_name>
dock_pv.177

> <s_m_Source_Path>
/home/csk/Desktop/cluster/DUD-E-result/cdk2

> <s_m_Source_File>
dock_pv.maegz

> <i_m_Source_File_Index>
177

> <chembl_id>
CHEMBL2011932

> <chembl_pref_name>
None

> <i_lp_mmshare_version>
53161

> <i_f3d_flags>
0

> <r_lp_tautomer_probability>
1

> <s_lp_Force_Field>
OPLS_2005

> <r_lp_Energy>
26.854767

> <b_lp_Chiralities_Consistent>
1

> <s_lp_Variant>
CHEMBL301_lig1087-1

> <s_i_glide_gridfile>
glide-grid_1h00

> <i_i_glide_lignum>
1490

> <i_i_glide_rotatable_bonds>
10

> <r_i_docking_score>
-7.83766156949409

> <r_i_glide_ligand_efficiency>
-0.261255385649803

> <r_i_glide_ligand_efficiency_sa>
-0.811781225726236

> <r_i_glide_ligand_efficiency_ln>
-1.78080210675171

> <r_i_glide_gscore>
-7.83766156949409

> <r_i_glide_lipo>
-2.69539029918433

> <r_i_glide_hbond>
-0.559011094577641

> <r_i_glide_metal>
0

> <r_i_glide_rewards>
-2.02682589686102

> <r_i_glide_evdw>
-40.7011795043945

> <r_i_glide_ecoul>
-8.2014856338501

> <r_i_glide_erotb>
0.722148875204282

> <r_i_glide_esite>
-0.013301333778137

> <r_i_glide_emodel>
-65.1525823317471

> <r_i_glide_energy>
-48.9026651382446

> <r_i_glide_einternal>
10.575701713562

> <i_i_glide_confnum>
51

> <i_i_glide_posenum>
14

> <r_i_glide_eff_state_penalty>
0

> <s_user_duplicate_titles>
CHEMBL301_lig1087

> <s_m_subgroup_title>
dock_pv

> <s_m_subgroupid>
dock_pv

> <b_m_subgroup_collapsed>
1

$$$$
CHEMBL301_lig1344
                    3D
 Schrodinger Suite 2021-1.
 47 48  0  0  1  0            999 V2000
    0.0272   27.1831   10.0759 C   0  0  0  0  0  0
   -0.2472   28.4405   10.9318 C   0  0  1  0  0  0
   -0.9835   29.4718   10.1813 N   0  0  0  0  0  0
   -0.3406   30.3174    9.2597 C   0  0  0  0  0  0
    0.7338   29.8505    8.5770 N   0  0  0  0  0  0
    1.3484   30.6743    7.6960 C   0  0  0  0  0  0
    2.4580   30.2121    6.9774 N   0  0  0  0  0  0
    3.2552   29.0558    7.0844 C   0  0  0  0  0  0
    3.9954   28.6520    5.9680 C   0  0  0  0  0  0
    4.7857   27.5110    6.0111 C   0  0  0  0  0  0
    4.8084   26.7440    7.1731 C   0  0  0  0  0  0
    4.0718   27.1396    8.2879 C   0  0  0  0  0  0
    3.3335   28.3134    8.2627 C   0  0  0  0  0  0
    5.7613   25.2431    7.2753 S   0  0  1  0  0  0
    6.9090   25.6753    8.1768 N   0  0  0  0  0  0
    4.8582   24.1269    7.5685 O   0  0  0  0  0  0
    6.6302   24.9766    5.6276 C   0  0  0  0  0  0
    0.9761   31.9546    7.4500 N   0  0  0  0  0  0
   -0.0730   32.4255    8.1761 C   0  0  0  0  0  0
   -0.7806   31.6358    9.0856 C   0  0  0  0  0  0
   -2.2539   32.3695   10.0517 Br  0  0  0  0  0  0
   -0.8987   28.1080   12.3127 C   0  0  0  0  0  0
   -1.0756   29.3676   13.1816 C   0  0  0  0  0  0
   -2.2525   27.3760   12.1765 C   0  0  0  0  0  0
   -0.0329   27.2381   13.0323 O   0  0  0  0  0  0
    0.3469   26.3308   10.6738 H   0  0  0  0  0  0
   -0.8537   26.8750    9.5111 H   0  0  0  0  0  0
    0.8321   27.3722    9.3758 H   0  0  0  0  0  0
    0.7310   28.8740   11.1535 H   0  0  0  0  0  0
   -1.7434   29.9059   10.6866 H   0  0  0  0  0  0
    2.8993   30.9192    6.4026 H   0  0  0  0  0  0
    3.9809   29.2265    5.0571 H   0  0  0  0  0  0
    5.3549   27.2341    5.1373 H   0  0  0  0  0  0
    4.0545   26.5342    9.1745 H   0  0  0  0  0  0
    2.8086   28.6115    9.1554 H   0  0  0  0  0  0
    6.5823   25.8520    9.1230 H   0  0  0  0  0  0
    7.2538   25.8432    5.4089 H   0  0  0  0  0  0
    7.2522   24.0873    5.7110 H   0  0  0  0  0  0
    5.8809   24.8327    4.8505 H   0  0  0  0  0  0
   -0.3555   33.4517    8.0061 H   0  0  0  0  0  0
   -1.7195   30.1007   12.6963 H   0  0  0  0  0  0
   -0.1211   29.8518   13.3760 H   0  0  0  0  0  0
   -1.5418   29.1332   14.1401 H   0  0  0  0  0  0
   -2.9984   28.0080   11.6937 H   0  0  0  0  0  0
   -2.1666   26.4598   11.5923 H   0  0  0  0  0  0
   -2.6542   27.0925   13.1507 H   0  0  0  0  0  0
    0.8755   27.5709   13.0132 H   0  0  0  0  0  0
  1  2  1  0  0  0
  1 26  1  0  0  0
  1 27  1  0  0  0
  1 28  1  0  0  0
  2  3  1  0  0  0
  2 22  1  0  0  0
  2 29  1  0  0  0
  3  4  1  0  0  0
  3 30  1  0  0  0
  4  5  2  0  0  0
  4 20  1  0  0  0
  5  6  1  0  0  0
  6  7  1  0  0  0
  6 18  2  0  0  0
  7  8  1  0  0  0
  7 31  1  0  0  0
  8  9  2  0  0  0
  8 13  1  0  0  0
  9 10  1  0  0  0
  9 32  1  0  0  0
 10 11  2  0  0  0
 10 33  1  0  0  0
 11 12  1  0  0  0
 11 14  1  0  0  0
 12 13  2  0  0  0
 12 34  1  0  0  0
 13 35  1  0  0  0
 14 15  2  0  0  0
 14 16  2  0  0  0
 14 17  1  0  0  0
 15 36  1  0  0  0
 17 37  1  0  0  0
 17 38  1  0  0  0
 17 39  1  0  0  0
 18 19  1  0  0  0
 19 20  2  0  0  0
 19 40  1  0  0  0
 20 21  1  0  0  0
 22 23  1  0  0  0
 22 24  1  0  0  0
 22 25  1  0  0  0
 23 41  1  0  0  0
 23 42  1  0  0  0
 23 43  1  0  0  0
 24 44  1  0  0  0
 24 45  1  0  0  0
 24 46  1  0  0  0
 25 47  1  0  0  0
M  END
> <s_m_entry_id>
32777

> <s_m_entry_name>
dock_pv.178

> <s_m_Source_Path>
/home/csk/Desktop/cluster/DUD-E-result/cdk2

> <s_m_Source_File>
dock_pv.maegz

> <i_m_Source_File_Index>
178

> <chembl_id>
CHEMBL3648072

> <chembl_pref_name>
None

> <i_lp_mmshare_version>
53161

> <i_f3d_flags>
0

> <r_lp_tautomer_probability>
0.999999624730965

> <s_lp_Force_Field>
OPLS_2005

> <r_lp_Energy>
10.115458

> <b_lp_Chiralities_Consistent>
1

> <s_lp_Variant>
CHEMBL301_lig1344-2

> <s_i_glide_gridfile>
glide-grid_1h00

> <i_i_glide_lignum>
1780

> <i_i_glide_rotatable_bonds>
7

> <r_i_docking_score>
-7.83619582315445

> <r_i_glide_ligand_efficiency>
-0.313447832926178

> <r_i_glide_ligand_efficiency_sa>
-0.916527022497132

> <r_i_glide_ligand_efficiency_ln>
-1.85741324192666

> <r_i_glide_gscore>
-7.83619582315445

> <r_i_glide_lipo>
-2.5877671123342

> <r_i_glide_hbond>
-0.632525895939199

> <r_i_glide_metal>
0

> <r_i_glide_rewards>
-1.64129358569655

> <r_i_glide_evdw>
-37.4254837036133

> <r_i_glide_ecoul>
-10.964075088501

> <r_i_glide_erotb>
0.541276219271308

> <r_i_glide_esite>
0

> <r_i_glide_emodel>
-68.0451146007016

> <r_i_glide_energy>
-48.3895587921143

> <r_i_glide_einternal>
6.31806087493896

> <i_i_glide_confnum>
94

> <i_i_glide_posenum>
353

> <r_i_glide_eff_state_penalty>
0

> <s_user_duplicate_titles>
CHEMBL301_lig1344

> <s_m_subgroup_title>
dock_pv

> <s_m_subgroupid>
dock_pv

> <b_m_subgroup_collapsed>
1

$$$$
CHEMBL301_lig828
                    3D
 Schrodinger Suite 2021-1.
 58 60  0  0  1  0            999 V2000
   -0.3347   28.7206   12.1764 C   0  0  0  0  0  0
   -0.7809   29.8518   11.6790 N   0  0  0  0  0  0
   -1.9317   29.5277   11.1374 C   0  0  0  0  0  0
   -2.3154   28.2477   11.3757 O   0  0  0  0  0  0
   -1.2676   27.7051   12.0448 C   0  0  0  0  0  0
   -2.7883   30.3588   10.1963 C   0  0  0  0  0  0
   -2.1356   32.0167    9.8013 S   0  0  0  0  0  0
   -0.7102   31.6780    8.8059 C   0  0  0  0  0  0
    0.0583   32.6211    8.1334 C   0  0  0  0  0  0
    1.0943   32.1883    7.4246 N   0  0  0  0  0  0
    1.3122   30.9170    7.6495 C   0  0  0  0  0  0
    0.0545   30.1296    8.5577 S   0  0  0  0  0  0
    2.4568   30.2685    7.1940 N   0  0  0  0  0  0
    3.0694   29.2030    7.7622 C   0  0  0  0  0  0
    4.2335   28.5836    6.9515 C   0  0  2  0  0  0
    2.7889   28.7661    8.8807 O   0  0  0  0  0  0
   -1.3394   26.2269   12.4156 C   0  0  0  0  0  0
   -0.0668   25.8117   13.1873 C   0  0  0  0  0  0
   -1.4509   25.3794   11.1292 C   0  0  0  0  0  0
   -2.5788   25.9824   13.3055 C   0  0  0  0  0  0
    3.8005   28.4196    5.4735 C   0  0  0  0  0  0
    4.8226   27.6388    4.6412 C   0  0  0  0  0  0
    5.1569   26.3597    5.2535 N   0  0  2  0  0  0
    5.6785   26.4530    6.6218 C   0  0  1  0  0  0
    4.7311   27.2462    7.5631 C   0  0  0  0  0  0
    6.1252   25.0914    7.2240 C   0  0  0  0  0  0
    7.3990   24.5600    6.5338 C   0  0  0  0  0  0
    5.0110   24.0191    7.2124 C   0  0  0  0  0  0
    0.6556   28.6420   12.5921 H   0  0  0  0  0  0
   -2.9390   29.8336    9.2560 H   0  0  0  0  0  0
   -3.7857   30.4950   10.6062 H   0  0  0  0  0  0
   -0.1629   33.6757    8.1759 H   0  0  0  0  0  0
    2.9814   30.7280    6.4584 H   0  0  0  0  0  0
    5.0400   29.3173    6.9574 H   0  0  0  0  0  0
   -0.0940   24.7611   13.4766 H   0  0  0  0  0  0
    0.0543   26.3978   14.0983 H   0  0  0  0  0  0
    0.8380   25.9619   12.5935 H   0  0  0  0  0  0
   -2.3455   25.6348   10.5606 H   0  0  0  0  0  0
   -0.5982   25.5393   10.4666 H   0  0  0  0  0  0
   -1.5009   24.3133   11.3540 H   0  0  0  0  0  0
   -3.5002   26.2580   12.7896 H   0  0  0  0  0  0
   -2.6681   24.9361   13.5945 H   0  0  0  0  0  0
   -2.5384   26.5802   14.2179 H   0  0  0  0  0  0
    2.8596   27.8737    5.3761 H   0  0  0  0  0  0
    3.7193   29.3935    4.9925 H   0  0  0  0  0  0
    5.7236   28.2325    4.5052 H   0  0  0  0  0  0
    4.4187   27.4405    3.6470 H   0  0  0  0  0  0
    5.8394   25.8911    4.6742 H   0  0  0  0  0  0
    6.5829   27.0517    6.5049 H   0  0  0  0  0  0
    5.2782   27.4490    8.4865 H   0  0  0  0  0  0
    3.8781   26.5909    7.7381 H   0  0  0  0  0  0
    6.3875   25.2672    8.2702 H   0  0  0  0  0  0
    7.2287   24.3685    5.4730 H   0  0  0  0  0  0
    8.2197   25.2752    6.6098 H   0  0  0  0  0  0
    7.7397   23.6247    6.9777 H   0  0  0  0  0  0
    4.6740   23.8016    6.1984 H   0  0  0  0  0  0
    5.3563   23.0811    7.6440 H   0  0  0  0  0  0
    4.1377   24.3334    7.7849 H   0  0  0  0  0  0
  1  5  2  0  0  0
  1  2  1  0  0  0
  1 29  1  0  0  0
  2  3  2  0  0  0
  3  4  1  0  0  0
  3  6  1  0  0  0
  4  5  1  0  0  0
  5 17  1  0  0  0
  6  7  1  0  0  0
  6 30  1  0  0  0
  6 31  1  0  0  0
  7  8  1  0  0  0
  8  9  2  0  0  0
  8 12  1  0  0  0
  9 10  1  0  0  0
  9 32  1  0  0  0
 10 11  2  0  0  0
 11 12  1  0  0  0
 11 13  1  0  0  0
 13 14  1  0  0  0
 13 33  1  0  0  0
 14 15  1  0  0  0
 14 16  2  0  0  0
 15 21  1  0  0  0
 15 25  1  0  0  0
 15 34  1  0  0  0
 17 18  1  0  0  0
 17 19  1  0  0  0
 17 20  1  0  0  0
 18 35  1  0  0  0
 18 36  1  0  0  0
 18 37  1  0  0  0
 19 38  1  0  0  0
 19 39  1  0  0  0
 19 40  1  0  0  0
 20 41  1  0  0  0
 20 42  1  0  0  0
 20 43  1  0  0  0
 21 22  1  0  0  0
 21 44  1  0  0  0
 21 45  1  0  0  0
 22 23  1  0  0  0
 22 46  1  0  0  0
 22 47  1  0  0  0
 23 24  1  0  0  0
 23 48  1  0  0  0
 24 25  1  0  0  0
 24 26  1  0  0  0
 24 49  1  0  0  0
 25 50  1  0  0  0
 25 51  1  0  0  0
 26 27  1  0  0  0
 26 28  1  0  0  0
 26 52  1  0  0  0
 27 53  1  0  0  0
 27 54  1  0  0  0
 27 55  1  0  0  0
 28 56  1  0  0  0
 28 57  1  0  0  0
 28 58  1  0  0  0
M  END
> <s_m_entry_id>
32778

> <s_m_entry_name>
dock_pv.179

> <s_m_Source_Path>
/home/csk/Desktop/cluster/DUD-E-result/cdk2

> <s_m_Source_File>
dock_pv.maegz

> <i_m_Source_File_Index>
179

> <chembl_id>
CHEMBL509012

> <chembl_pref_name>
None

> <i_lp_mmshare_version>
53161

> <i_f3d_flags>
0

> <r_lp_tautomer_probability>
0.999000488399163

> <s_lp_Force_Field>
OPLS_2005

> <r_lp_Energy>
20.87361

> <b_lp_Chiralities_Consistent>
1

> <s_lp_Variant>
CHEMBL301_lig828-3

> <s_i_glide_gridfile>
glide-grid_1h00

> <i_i_glide_lignum>
1179

> <i_i_glide_rotatable_bonds>
8

> <r_i_docking_score>
-7.83209229474942

> <r_i_glide_ligand_efficiency>
-0.279717581955336

> <r_i_glide_ligand_efficiency_sa>
-0.849387323661857

> <r_i_glide_ligand_efficiency_ln>
-1.80787686185034

> <r_i_glide_gscore>
-7.83209229474942

> <r_i_glide_lipo>
-3.09961053650114

> <r_i_glide_hbond>
-0.276984238993838

> <r_i_glide_metal>
0

> <r_i_glide_rewards>
-2.14751056544358

> <r_i_glide_evdw>
-46.1074523925781

> <r_i_glide_ecoul>
-4.45462846755981

> <r_i_glide_erotb>
0.665579935952016

> <r_i_glide_esite>
0

> <r_i_glide_emodel>
-69.3036816518101

> <r_i_glide_energy>
-50.5620808601379

> <r_i_glide_einternal>
6.57634115219116

> <i_i_glide_confnum>
16

> <i_i_glide_posenum>
106

> <r_i_glide_eff_state_penalty>
0

> <s_user_duplicate_titles>
CHEMBL301_lig828,453190

> <s_m_subgroup_title>
dock_pv

> <s_m_subgroupid>
dock_pv

> <b_m_subgroup_collapsed>
1

$$$$
CHEMBL301_lig145
                    3D
 Schrodinger Suite 2021-1.
 37 39  0  0  1  0            999 V2000
   -1.7551   29.6973   10.4689 C   0  0  0  0  0  0
   -2.3662   30.9235   10.1747 C   0  0  0  0  0  0
   -1.7763   31.8158    9.2800 C   0  0  0  0  0  0
   -0.5332   29.3617    9.8580 C   0  0  0  0  0  0
    0.0580   30.2633    8.9588 C   0  0  0  0  0  0
   -0.5699   31.4634    8.6814 C   0  0  0  0  0  0
    0.1843   32.1713    7.7773 N   0  0  0  0  0  0
    1.2580   31.4850    7.3760 C   0  0  0  0  0  0
    1.2889   30.2534    8.1793 C   0  0  0  0  0  0
    2.0579   31.8520    6.5229 O   0  0  0  0  0  0
    2.2161   29.3743    8.2133 N   0  0  0  0  0  0
    3.3343   29.4520    7.3759 N   0  0  0  0  0  0
    4.1406   28.3579    7.0791 C   0  0  0  0  0  0
    4.6350   27.5358    8.0920 C   0  0  0  0  0  0
    5.4899   26.4865    7.7761 C   0  0  0  0  0  0
    5.8337   26.2504    6.4466 C   0  0  0  0  0  0
    5.3000   27.0405    5.4257 C   0  0  0  0  0  0
    4.4648   28.1057    5.7475 C   0  0  0  0  0  0
    7.0179   24.9684    6.0762 S   0  0  0  0  0  0
    8.5443   25.6423    6.5750 N   0  0  0  0  0  0
    6.7349   23.8439    6.9743 O   0  0  0  0  0  0
    7.0714   24.7930    4.6226 O   0  0  0  0  0  0
   -2.4417   28.7467   11.4386 C   0  0  0  0  0  0
    0.2411   27.8504   10.2152 Cl  0  0  0  0  0  0
   -3.3020   31.1910   10.6451 H   0  0  0  0  0  0
   -2.2603   32.7577    9.0652 H   0  0  0  0  0  0
   -0.0421   33.0906    7.4226 H   0  0  0  0  0  0
    3.2946   30.2215    6.7110 H   0  0  0  0  0  0
    4.3840   27.7250    9.1259 H   0  0  0  0  0  0
    5.8971   25.8756    8.5703 H   0  0  0  0  0  0
    5.5694   26.8642    4.3939 H   0  0  0  0  0  0
    4.0844   28.7436    4.9635 H   0  0  0  0  0  0
    9.1487   24.9544    7.0281 H   0  0  0  0  0  0
    9.0269   26.1362    5.8192 H   0  0  0  0  0  0
   -3.5125   28.9423   11.4976 H   0  0  0  0  0  0
   -2.3407   27.7092   11.1219 H   0  0  0  0  0  0
   -2.0097   28.8425   12.4353 H   0  0  0  0  0  0
  1  2  2  0  0  0
  1  4  1  0  0  0
  1 23  1  0  0  0
  2  3  1  0  0  0
  2 25  1  0  0  0
  3  6  2  0  0  0
  3 26  1  0  0  0
  4  5  2  0  0  0
  4 24  1  0  0  0
  5  9  1  0  0  0
  5  6  1  0  0  0
  6  7  1  0  0  0
  7  8  1  0  0  0
  7 27  1  0  0  0
  8  9  1  0  0  0
  8 10  2  0  0  0
  9 11  2  0  0  0
 11 12  1  0  0  0
 12 13  1  0  0  0
 12 28  1  0  0  0
 13 14  2  0  0  0
 13 18  1  0  0  0
 14 15  1  0  0  0
 14 29  1  0  0  0
 15 16  2  0  0  0
 15 30  1  0  0  0
 16 17  1  0  0  0
 16 19  1  0  0  0
 17 18  2  0  0  0
 17 31  1  0  0  0
 18 32  1  0  0  0
 19 20  1  0  0  0
 19 21  2  0  0  0
 19 22  2  0  0  0
 20 33  1  0  0  0
 20 34  1  0  0  0
 23 35  1  0  0  0
 23 36  1  0  0  0
 23 37  1  0  0  0
M  END
> <s_m_entry_id>
32779

> <s_m_entry_name>
dock_pv.180

> <s_m_Source_Path>
/home/csk/Desktop/cluster/DUD-E-result/cdk2

> <s_m_Source_File>
dock_pv.maegz

> <i_m_Source_File_Index>
180

> <chembl_id>
CHEMBL411490

> <chembl_pref_name>
None

> <i_lp_mmshare_version>
53161

> <i_f3d_flags>
0

> <r_lp_tautomer_probability>
1

> <s_lp_Force_Field>
OPLS_2005

> <r_lp_Energy>
45.745428

> <b_lp_Chiralities_Consistent>
1

> <s_lp_Variant>
CHEMBL301_lig145-1

> <s_i_glide_gridfile>
glide-grid_1h00

> <i_i_glide_lignum>
284

> <i_i_glide_rotatable_bonds>
3

> <r_i_docking_score>
-7.8247930256528

> <r_i_glide_ligand_efficiency>
-0.326033042735533

> <r_i_glide_ligand_efficiency_sa>
-0.940442030586421

> <r_i_glide_ligand_efficiency_ln>
-1.87283202739424

> <r_i_glide_gscore>
-7.8247930256528

> <r_i_glide_lipo>
-2.15335601893134

> <r_i_glide_hbond>
-0.508481188384367

> <r_i_glide_metal>
0

> <r_i_glide_rewards>
-2.58621197100016

> <r_i_glide_evdw>
-37.1647071838379

> <r_i_glide_ecoul>
-6.6810040473938

> <r_i_glide_erotb>
0.288974395962911

> <r_i_glide_esite>
-0.00533227699888503

> <r_i_glide_emodel>
-62.3276401411981

> <r_i_glide_energy>
-43.8457112312317

> <r_i_glide_einternal>
4.67686986923218

> <i_i_glide_confnum>
1

> <i_i_glide_posenum>
33

> <r_i_glide_eff_state_penalty>
0

> <s_user_duplicate_titles>
CHEMBL301_lig145,440912

> <s_m_subgroup_title>
dock_pv

> <s_m_subgroupid>
dock_pv

> <b_m_subgroup_collapsed>
1

$$$$
CHEMBL301_lig1448
                    3D
 Schrodinger Suite 2021-1.
 38 41  0  0  1  0            999 V2000
   -2.4329   28.6500   11.3803 Cl  0  0  0  0  0  0
   -1.2364   27.3969   11.5024 C   0  0  0  0  0  0
   -1.6170   26.3237   12.3121 C   0  0  0  0  0  0
   -0.7778   25.2343   12.5012 C   0  0  0  0  0  0
    0.4603   25.2122   11.8772 C   0  0  0  0  0  0
    0.8525   26.2764   11.0701 C   0  0  0  0  0  0
    0.0337   27.4060   10.8489 C   0  0  0  0  0  0
    0.5402   28.5128    9.9362 C   0  0  0  0  0  0
    1.8219   28.4999    9.3522 C   0  0  0  0  0  0
    2.1797   29.4837    8.4187 C   0  0  0  0  0  0
    3.4304   29.5338    7.7755 N   0  0  0  0  0  0
    4.5498   28.6405    8.0582 C   0  0  0  0  0  0
    4.5005   27.3933    7.1897 C   0  0  0  0  0  0
    4.5132   27.4953    5.7918 C   0  0  0  0  0  0
    4.4814   26.3234    5.0325 C   0  0  0  0  0  0
    4.4452   25.0863    5.5897 N   0  0  0  0  0  0
    4.4417   25.0022    6.9445 C   0  0  0  0  0  0
    4.4639   26.1235    7.7761 C   0  0  0  0  0  0
    1.2624   30.4822    8.1759 N   0  0  0  0  0  0
    1.4227   31.5845    7.3761 N   0  0  0  0  0  0
    0.4580   32.4047    7.7551 C   0  0  0  0  0  0
   -0.4883   31.7974    8.5758 C   0  0  0  0  0  0
   -2.1067   32.4685    9.3158 Br  0  0  0  0  0  0
    0.0574   30.5319    8.8799 C   0  0  0  0  0  0
   -0.3158   29.5414    9.6871 N   0  0  0  0  0  0
   -2.5830   26.3364   12.7971 H   0  0  0  0  0  0
   -1.0887   24.4107   13.1265 H   0  0  0  0  0  0
    1.1215   24.3699   12.0162 H   0  0  0  0  0  0
    1.8266   26.1789   10.6222 H   0  0  0  0  0  0
    2.5339   27.7224    9.5597 H   0  0  0  0  0  0
    3.6152   30.3296    7.1735 H   0  0  0  0  0  0
    4.5905   28.3794    9.1162 H   0  0  0  0  0  0
    5.4755   29.1737    7.8419 H   0  0  0  0  0  0
    4.5528   28.4614    5.3086 H   0  0  0  0  0  0
    4.4923   26.3610    3.9527 H   0  0  0  0  0  0
    4.4041   24.0071    7.3608 H   0  0  0  0  0  0
    4.4591   26.0076    8.8505 H   0  0  0  0  0  0
    0.3922   33.4202    7.3760 H   0  0  0  0  0  0
  1  2  1  0  0  0
  2  3  2  0  0  0
  2  7  1  0  0  0
  3  4  1  0  0  0
  3 26  1  0  0  0
  4  5  2  0  0  0
  4 27  1  0  0  0
  5  6  1  0  0  0
  5 28  1  0  0  0
  6  7  2  0  0  0
  6 29  1  0  0  0
  7  8  1  0  0  0
  8  9  1  0  0  0
  8 25  2  0  0  0
  9 10  2  0  0  0
  9 30  1  0  0  0
 10 11  1  0  0  0
 10 19  1  0  0  0
 11 12  1  0  0  0
 11 31  1  0  0  0
 12 13  1  0  0  0
 12 32  1  0  0  0
 12 33  1  0  0  0
 13 14  2  0  0  0
 13 18  1  0  0  0
 14 15  1  0  0  0
 14 34  1  0  0  0
 15 16  2  0  0  0
 15 35  1  0  0  0
 16 17  1  0  0  0
 17 18  2  0  0  0
 17 36  1  0  0  0
 18 37  1  0  0  0
 19 20  1  0  0  0
 19 24  1  0  0  0
 20 21  2  0  0  0
 21 22  1  0  0  0
 21 38  1  0  0  0
 22 23  1  0  0  0
 22 24  2  0  0  0
 24 25  1  0  0  0
M  END
> <s_m_entry_id>
32780

> <s_m_entry_name>
dock_pv.181

> <s_m_Source_Path>
/home/csk/Desktop/cluster/DUD-E-result/cdk2

> <s_m_Source_File>
dock_pv.maegz

> <i_m_Source_File_Index>
181

> <chembl_id>
CHEMBL3642650

> <chembl_pref_name>
None

> <i_lp_mmshare_version>
53161

> <i_f3d_flags>
0

> <r_lp_tautomer_probability>
1

> <s_lp_Force_Field>
OPLS_2005

> <r_lp_Energy>
18.662633

> <b_lp_Chiralities_Consistent>
1

> <s_lp_Variant>
CHEMBL301_lig1448-1

> <s_i_glide_gridfile>
glide-grid_1h00

> <i_i_glide_lignum>
1961

> <i_i_glide_rotatable_bonds>
4

> <r_i_docking_score>
-7.82381573886353

> <r_i_glide_ligand_efficiency>
-0.312952629554541

> <r_i_glide_ligand_efficiency_sa>
-0.915079039055996

> <r_i_glide_ligand_efficiency_ln>
-1.85447879094852

> <r_i_glide_gscore>
-7.82381573886353

> <r_i_glide_lipo>
-3.12754672402435

> <r_i_glide_hbond>
-0.32

> <r_i_glide_metal>
0

> <r_i_glide_rewards>
-2.25612330913833

> <r_i_glide_evdw>
-39.4724998474121

> <r_i_glide_ecoul>
-4.03787326812744

> <r_i_glide_erotb>
0.459160276888881

> <r_i_glide_esite>
0

> <r_i_glide_emodel>
-59.5478134349384

> <r_i_glide_energy>
-43.5103731155396

> <r_i_glide_einternal>
7.43757438659668

> <i_i_glide_confnum>
63

> <i_i_glide_posenum>
249

> <r_i_glide_eff_state_penalty>
0

> <s_user_duplicate_titles>
CHEMBL301_lig1448

> <s_m_subgroup_title>
dock_pv

> <s_m_subgroupid>
dock_pv

> <b_m_subgroup_collapsed>
1

$$$$
CHEMBL301_lig1227
                    3D
 Schrodinger Suite 2021-1.
 42 45  0  0  1  0            999 V2000
    1.4492   30.2520    8.1758 C   0  0  0  0  0  0
    0.8845   31.4560    7.7479 C   0  0  0  0  0  0
   -0.3422   31.8514    8.2710 C   0  0  0  0  0  0
    0.8329   29.4304    9.0645 N   0  0  0  0  0  0
   -0.3737   29.7844    9.5229 C   0  0  0  0  0  0
   -0.9644   30.9967    9.1342 N   0  0  0  0  0  0
   -2.1756   31.1837    9.6932 N   0  0  0  0  0  0
   -2.3621   30.1063   10.4276 C   0  0  0  0  0  0
   -1.3103   29.1771   10.4031 C   0  0  0  0  0  0
   -1.2148   27.8601   11.1046 C   0  0  0  0  0  0
   -0.2842   26.9000   10.6969 C   0  0  0  0  0  0
   -1.9333   26.3467   12.8635 C   0  0  0  0  0  0
   -2.0301   27.5692   12.2020 C   0  0  0  0  0  0
    2.7327   29.9288    7.7177 N   0  0  0  0  0  0
    3.4447   28.7313    8.1588 C   0  0  0  0  0  0
    4.8670   28.6076    7.5828 C   0  0  0  0  0  0
    4.8580   28.5360    6.1309 N   0  0  0  0  0  0
   -1.0072   25.3965   12.4390 C   0  0  0  0  0  0
   -0.1713   25.6710   11.3538 C   0  0  0  0  0  0
    0.8404   24.6871   10.8856 C   0  0  0  0  0  0
    0.9794   23.4245   11.2168 N   0  0  0  0  0  0
    2.0590   22.9506   10.4775 N   0  0  0  0  0  0
    2.4904   23.9707    9.7763 C   0  0  0  0  0  0
    1.7744   25.0958    9.9889 O   0  0  0  0  0  0
    3.6539   24.0410    8.8180 C   0  0  0  0  0  0
    1.4085   32.0995    7.0588 H   0  0  0  0  0  0
   -0.8424   32.7774    8.0319 H   0  0  0  0  0  0
   -3.2841   29.9874   10.9764 H   0  0  0  0  0  0
    0.3574   27.1005    9.8535 H   0  0  0  0  0  0
   -2.5743   26.1454   13.7084 H   0  0  0  0  0  0
   -2.7416   28.2931   12.5693 H   0  0  0  0  0  0
    3.2095   30.5651    7.0920 H   0  0  0  0  0  0
    2.8580   27.8525    7.9048 H   0  0  0  0  0  0
    3.4950   28.7309    9.2484 H   0  0  0  0  0  0
    5.3451   27.7108    7.9807 H   0  0  0  0  0  0
    5.4761   29.4570    7.8962 H   0  0  0  0  0  0
    4.5753   29.4446    5.7762 H   0  0  0  0  0  0
    5.8060   28.3980    5.7916 H   0  0  0  0  0  0
   -0.9362   24.4537   12.9588 H   0  0  0  0  0  0
    4.0576   23.0579    8.5769 H   0  0  0  0  0  0
    3.3555   24.5009    7.8773 H   0  0  0  0  0  0
    4.4580   24.6519    9.2210 H   0  0  0  0  0  0
  1  2  1  0  0  0
  1  4  2  0  0  0
  1 14  1  0  0  0
  2  3  2  0  0  0
  2 26  1  0  0  0
  3  6  1  0  0  0
  3 27  1  0  0  0
  4  5  1  0  0  0
  5  6  1  0  0  0
  5  9  2  0  0  0
  6  7  1  0  0  0
  7  8  2  0  0  0
  8  9  1  0  0  0
  8 28  1  0  0  0
  9 10  1  0  0  0
 10 11  2  0  0  0
 10 13  1  0  0  0
 11 19  1  0  0  0
 11 29  1  0  0  0
 12 18  1  0  0  0
 12 13  2  0  0  0
 12 30  1  0  0  0
 13 31  1  0  0  0
 14 15  1  0  0  0
 14 32  1  0  0  0
 15 16  1  0  0  0
 15 33  1  0  0  0
 15 34  1  0  0  0
 16 17  1  0  0  0
 16 35  1  0  0  0
 16 36  1  0  0  0
 17 37  1  0  0  0
 17 38  1  0  0  0
 18 19  2  0  0  0
 18 39  1  0  0  0
 19 20  1  0  0  0
 20 21  2  0  0  0
 20 24  1  0  0  0
 21 22  1  0  0  0
 22 23  2  0  0  0
 23 24  1  0  0  0
 23 25  1  0  0  0
 25 40  1  0  0  0
 25 41  1  0  0  0
 25 42  1  0  0  0
M  END
> <s_m_entry_id>
32781

> <s_m_entry_name>
dock_pv.182

> <s_m_Source_Path>
/home/csk/Desktop/cluster/DUD-E-result/cdk2

> <s_m_Source_File>
dock_pv.maegz

> <i_m_Source_File_Index>
182

> <chembl_id>
CHEMBL2442291

> <chembl_pref_name>
None

> <i_lp_mmshare_version>
53161

> <i_f3d_flags>
0

> <r_lp_tautomer_probability>
1

> <s_lp_Force_Field>
OPLS_2005

> <r_lp_Energy>
9.936091

> <b_lp_Chiralities_Consistent>
1

> <s_lp_Variant>
CHEMBL301_lig1227-1

> <s_i_glide_gridfile>
glide-grid_1h00

> <i_i_glide_lignum>
1641

> <i_i_glide_rotatable_bonds>
5

> <r_i_docking_score>
-7.8215163080357

> <r_i_glide_ligand_efficiency>
-0.312860652321428

> <r_i_glide_ligand_efficiency_sa>
-0.914810095995151

> <r_i_glide_ligand_efficiency_ln>
-1.85393375693395

> <r_i_glide_gscore>
-7.8215163080357

> <r_i_glide_lipo>
-2.02996736458659

> <r_i_glide_hbond>
-0.801431634797977

> <r_i_glide_metal>
0

> <r_i_glide_rewards>
-2.71436967067376

> <r_i_glide_evdw>
-37.1060256958008

> <r_i_glide_ecoul>
-6.90244007110596

> <r_i_glide_erotb>
0.671210899154038

> <r_i_glide_esite>
-0.0562912416754804

> <r_i_glide_emodel>
-65.4572051724348

> <r_i_glide_energy>
-44.0084657669067

> <r_i_glide_einternal>
1.50591087341309

> <i_i_glide_confnum>
43

> <i_i_glide_posenum>
375

> <r_i_glide_eff_state_penalty>
0

> <s_user_duplicate_titles>
CHEMBL301_lig1227

> <s_m_subgroup_title>
dock_pv

> <s_m_subgroupid>
dock_pv

> <b_m_subgroup_collapsed>
1

$$$$
CHEMBL301_lig1155
                    3D
 Schrodinger Suite 2021-1.
 51 54  0  0  1  0            999 V2000
    4.9580   27.1234    5.7302 C   0  0  0  0  0  0
    5.5888   26.6195    4.1373 S   0  0  0  0  0  0
    4.2098   25.8787    3.3761 N   0  0  0  0  0  0
    5.9021   27.8325    3.3726 O   0  0  0  0  0  0
    6.5863   25.5686    4.3616 O   0  0  0  0  0  0
    4.2125   28.2975    5.8176 C   0  0  0  0  0  0
    5.1684   26.3514    6.8751 C   0  0  0  0  0  0
    4.6206   26.7565    8.0935 C   0  0  0  0  0  0
    3.8654   27.9266    8.1763 C   0  0  0  0  0  0
    3.6441   28.6926    7.0278 C   0  0  0  0  0  0
    2.8585   29.8520    7.0082 N   0  0  0  0  0  0
    1.7400   30.2711    7.7299 C   0  0  0  0  0  0
    1.2416   31.4829    7.3761 N   0  0  0  0  0  0
    0.1282   31.8892    8.0440 C   0  0  0  0  0  0
   -0.5240   31.0847    8.9810 C   0  0  0  0  0  0
    0.0517   29.8389    9.2808 C   0  0  0  0  0  0
    1.2060   29.4536    8.6690 N   0  0  0  0  0  0
   -0.5607   28.8390   10.2215 C   0  0  0  0  0  0
    0.0216   27.5729   10.4271 C   0  0  0  0  0  0
   -0.5938   26.6073   11.2418 C   0  0  0  0  0  0
   -1.7651   26.8969   11.8761 N   0  0  0  0  0  0
   -2.3254   28.1161   11.7000 C   0  0  0  0  0  0
   -1.7595   29.1021   10.8989 C   0  0  0  0  0  0
   -0.0439   25.3311   11.4479 N   0  0  0  0  0  0
    1.0578   24.8347   10.5905 C   0  0  0  0  0  0
    1.8158   23.6025   11.1186 C   0  0  0  0  0  0
    0.8875   22.4570   11.5132 C   0  0  0  0  0  0
   -0.1546   22.9972   12.4887 C   0  0  0  0  0  0
   -0.9022   24.2183   11.9182 C   0  0  0  0  0  0
    3.6587   26.5539    2.8463 H   0  0  0  0  0  0
    4.4587   25.1091    2.7390 H   0  0  0  0  0  0
    4.0536   28.8951    4.9319 H   0  0  0  0  0  0
    5.7421   25.4373    6.8214 H   0  0  0  0  0  0
    4.7701   26.1552    8.9754 H   0  0  0  0  0  0
    3.4528   28.2220    9.1293 H   0  0  0  0  0  0
    3.2820   30.5870    6.4496 H   0  0  0  0  0  0
   -0.2599   32.8633    7.7791 H   0  0  0  0  0  0
   -1.4301   31.4362    9.4478 H   0  0  0  0  0  0
    0.9424   27.3410    9.9200 H   0  0  0  0  0  0
   -3.2765   28.2905   12.1760 H   0  0  0  0  0  0
   -2.2802   30.0426   10.8042 H   0  0  0  0  0  0
    1.8178   25.6100   10.5099 H   0  0  0  0  0  0
    0.6797   24.6536    9.5835 H   0  0  0  0  0  0
    2.4573   23.8996   11.9497 H   0  0  0  0  0  0
    2.4937   23.2570   10.3383 H   0  0  0  0  0  0
    0.4017   22.0445   10.6270 H   0  0  0  0  0  0
    1.4520   21.6422   11.9692 H   0  0  0  0  0  0
   -0.8751   22.2104   12.7169 H   0  0  0  0  0  0
    0.2968   23.2568   13.4474 H   0  0  0  0  0  0
   -1.5601   24.5743   12.7119 H   0  0  0  0  0  0
   -1.5459   23.9153   11.0920 H   0  0  0  0  0  0
  1  7  1  0  0  0
  1  6  2  0  0  0
  1  2  1  0  0  0
  2  5  2  0  0  0
  2  3  1  0  0  0
  2  4  2  0  0  0
  3 30  1  0  0  0
  3 31  1  0  0  0
  6 10  1  0  0  0
  6 32  1  0  0  0
  7  8  2  0  0  0
  7 33  1  0  0  0
  8  9  1  0  0  0
  8 34  1  0  0  0
  9 10  2  0  0  0
  9 35  1  0  0  0
 10 11  1  0  0  0
 11 12  1  0  0  0
 11 36  1  0  0  0
 12 13  2  0  0  0
 12 17  1  0  0  0
 13 14  1  0  0  0
 14 15  2  0  0  0
 14 37  1  0  0  0
 15 16  1  0  0  0
 15 38  1  0  0  0
 16 18  1  0  0  0
 16 17  2  0  0  0
 18 23  1  0  0  0
 18 19  2  0  0  0
 19 20  1  0  0  0
 19 39  1  0  0  0
 20 21  2  0  0  0
 20 24  1  0  0  0
 21 22  1  0  0  0
 22 23  2  0  0  0
 22 40  1  0  0  0
 23 41  1  0  0  0
 24 25  1  0  0  0
 24 29  1  0  0  0
 25 26  1  0  0  0
 25 42  1  0  0  0
 25 43  1  0  0  0
 26 27  1  0  0  0
 26 44  1  0  0  0
 26 45  1  0  0  0
 27 28  1  0  0  0
 27 46  1  0  0  0
 27 47  1  0  0  0
 28 29  1  0  0  0
 28 48  1  0  0  0
 28 49  1  0  0  0
 29 50  1  0  0  0
 29 51  1  0  0  0
M  END
> <s_m_entry_id>
32782

> <s_m_entry_name>
dock_pv.183

> <s_m_Source_Path>
/home/csk/Desktop/cluster/DUD-E-result/cdk2

> <s_m_Source_File>
dock_pv.maegz

> <i_m_Source_File_Index>
183

> <chembl_id>
CHEMBL2158857

> <chembl_pref_name>
None

> <i_lp_mmshare_version>
53161

> <i_f3d_flags>
0

> <r_lp_tautomer_probability>
0.999999987636

> <s_lp_Force_Field>
OPLS_2005

> <r_lp_Energy>
23.844847

> <b_lp_Chiralities_Consistent>
1

> <s_lp_Variant>
CHEMBL301_lig1155-1

> <s_i_glide_gridfile>
glide-grid_1h00

> <i_i_glide_lignum>
1567

> <i_i_glide_rotatable_bonds>
5

> <r_i_docking_score>
-7.82133329025257

> <r_i_glide_ligand_efficiency>
-0.269701147939744

> <r_i_glide_ligand_efficiency_sa>
-0.828607373792007

> <r_i_glide_ligand_efficiency_ln>
-1.79088699156814

> <r_i_glide_gscore>
-7.82133329025257

> <r_i_glide_lipo>
-2.7623641640788

> <r_i_glide_hbond>
-0.4138799202165

> <r_i_glide_metal>
0

> <r_i_glide_rewards>
-1.95031308795599

> <r_i_glide_evdw>
-40.8330879211426

> <r_i_glide_ecoul>
-6.72359418869019

> <r_i_glide_erotb>
0.467658929081265

> <r_i_glide_esite>
-0.112241522721881

> <r_i_glide_emodel>
-70.7049271192259

> <r_i_glide_energy>
-47.5566821098328

> <r_i_glide_einternal>
1.73546743392944

> <i_i_glide_confnum>
45

> <i_i_glide_posenum>
9

> <r_i_glide_eff_state_penalty>
0

> <s_user_duplicate_titles>
CHEMBL301_lig1155

> <s_m_subgroup_title>
dock_pv

> <s_m_subgroupid>
dock_pv

> <b_m_subgroup_collapsed>
1

$$$$
CHEMBL301_lig211
                    3D
 Schrodinger Suite 2021-1.
 34 36  0  0  1  0            999 V2000
   -2.3465   29.8765   10.3538 C   0  0  0  0  0  0
   -2.9537   31.1226   10.1760 C   0  0  0  0  0  0
   -2.2934   32.1318    9.4803 C   0  0  0  0  0  0
   -1.1007   29.6114    9.7825 C   0  0  0  0  0  0
   -0.4668   30.6064    9.0358 C   0  0  0  0  0  0
   -1.0555   31.8494    8.9186 C   0  0  0  0  0  0
   -0.2429   32.6596    8.1760 N   0  0  0  0  0  0
    0.8269   31.9995    7.7233 C   0  0  0  0  0  0
    0.7771   30.6520    8.2984 C   0  0  0  0  0  0
    1.6778   32.4594    6.9760 O   0  0  0  0  0  0
    1.6580   29.7309    8.2090 N   0  0  0  0  0  0
    2.7818   29.8520    7.3760 N   0  0  0  0  0  0
    3.7074   28.8257    7.1969 C   0  0  0  0  0  0
    4.2989   28.2214    8.3048 C   0  0  0  0  0  0
    5.2580   27.2351    8.1235 C   0  0  0  0  0  0
    5.6044   26.8242    6.8404 C   0  0  0  0  0  0
    4.9898   27.3993    5.7261 C   0  0  0  0  0  0
    4.0580   28.4190    5.9079 C   0  0  0  0  0  0
    6.8717   25.5784    6.6657 S   0  0  0  0  0  0
    7.6055   25.8520    5.1105 N   0  0  0  0  0  0
    7.8898   25.8520    7.6856 O   0  0  0  0  0  0
    6.1853   24.2849    6.6085 O   0  0  0  0  0  0
   -2.9657   28.9265   11.0830 F   0  0  0  0  0  0
   -3.9223   31.3166   10.6114 H   0  0  0  0  0  0
   -2.7420   33.1056    9.3791 H   0  0  0  0  0  0
   -0.6512   28.6383    9.9157 H   0  0  0  0  0  0
   -0.4231   33.6255    7.9380 H   0  0  0  0  0  0
    2.7538   30.6383    6.7348 H   0  0  0  0  0  0
    4.0367   28.5335    9.3051 H   0  0  0  0  0  0
    5.7451   26.7930    8.9760 H   0  0  0  0  0  0
    5.2601   27.0897    4.7268 H   0  0  0  0  0  0
    3.6106   28.8906    5.0467 H   0  0  0  0  0  0
    8.4181   26.4735    5.1406 H   0  0  0  0  0  0
    7.7468   25.0082    4.5515 H   0  0  0  0  0  0
  1  2  2  0  0  0
  1  4  1  0  0  0
  1 23  1  0  0  0
  2  3  1  0  0  0
  2 24  1  0  0  0
  3  6  2  0  0  0
  3 25  1  0  0  0
  4  5  2  0  0  0
  4 26  1  0  0  0
  5  9  1  0  0  0
  5  6  1  0  0  0
  6  7  1  0  0  0
  7  8  1  0  0  0
  7 27  1  0  0  0
  8  9  1  0  0  0
  8 10  2  0  0  0
  9 11  2  0  0  0
 11 12  1  0  0  0
 12 13  1  0  0  0
 12 28  1  0  0  0
 13 14  2  0  0  0
 13 18  1  0  0  0
 14 15  1  0  0  0
 14 29  1  0  0  0
 15 16  2  0  0  0
 15 30  1  0  0  0
 16 17  1  0  0  0
 16 19  1  0  0  0
 17 18  2  0  0  0
 17 31  1  0  0  0
 18 32  1  0  0  0
 19 20  1  0  0  0
 19 21  2  0  0  0
 19 22  2  0  0  0
 20 33  1  0  0  0
 20 34  1  0  0  0
M  END
> <s_m_entry_id>
32783

> <s_m_entry_name>
dock_pv.184

> <s_m_Source_Path>
/home/csk/Desktop/cluster/DUD-E-result/cdk2

> <s_m_Source_File>
dock_pv.maegz

> <i_m_Source_File_Index>
184

> <chembl_id>
CHEMBL273061

> <chembl_pref_name>
None

> <i_lp_mmshare_version>
53161

> <i_f3d_flags>
0

> <r_lp_tautomer_probability>
1

> <s_lp_Force_Field>
OPLS_2005

> <r_lp_Energy>
43.470545

> <b_lp_Chiralities_Consistent>
1

> <s_lp_Variant>
CHEMBL301_lig211-1

> <s_i_glide_gridfile>
glide-grid_1h00

> <i_i_glide_lignum>
353

> <i_i_glide_rotatable_bonds>
3

> <r_i_docking_score>
-7.81640904445626

> <r_i_glide_ligand_efficiency>
-0.339843871498098

> <r_i_glide_ligand_efficiency_sa>
-0.966470763448239

> <r_i_glide_ligand_efficiency_ln>
-1.89007858222819

> <r_i_glide_gscore>
-7.81640904445626

> <r_i_glide_lipo>
-2.16332802996648

> <r_i_glide_hbond>
-0.466633216730948

> <r_i_glide_metal>
0

> <r_i_glide_rewards>
-2.43175967018923

> <r_i_glide_evdw>
-33.2835464477539

> <r_i_glide_ecoul>
-8.28592777252197

> <r_i_glide_erotb>
0.23621468381578

> <r_i_glide_esite>
-0.0838363231193895

> <r_i_glide_emodel>
-58.5463829163532

> <r_i_glide_energy>
-41.5694742202759

> <r_i_glide_einternal>
5.938720703125

> <i_i_glide_confnum>
1

> <i_i_glide_posenum>
46

> <r_i_glide_eff_state_penalty>
0

> <s_user_duplicate_titles>
CHEMBL301_lig211,441129,136815

> <s_m_subgroup_title>
dock_pv

> <s_m_subgroupid>
dock_pv

> <b_m_subgroup_collapsed>
1

$$$$
CHEMBL301_lig144
                    3D
 Schrodinger Suite 2021-1.
 47 50  0  0  1  0            999 V2000
    0.2361   30.8229    8.5708 C   0  0  0  0  0  0
    0.5044   29.5920    9.1230 C   0  0  0  0  0  0
    2.0830   29.8461    7.6030 C   0  0  0  0  0  0
    1.6543   29.0519    8.6122 O   0  0  0  0  0  0
    1.2666   31.0522    7.5642 C   0  0  0  0  0  0
   -0.3297   29.0012   10.0807 C   0  0  0  0  0  0
   -0.8382   31.5803    9.0296 C   0  0  0  0  0  0
   -1.4504   29.7534   10.4924 C   0  0  0  0  0  0
   -1.6852   31.0364    9.9915 C   0  0  0  0  0  0
    3.0742   29.5364    6.7391 C   0  0  0  0  0  0
   -0.4773   25.0770   12.1091 N   0  0  2  0  0  0
   -0.0372   27.5920   10.6247 C   0  0  0  0  0  0
    1.4602   32.0332    6.8489 O   0  0  0  0  0  0
    0.0874   27.5178   12.1596 C   0  0  0  0  0  0
   -1.0618   26.5343   10.1724 C   0  0  0  0  0  0
   -0.6626   25.1246   10.6525 C   0  0  0  0  0  0
    0.4572   26.0926   12.6169 C   0  0  0  0  0  0
   -1.0473   32.8523    8.5760 O   0  0  0  0  0  0
   -2.3457   29.2533   11.3913 O   0  0  0  0  0  0
    3.9725   28.3682    6.7004 C   0  0  0  0  0  0
   -0.0733   23.7436   12.5363 C   0  0  0  0  0  0
    4.4438   27.9581    5.4483 C   0  0  0  0  0  0
    4.3393   27.6543    7.8454 C   0  0  0  0  0  0
    5.1632   26.5364    7.7281 C   0  0  0  0  0  0
    5.2580   26.8371    5.3324 C   0  0  0  0  0  0
    5.6161   26.1317    6.4761 C   0  0  0  0  0  0
   -2.5292   31.6122   10.3405 H   0  0  0  0  0  0
    3.2577   30.2485    5.9485 H   0  0  0  0  0  0
    0.9340   27.3121   10.2105 H   0  0  0  0  0  0
    0.8579   28.2072   12.4972 H   0  0  0  0  0  0
   -0.8243   27.8059   12.6818 H   0  0  0  0  0  0
   -2.0514   26.7486   10.5759 H   0  0  0  0  0  0
   -1.1398   26.5189    9.0852 H   0  0  0  0  0  0
    0.2582   24.8071   10.1591 H   0  0  0  0  0  0
   -1.4314   24.4057   10.3634 H   0  0  0  0  0  0
    1.4723   25.8511   12.2947 H   0  0  0  0  0  0
    0.4573   26.0531   13.7074 H   0  0  0  0  0  0
   -0.3631   33.1392    7.9651 H   0  0  0  0  0  0
   -2.9173   29.9161   11.8074 H   0  0  0  0  0  0
   -0.8026   22.9972   12.2185 H   0  0  0  0  0  0
    0.8989   23.4702   12.1225 H   0  0  0  0  0  0
   -0.0083   23.6902   13.6240 H   0  0  0  0  0  0
    4.1718   28.5021    4.5560 H   0  0  0  0  0  0
    3.9876   27.9561    8.8227 H   0  0  0  0  0  0
    5.4516   25.9707    8.5973 H   0  0  0  0  0  0
    5.6179   26.5211    4.3634 H   0  0  0  0  0  0
    6.2529   25.2644    6.3879 H   0  0  0  0  0  0
  1  2  1  0  0  0
  1  5  1  0  0  0
  1  7  2  0  0  0
  2  4  1  0  0  0
  2  6  2  0  0  0
  3  5  1  0  0  0
  3 10  2  0  0  0
  3  4  1  0  0  0
  5 13  2  0  0  0
  6 12  1  0  0  0
  6  8  1  0  0  0
  7  9  1  0  0  0
  7 18  1  0  0  0
  8  9  2  0  0  0
  8 19  1  0  0  0
  9 27  1  0  0  0
 10 20  1  0  0  0
 10 28  1  0  0  0
 11 16  1  0  0  0
 11 21  1  0  0  0
 11 17  1  0  0  0
 12 14  1  0  0  0
 12 15  1  0  0  0
 12 29  1  0  0  0
 14 17  1  0  0  0
 14 30  1  0  0  0
 14 31  1  0  0  0
 15 16  1  0  0  0
 15 32  1  0  0  0
 15 33  1  0  0  0
 16 34  1  0  0  0
 16 35  1  0  0  0
 17 36  1  0  0  0
 17 37  1  0  0  0
 18 38  1  0  0  0
 19 39  1  0  0  0
 20 22  1  0  0  0
 20 23  2  0  0  0
 21 40  1  0  0  0
 21 41  1  0  0  0
 21 42  1  0  0  0
 22 25  2  0  0  0
 22 43  1  0  0  0
 23 24  1  0  0  0
 23 44  1  0  0  0
 24 26  2  0  0  0
 24 45  1  0  0  0
 25 26  1  0  0  0
 25 46  1  0  0  0
 26 47  1  0  0  0
M  END
> <s_m_entry_id>
32784

> <s_m_entry_name>
dock_pv.185

> <s_m_Source_Path>
/home/csk/Desktop/cluster/DUD-E-result/cdk2

> <s_m_Source_File>
dock_pv.maegz

> <i_m_Source_File_Index>
185

> <chembl_id>
CHEMBL51709

> <chembl_pref_name>
None

> <i_lp_mmshare_version>
53161

> <i_f3d_flags>
0

> <r_lp_tautomer_probability>
1

> <s_lp_Force_Field>
OPLS_2005

> <r_lp_Energy>
41.541677

> <b_lp_Chiralities_Consistent>
1

> <s_lp_Variant>
CHEMBL301_lig144-1

> <s_i_glide_gridfile>
glide-grid_1h00

> <i_i_glide_lignum>
283

> <i_i_glide_rotatable_bonds>
4

> <r_i_docking_score>
-7.81020809851304

> <r_i_glide_ligand_efficiency>
-0.300392619173578

> <r_i_glide_ligand_efficiency_sa>
-0.889911952313845

> <r_i_glide_ligand_efficiency_ln>
-1.83420174455275

> <r_i_glide_gscore>
-7.81020809851304

> <r_i_glide_lipo>
-3.18012600562851

> <r_i_glide_hbond>
-0.375122139022283

> <r_i_glide_metal>
0

> <r_i_glide_rewards>
-1.72481308952319

> <r_i_glide_evdw>
-34.9566307067871

> <r_i_glide_ecoul>
-6.24515962600708

> <r_i_glide_erotb>
0.15445861490136

> <r_i_glide_esite>
0

> <r_i_glide_emodel>
-59.8483328038995

> <r_i_glide_energy>
-41.2017903327942

> <r_i_glide_einternal>
4.17504787445068

> <i_i_glide_confnum>
3

> <i_i_glide_posenum>
335

> <r_i_glide_eff_state_penalty>
0

> <s_user_duplicate_titles>
CHEMBL301_lig144

> <s_m_subgroup_title>
dock_pv

> <s_m_subgroupid>
dock_pv

> <b_m_subgroup_collapsed>
1

$$$$
CHEMBL301_lig523
                    3D
 Schrodinger Suite 2021-1.
 44 47  0  0  1  0            999 V2000
   -1.4615   28.3141   10.6204 N   0  0  0  0  0  0
    4.4605   25.1364    8.1757 C   0  0  0  0  0  0
    4.4585   24.4006    6.9967 C   0  0  0  0  0  0
    4.4655   25.0608    5.7718 C   0  0  0  0  0  0
    4.4689   26.4571    5.7214 C   0  0  0  0  0  0
    4.4581   27.2042    6.9071 C   0  0  0  0  0  0
    4.4774   26.5278    8.1323 C   0  0  0  0  0  0
    4.3938   28.7316    6.8593 C   0  0  0  0  0  0
    3.1727   29.3357    7.5879 C   0  0  0  0  0  0
    2.9355   29.0086    8.7493 O   0  0  0  0  0  0
    2.4579   30.2525    6.9022 N   0  0  0  0  0  0
    1.4016   30.9991    7.3964 C   0  0  0  0  0  0
    0.2567   32.7596    7.7764 N   0  0  0  0  0  0
    1.2620   32.2501    7.0482 N   0  0  0  0  0  0
   -0.3424   31.8055    8.5763 C   0  0  0  0  0  0
    0.3860   30.6153    8.3412 C   0  0  0  0  0  0
    0.0120   29.4520    9.0259 C   0  0  0  0  0  0
   -1.0600   29.4754    9.9230 C   0  0  0  0  0  0
   -1.7443   30.6753   10.1428 C   0  0  0  0  0  0
   -1.4156   31.8606    9.4747 C   0  0  0  0  0  0
   -1.2095   26.9909   10.0412 C   0  0  0  0  0  0
    0.1427   26.4538   10.5533 C   0  0  0  0  0  0
    0.5501   27.2619   11.7975 C   0  0  0  0  0  0
   -1.0139   28.1427   12.3235 S   0  0  0  0  0  0
   -0.6975   29.4296   12.9536 O   0  0  0  0  0  0
   -1.8277   27.1297   13.0066 O   0  0  0  0  0  0
    4.4561   24.0359    4.1755 Br  0  0  0  0  0  0
    4.4538   24.6395    9.1325 H   0  0  0  0  0  0
    4.4390   23.3215    7.0283 H   0  0  0  0  0  0
    4.4626   26.9515    4.7610 H   0  0  0  0  0  0
    4.4814   27.0766    9.0626 H   0  0  0  0  0  0
    5.2933   29.1349    7.3248 H   0  0  0  0  0  0
    4.4211   29.0627    5.8203 H   0  0  0  0  0  0
    2.9125   30.6191    6.0760 H   0  0  0  0  0  0
    0.0141   33.7386    7.6750 H   0  0  0  0  0  0
    0.5723   28.5474    8.8832 H   0  0  0  0  0  0
   -2.5609   30.6908   10.8540 H   0  0  0  0  0  0
   -1.9645   32.7729    9.6589 H   0  0  0  0  0  0
   -2.0273   26.2802   10.1740 H   0  0  0  0  0  0
   -1.1410   27.0546    8.9546 H   0  0  0  0  0  0
    0.0457   25.3931   10.7886 H   0  0  0  0  0  0
    0.9131   26.5090    9.7799 H   0  0  0  0  0  0
    0.8575   26.6201   12.6186 H   0  0  0  0  0  0
    1.3260   28.0018   11.6040 H   0  0  0  0  0  0
  1 18  1  0  0  0
  1 21  1  0  0  0
  1 24  1  0  0  0
  2  3  2  0  0  0
  2  7  1  0  0  0
  2 28  1  0  0  0
  3  4  1  0  0  0
  3 29  1  0  0  0
  4  5  2  0  0  0
  4 27  1  0  0  0
  5  6  1  0  0  0
  5 30  1  0  0  0
  6  8  1  0  0  0
  6  7  2  0  0  0
  7 31  1  0  0  0
  8  9  1  0  0  0
  8 32  1  0  0  0
  8 33  1  0  0  0
  9 10  2  0  0  0
  9 11  1  0  0  0
 11 12  1  0  0  0
 11 34  1  0  0  0
 12 14  2  0  0  0
 12 16  1  0  0  0
 13 15  1  0  0  0
 13 14  1  0  0  0
 13 35  1  0  0  0
 15 16  2  0  0  0
 15 20  1  0  0  0
 16 17  1  0  0  0
 17 18  2  0  0  0
 17 36  1  0  0  0
 18 19  1  0  0  0
 19 20  2  0  0  0
 19 37  1  0  0  0
 20 38  1  0  0  0
 21 22  1  0  0  0
 21 39  1  0  0  0
 21 40  1  0  0  0
 22 23  1  0  0  0
 22 41  1  0  0  0
 22 42  1  0  0  0
 23 24  1  0  0  0
 23 43  1  0  0  0
 23 44  1  0  0  0
 24 25  2  0  0  0
 24 26  2  0  0  0
M  END
> <s_m_entry_id>
32785

> <s_m_entry_name>
dock_pv.186

> <s_m_Source_Path>
/home/csk/Desktop/cluster/DUD-E-result/cdk2

> <s_m_Source_File>
dock_pv.maegz

> <i_m_Source_File_Index>
186

> <chembl_id>
CHEMBL402158

> <chembl_pref_name>
None

> <i_lp_mmshare_version>
53161

> <i_f3d_flags>
0

> <r_lp_tautomer_probability>
0.980392156862745

> <s_lp_Force_Field>
OPLS_2005

> <r_lp_Energy>
20.719333

> <b_lp_Chiralities_Consistent>
1

> <s_lp_Variant>
CHEMBL301_lig523-1

> <s_i_glide_gridfile>
glide-grid_1h00

> <i_i_glide_lignum>
730

> <i_i_glide_rotatable_bonds>
5

> <r_i_docking_score>
-7.81018346759804

> <r_i_glide_ligand_efficiency>
-0.289266054355483

> <r_i_glide_ligand_efficiency_sa>
-0.867798162113076

> <r_i_glide_ligand_efficiency_ln>
-1.81808195031915

> <r_i_glide_gscore>
-7.81018346759804

> <r_i_glide_lipo>
-2.79942574118251

> <r_i_glide_hbond>
-0.588972882436516

> <r_i_glide_metal>
0

> <r_i_glide_rewards>
-1.50249431817262

> <r_i_glide_evdw>
-42.1124496459961

> <r_i_glide_ecoul>
-6.99773693084717

> <r_i_glide_erotb>
0.277931915538845

> <r_i_glide_esite>
-0.0419394194183717

> <r_i_glide_emodel>
-69.8166270325622

> <r_i_glide_energy>
-49.1101865768433

> <r_i_glide_einternal>
6.93300580978394

> <i_i_glide_confnum>
31

> <i_i_glide_posenum>
134

> <r_i_glide_eff_state_penalty>
0

> <s_user_duplicate_titles>
CHEMBL301_lig523,424698

> <s_m_subgroup_title>
dock_pv

> <s_m_subgroupid>
dock_pv

> <b_m_subgroup_collapsed>
1

$$$$
CHEMBL301_lig1376
                    3D
 Schrodinger Suite 2021-1.
 43 44  0  0  1  0            999 V2000
    1.6369   26.3224   10.6810 C   0  0  0  0  0  0
    0.2898   27.0122   10.3936 C   0  0  0  0  0  0
   -0.0661   28.1903   11.3336 C   0  0  2  0  0  0
   -0.7010   27.7409   12.6731 C   0  0  0  0  0  0
    0.0579   26.7647   13.3561 O   0  0  0  0  0  0
   -1.1936   29.3919   10.5508 S   0  0  0  0  0  0
   -0.3529   30.3888    9.3438 C   0  0  0  0  0  0
    0.7022   29.8542    8.6654 N   0  0  0  0  0  0
    1.3056   30.6520    7.7386 C   0  0  0  0  0  0
    2.3827   30.1858    6.9760 N   0  0  0  0  0  0
    3.2577   29.0999    7.1061 C   0  0  0  0  0  0
    3.9173   28.6518    5.9594 C   0  0  0  0  0  0
    4.8580   27.6305    6.0421 C   0  0  0  0  0  0
    5.1444   27.0606    7.2823 C   0  0  0  0  0  0
    4.4679   27.4962    8.4207 C   0  0  0  0  0  0
    3.5324   28.5180    8.3404 C   0  0  0  0  0  0
    6.3815   25.7775    7.4535 S   0  0  2  0  0  0
    5.5371   24.5076    7.3732 N   0  0  0  0  0  0
    7.2624   26.1150    8.5757 O   0  0  0  0  0  0
    7.3738   25.6889    5.8587 C   0  0  0  0  0  0
    0.9455   31.9280    7.4522 N   0  0  0  0  0  0
   -0.0747   32.4505    8.1760 C   0  0  0  0  0  0
   -0.7747   31.7111    9.1271 C   0  0  0  0  0  0
   -2.2164   32.5270   10.0764 Br  0  0  0  0  0  0
    1.8962   25.6347    9.8758 H   0  0  0  0  0  0
    1.6179   25.7416   11.6016 H   0  0  0  0  0  0
    2.4485   27.0455   10.7640 H   0  0  0  0  0  0
    0.3263   27.3823    9.3760 H   0  0  0  0  0  0
   -0.5111   26.2717   10.4004 H   0  0  0  0  0  0
    0.8501   28.7397   11.5575 H   0  0  0  0  0  0
   -0.8286   28.6005   13.3327 H   0  0  0  0  0  0
   -1.6980   27.3305   12.5047 H   0  0  0  0  0  0
    0.9837   27.0522   13.3764 H   0  0  0  0  0  0
    2.7214   30.8704    6.3151 H   0  0  0  0  0  0
    3.7243   29.1110    5.0015 H   0  0  0  0  0  0
    5.3713   27.3134    5.1474 H   0  0  0  0  0  0
    4.6709   27.0521    9.3760 H   0  0  0  0  0  0
    3.0447   28.8624    9.2392 H   0  0  0  0  0  0
    6.0997   23.6859    7.2182 H   0  0  0  0  0  0
    6.7122   25.4404    5.0298 H   0  0  0  0  0  0
    7.8527   26.6519    5.6898 H   0  0  0  0  0  0
    8.1366   24.9200    5.9671 H   0  0  0  0  0  0
   -0.3428   33.4744    7.9595 H   0  0  0  0  0  0
  1  2  1  0  0  0
  1 25  1  0  0  0
  1 26  1  0  0  0
  1 27  1  0  0  0
  2  3  1  0  0  0
  2 28  1  0  0  0
  2 29  1  0  0  0
  3  4  1  0  0  0
  3  6  1  0  0  0
  3 30  1  0  0  0
  4  5  1  0  0  0
  4 31  1  0  0  0
  4 32  1  0  0  0
  5 33  1  0  0  0
  6  7  1  0  0  0
  7  8  2  0  0  0
  7 23  1  0  0  0
  8  9  1  0  0  0
  9 10  1  0  0  0
  9 21  2  0  0  0
 10 11  1  0  0  0
 10 34  1  0  0  0
 11 12  2  0  0  0
 11 16  1  0  0  0
 12 13  1  0  0  0
 12 35  1  0  0  0
 13 14  2  0  0  0
 13 36  1  0  0  0
 14 15  1  0  0  0
 14 17  1  0  0  0
 15 16  2  0  0  0
 15 37  1  0  0  0
 16 38  1  0  0  0
 17 18  2  0  0  0
 17 19  2  0  0  0
 17 20  1  0  0  0
 18 39  1  0  0  0
 20 40  1  0  0  0
 20 41  1  0  0  0
 20 42  1  0  0  0
 21 22  1  0  0  0
 22 23  2  0  0  0
 22 43  1  0  0  0
 23 24  1  0  0  0
M  END
> <s_m_entry_id>
32786

> <s_m_entry_name>
dock_pv.187

> <s_m_Source_Path>
/home/csk/Desktop/cluster/DUD-E-result/cdk2

> <s_m_Source_File>
dock_pv.maegz

> <i_m_Source_File_Index>
187

> <chembl_id>
CHEMBL3648127

> <chembl_pref_name>
None

> <i_lp_mmshare_version>
53161

> <i_f3d_flags>
0

> <r_lp_tautomer_probability>
0.999999987636

> <s_lp_Force_Field>
OPLS_2005

> <r_lp_Energy>
2.375094

> <b_lp_Chiralities_Consistent>
1

> <s_lp_Variant>
CHEMBL301_lig1376-1

> <s_i_glide_gridfile>
glide-grid_1h00

> <i_i_glide_lignum>
1843

> <i_i_glide_rotatable_bonds>
8

> <r_i_docking_score>
-7.80948198119849

> <r_i_glide_ligand_efficiency>
-0.325395082549937

> <r_i_glide_ligand_efficiency_sa>
-0.938601834981272

> <r_i_glide_ligand_efficiency_ln>
-1.86916739187827

> <r_i_glide_gscore>
-7.80948198119849

> <r_i_glide_lipo>
-2.69908228905844

> <r_i_glide_hbond>
-0.540221817847255

> <r_i_glide_metal>
0

> <r_i_glide_rewards>
-1.51448949116413

> <r_i_glide_evdw>
-40.4008293151855

> <r_i_glide_ecoul>
-10.4671211242676

> <r_i_glide_erotb>
0.534421251270742

> <r_i_glide_esite>
0

> <r_i_glide_emodel>
-71.1498136122078

> <r_i_glide_energy>
-50.8679504394531

> <r_i_glide_einternal>
5.95224905014038

> <i_i_glide_confnum>
49

> <i_i_glide_posenum>
133

> <r_i_glide_eff_state_penalty>
0

> <s_user_duplicate_titles>
CHEMBL301_lig1376

> <s_m_subgroup_title>
dock_pv

> <s_m_subgroupid>
dock_pv

> <b_m_subgroup_collapsed>
1

$$$$
CHEMBL301_lig1380
                    3D
 Schrodinger Suite 2021-1.
 43 44  0  0  1  0            999 V2000
   -1.1001   25.8704   10.4937 C   0  0  0  0  0  0
   -0.6182   26.8423   11.5860 C   0  0  1  0  0  0
    0.4567   26.1796   12.2323 O   0  0  0  0  0  0
   -0.1599   28.2220   11.0423 C   0  0  2  0  0  0
    0.3964   29.1365   12.1368 C   0  0  0  0  0  0
   -1.4337   29.1773   10.1758 S   0  0  0  0  0  0
   -0.5439   30.3196    9.1529 C   0  0  0  0  0  0
    0.5659   29.8520    8.5215 N   0  0  0  0  0  0
    1.2256   30.7024    7.6954 C   0  0  0  0  0  0
    2.3461   30.2520    6.9771 N   0  0  0  0  0  0
    3.1964   29.1362    7.1066 C   0  0  0  0  0  0
    3.8418   28.6545    5.9615 C   0  0  0  0  0  0
    4.7858   27.6377    6.0469 C   0  0  0  0  0  0
    5.0830   27.0786    7.2882 C   0  0  0  0  0  0
    4.4010   27.5163    8.4251 C   0  0  0  0  0  0
    3.4684   28.5487    8.3424 C   0  0  0  0  0  0
    6.3307   25.7968    7.4420 S   0  0  2  0  0  0
    5.4875   24.5255    7.3752 N   0  0  0  0  0  0
    7.2448   26.1344    8.5391 O   0  0  0  0  0  0
    7.2876   25.6935    5.8261 C   0  0  0  0  0  0
    0.8598   31.9928    7.4756 N   0  0  0  0  0  0
   -0.2042   32.4626    8.1762 C   0  0  0  0  0  0
   -0.9542   31.6529    9.0287 C   0  0  0  0  0  0
   -2.4393   32.3812    9.9772 Br  0  0  0  0  0  0
   -1.9417   26.2717    9.9363 H   0  0  0  0  0  0
   -1.4203   24.9207   10.9221 H   0  0  0  0  0  0
   -0.3080   25.6582    9.7746 H   0  0  0  0  0  0
   -1.4175   26.9886   12.3144 H   0  0  0  0  0  0
    1.0242   26.8290   12.6639 H   0  0  0  0  0  0
    0.6440   28.0274   10.3309 H   0  0  0  0  0  0
    1.2581   28.6678   12.5760 H   0  0  0  0  0  0
    0.7258   30.0989   11.7443 H   0  0  0  0  0  0
   -0.3360   29.3279   12.9237 H   0  0  0  0  0  0
    2.7378   30.9583    6.3718 H   0  0  0  0  0  0
    3.6570   29.1090    5.0006 H   0  0  0  0  0  0
    5.2941   27.3170    5.1507 H   0  0  0  0  0  0
    4.5967   27.0565    9.3760 H   0  0  0  0  0  0
    2.9796   28.8978    9.2394 H   0  0  0  0  0  0
    6.0483   23.7053    7.2060 H   0  0  0  0  0  0
    6.6072   25.4488    5.0119 H   0  0  0  0  0  0
    7.7722   26.6503    5.6430 H   0  0  0  0  0  0
    8.0443   24.9173    5.9205 H   0  0  0  0  0  0
   -0.4603   33.5018    8.0244 H   0  0  0  0  0  0
  1  2  1  0  0  0
  1 25  1  0  0  0
  1 26  1  0  0  0
  1 27  1  0  0  0
  2  3  1  0  0  0
  2  4  1  0  0  0
  2 28  1  0  0  0
  3 29  1  0  0  0
  4  5  1  0  0  0
  4  6  1  0  0  0
  4 30  1  0  0  0
  5 31  1  0  0  0
  5 32  1  0  0  0
  5 33  1  0  0  0
  6  7  1  0  0  0
  7  8  2  0  0  0
  7 23  1  0  0  0
  8  9  1  0  0  0
  9 10  1  0  0  0
  9 21  2  0  0  0
 10 11  1  0  0  0
 10 34  1  0  0  0
 11 12  2  0  0  0
 11 16  1  0  0  0
 12 13  1  0  0  0
 12 35  1  0  0  0
 13 14  2  0  0  0
 13 36  1  0  0  0
 14 15  1  0  0  0
 14 17  1  0  0  0
 15 16  2  0  0  0
 15 37  1  0  0  0
 16 38  1  0  0  0
 17 18  2  0  0  0
 17 19  2  0  0  0
 17 20  1  0  0  0
 18 39  1  0  0  0
 20 40  1  0  0  0
 20 41  1  0  0  0
 20 42  1  0  0  0
 21 22  1  0  0  0
 22 23  2  0  0  0
 22 43  1  0  0  0
 23 24  1  0  0  0
M  END
> <s_m_entry_id>
32787

> <s_m_entry_name>
dock_pv.188

> <s_m_Source_Path>
/home/csk/Desktop/cluster/DUD-E-result/cdk2

> <s_m_Source_File>
dock_pv.maegz

> <i_m_Source_File_Index>
188

> <chembl_id>
CHEMBL3648102

> <chembl_pref_name>
None

> <i_lp_mmshare_version>
53161

> <i_f3d_flags>
0

> <r_lp_tautomer_probability>
0.999999987636

> <s_lp_Force_Field>
OPLS_2005

> <r_lp_Energy>
-0.380782

> <b_lp_Chiralities_Consistent>
1

> <s_lp_Variant>
CHEMBL301_lig1380-2

> <s_i_glide_gridfile>
glide-grid_1h00

> <i_i_glide_lignum>
1853

> <i_i_glide_rotatable_bonds>
7

> <r_i_docking_score>
-7.80190395497871

> <r_i_glide_ligand_efficiency>
-0.325079331457446

> <r_i_glide_ligand_efficiency_sa>
-0.937691051227299

> <r_i_glide_ligand_efficiency_ln>
-1.86735362247091

> <r_i_glide_gscore>
-7.80190395497871

> <r_i_glide_lipo>
-3.00341998548708

> <r_i_glide_hbond>
-0.561017280351604

> <r_i_glide_metal>
0

> <r_i_glide_rewards>
-1.46554958248535

> <r_i_glide_evdw>
-39.9572448730469

> <r_i_glide_ecoul>
-8.72317409515381

> <r_i_glide_erotb>
0.534421251270742

> <r_i_glide_esite>
0

> <r_i_glide_emodel>
-67.8123073926599

> <r_i_glide_energy>
-48.6804189682007

> <r_i_glide_einternal>
5.55972576141357

> <i_i_glide_confnum>
74

> <i_i_glide_posenum>
154

> <r_i_glide_eff_state_penalty>
0

> <s_user_duplicate_titles>
CHEMBL301_lig1380

> <s_m_subgroup_title>
dock_pv

> <s_m_subgroupid>
dock_pv

> <b_m_subgroup_collapsed>
1

$$$$
CHEMBL301_lig81
                    3D
 Schrodinger Suite 2021-1.
 46 50  0  0  1  0            999 V2000
    1.7004   27.3641    9.7998 C   0  0  0  0  0  0
    1.5216   28.7110    9.3796 C   0  0  0  0  0  0
    2.4202   29.3817    8.5937 N   0  0  0  0  0  0
    2.8532   26.6838    9.3763 C   0  0  0  0  0  0
    3.7162   27.3241    8.4891 C   0  0  0  0  0  0
    3.4620   28.6678    8.1760 C   0  0  0  0  0  0
    4.4658   29.0519    7.3182 N   0  0  0  0  0  0
    5.2580   28.0089    7.0010 N   0  0  0  0  0  0
    4.8178   26.9657    7.6647 C   0  0  0  0  0  0
    5.2069   25.6540    7.4739 N   0  0  0  0  0  0
    6.4626   25.1979    7.3092 C   0  0  0  0  0  0
    6.6283   23.7166    6.9167 C   0  0  0  0  0  0
    7.4760   25.8731    7.4794 O   0  0  0  0  0  0
    0.3111   29.5257    9.7132 C   0  0  0  0  0  0
   -0.3409   30.2718    8.7182 C   0  0  0  0  0  0
   -1.4953   30.9946    9.0091 C   0  0  0  0  0  0
   -2.0175   30.9638   10.2967 C   0  0  0  0  0  0
   -1.3734   30.2497   11.3017 C   0  0  0  0  0  0
   -0.2050   29.5504   11.0156 C   0  0  0  0  0  0
    5.3994   22.8896    6.5691 C   0  0  0  0  0  0
    6.3160   23.3958    5.4711 C   0  0  0  0  0  0
   -3.1775   31.6319   10.5760 O   0  0  0  0  0  0
    0.6882   26.5818   10.5760 C   0  0  0  0  0  0
   -0.6539   26.5401   10.1759 C   0  0  0  0  0  0
   -1.5847   25.7879   10.8842 C   0  0  0  0  0  0
   -1.1795   25.0573   11.9954 C   0  0  0  0  0  0
    0.1499   25.0720   12.4008 C   0  0  0  0  0  0
    1.0777   25.8305   11.6911 C   0  0  0  0  0  0
    3.0145   25.6480    9.6350 H   0  0  0  0  0  0
    4.5996   29.9607    6.8807 H   0  0  0  0  0  0
    4.4674   24.9706    7.4854 H   0  0  0  0  0  0
    7.4813   23.2191    7.3759 H   0  0  0  0  0  0
    0.0410   30.2805    7.7073 H   0  0  0  0  0  0
   -1.9966   31.5595    8.2370 H   0  0  0  0  0  0
   -1.7772   30.2303   12.3033 H   0  0  0  0  0  0
    0.2859   29.0016   11.8069 H   0  0  0  0  0  0
    4.3911   23.3019    6.6331 H   0  0  0  0  0  0
    5.4122   21.8265    6.8130 H   0  0  0  0  0  0
    6.9631   22.6893    4.9501 H   0  0  0  0  0  0
    5.9628   24.1866    4.8056 H   0  0  0  0  0  0
   -3.4983   31.4523   11.4812 H   0  0  0  0  0  0
   -0.9797   27.0933    9.3070 H   0  0  0  0  0  0
   -2.6196   25.7686   10.5749 H   0  0  0  0  0  0
   -1.9051   24.4761   12.5450 H   0  0  0  0  0  0
    0.4575   24.5002   13.2629 H   0  0  0  0  0  0
    2.1083   25.8467   12.0160 H   0  0  0  0  0  0
  1  2  2  0  0  0
  1  4  1  0  0  0
  1 23  1  0  0  0
  2 14  1  0  0  0
  2  3  1  0  0  0
  3  6  2  0  0  0
  4  5  2  0  0  0
  4 29  1  0  0  0
  5  9  1  0  0  0
  5  6  1  0  0  0
  6  7  1  0  0  0
  7  8  1  0  0  0
  7 30  1  0  0  0
  8  9  2  0  0  0
  9 10  1  0  0  0
 10 11  1  0  0  0
 10 31  1  0  0  0
 11 12  1  0  0  0
 11 13  2  0  0  0
 12 20  1  0  0  0
 12 21  1  0  0  0
 12 32  1  0  0  0
 14 15  2  0  0  0
 14 19  1  0  0  0
 15 16  1  0  0  0
 15 33  1  0  0  0
 16 17  2  0  0  0
 16 34  1  0  0  0
 17 18  1  0  0  0
 17 22  1  0  0  0
 18 19  2  0  0  0
 18 35  1  0  0  0
 19 36  1  0  0  0
 20 21  1  0  0  0
 20 37  1  0  0  0
 20 38  1  0  0  0
 21 39  1  0  0  0
 21 40  1  0  0  0
 22 41  1  0  0  0
 23 24  2  0  0  0
 23 28  1  0  0  0
 24 25  1  0  0  0
 24 42  1  0  0  0
 25 26  2  0  0  0
 25 43  1  0  0  0
 26 27  1  0  0  0
 26 44  1  0  0  0
 27 28  2  0  0  0
 27 45  1  0  0  0
 28 46  1  0  0  0
M  END
> <s_m_entry_id>
32788

> <s_m_entry_name>
dock_pv.189

> <s_m_Source_Path>
/home/csk/Desktop/cluster/DUD-E-result/cdk2

> <s_m_Source_File>
dock_pv.maegz

> <i_m_Source_File_Index>
189

> <chembl_id>
CHEMBL427909

> <chembl_pref_name>
None

> <i_lp_mmshare_version>
53161

> <i_f3d_flags>
0

> <r_lp_tautomer_probability>
0.960980075421075

> <s_lp_Force_Field>
OPLS_2005

> <r_lp_Energy>
25.745157

> <b_lp_Chiralities_Consistent>
1

> <s_lp_Variant>
CHEMBL301_lig81-1

> <s_i_glide_gridfile>
glide-grid_1h00

> <i_i_glide_lignum>
177

> <i_i_glide_rotatable_bonds>
6

> <r_i_docking_score>
-7.80047155136345

> <r_i_glide_ligand_efficiency>
-0.278588269691552

> <r_i_glide_ligand_efficiency_sa>
-0.845958066499654

> <r_i_glide_ligand_efficiency_ln>
-1.80057786585149

> <r_i_glide_gscore>
-7.80047155136345

> <r_i_glide_lipo>
-2.25429820621649

> <r_i_glide_hbond>
-0.456

> <r_i_glide_metal>
0

> <r_i_glide_rewards>
-2.4713509392225

> <r_i_glide_evdw>
-39.7568244934082

> <r_i_glide_ecoul>
-8.89357757568359

> <r_i_glide_erotb>
0.703055455098482

> <r_i_glide_esite>
0

> <r_i_glide_emodel>
-65.1201124430508

> <r_i_glide_energy>
-48.6504020690918

> <r_i_glide_einternal>
7.64091920852661

> <i_i_glide_confnum>
115

> <i_i_glide_posenum>
336

> <r_i_glide_eff_state_penalty>
0

> <s_user_duplicate_titles>
CHEMBL301_lig81,429266

> <s_m_subgroup_title>
dock_pv

> <s_m_subgroupid>
dock_pv

> <b_m_subgroup_collapsed>
1

$$$$
CHEMBL301_lig965
                    3D
 Schrodinger Suite 2021-1.
 55 59  0  0  1  0            999 V2000
    4.4768   28.1334    5.7019 C   0  0  0  0  0  0
    5.2522   27.0080    5.4414 C   0  0  0  0  0  0
    5.5793   26.1474    6.4840 C   0  0  0  0  0  0
    5.1455   26.4111    7.7800 C   0  0  0  0  0  0
    4.3747   27.5417    8.0462 C   0  0  0  0  0  0
    4.0329   28.3999    6.9982 C   0  0  0  0  0  0
    3.2564   29.5528    7.1666 N   0  0  0  0  0  0
    2.1161   29.8763    7.9054 C   0  0  0  0  0  0
    1.6949   29.0519    8.8908 N   0  0  0  0  0  0
    0.3250   31.3167    8.1714 C   0  0  0  0  0  0
    1.4661   31.0001    7.5029 N   0  0  0  0  0  0
   -0.2163   30.5119    9.1777 C   0  0  0  0  0  0
    0.4942   29.3339    9.4551 C   0  0  0  0  0  0
   -2.3635   29.6531   10.2759 C   0  0  0  0  0  0
   -1.4542   30.8745    9.9996 C   0  0  0  0  0  0
   -1.7550   27.3357   11.5460 C   0  0  0  0  0  0
   -1.5140   28.4493   10.7133 C   0  0  0  0  0  0
   -0.1834   28.3313   10.3196 C   0  0  0  0  0  0
    0.2377   27.1127   10.8103 N   0  0  0  0  0  0
   -0.6936   26.5499   11.5901 N   0  0  0  0  0  0
   -3.0162   27.0280   12.1761 C   0  0  0  0  0  0
   -2.9342   26.2509   13.2569 N   0  0  0  0  0  0
   -4.0986   27.4560   11.7769 O   0  0  0  0  0  0
    1.5374   26.4425   10.6156 C   0  0  0  0  0  0
    1.4850   24.8897   10.5526 C   0  0  0  0  0  0
    2.6713   24.3178    9.7515 C   0  0  0  0  0  0
    2.5760   22.7825    9.6055 C   0  0  0  0  0  0
    2.4531   22.1088   10.9045 N   0  0  1  0  0  0
    1.4363   22.6736   11.8016 C   0  0  0  0  0  0
    1.5533   24.2072   11.9313 C   0  0  0  0  0  0
    4.2268   28.8018    4.8901 H   0  0  0  0  0  0
    5.5996   26.8055    4.4382 H   0  0  0  0  0  0
    6.1804   25.2724    6.2855 H   0  0  0  0  0  0
    5.4167   25.7370    8.5759 H   0  0  0  0  0  0
    4.0568   27.7489    9.0584 H   0  0  0  0  0  0
    3.5638   30.3184    6.5752 H   0  0  0  0  0  0
   -0.1506   32.2464    7.8906 H   0  0  0  0  0  0
   -2.9519   29.4515    9.3831 H   0  0  0  0  0  0
   -3.0931   29.9034   11.0448 H   0  0  0  0  0  0
   -1.1231   31.2774   10.9583 H   0  0  0  0  0  0
   -2.0268   31.6698    9.5199 H   0  0  0  0  0  0
   -3.7734   26.0527   13.7746 H   0  0  0  0  0  0
   -2.0369   25.9251   13.5761 H   0  0  0  0  0  0
    2.2319   26.7987   11.3759 H   0  0  0  0  0  0
    1.9362   26.7758    9.6644 H   0  0  0  0  0  0
    0.5679   24.5790   10.0476 H   0  0  0  0  0  0
    3.6307   24.6201   10.1736 H   0  0  0  0  0  0
    2.6875   24.7664    8.7571 H   0  0  0  0  0  0
    3.4692   22.4076    9.1040 H   0  0  0  0  0  0
    1.7286   22.5058    8.9762 H   0  0  0  0  0  0
    2.2718   21.1213   10.7644 H   0  0  0  0  0  0
    1.5394   22.2067   12.7818 H   0  0  0  0  0  0
    0.4507   22.4030   11.4187 H   0  0  0  0  0  0
    0.7567   24.5756   12.5755 H   0  0  0  0  0  0
    2.4637   24.4832   12.4659 H   0  0  0  0  0  0
  1  6  1  0  0  0
  1  2  2  0  0  0
  1 31  1  0  0  0
  2  3  1  0  0  0
  2 32  1  0  0  0
  3  4  2  0  0  0
  3 33  1  0  0  0
  4  5  1  0  0  0
  4 34  1  0  0  0
  5  6  2  0  0  0
  5 35  1  0  0  0
  6  7  1  0  0  0
  7  8  1  0  0  0
  7 36  1  0  0  0
  8  9  2  0  0  0
  8 11  1  0  0  0
  9 13  1  0  0  0
 10 12  1  0  0  0
 10 11  2  0  0  0
 10 37  1  0  0  0
 12 15  1  0  0  0
 12 13  2  0  0  0
 13 18  1  0  0  0
 14 17  1  0  0  0
 14 15  1  0  0  0
 14 38  1  0  0  0
 14 39  1  0  0  0
 15 40  1  0  0  0
 15 41  1  0  0  0
 16 17  1  0  0  0
 16 20  2  0  0  0
 16 21  1  0  0  0
 17 18  2  0  0  0
 18 19  1  0  0  0
 19 20  1  0  0  0
 19 24  1  0  0  0
 21 22  1  0  0  0
 21 23  2  0  0  0
 22 42  1  0  0  0
 22 43  1  0  0  0
 24 25  1  0  0  0
 24 44  1  0  0  0
 24 45  1  0  0  0
 25 26  1  0  0  0
 25 30  1  0  0  0
 25 46  1  0  0  0
 26 27  1  0  0  0
 26 47  1  0  0  0
 26 48  1  0  0  0
 27 28  1  0  0  0
 27 49  1  0  0  0
 27 50  1  0  0  0
 28 29  1  0  0  0
 28 51  1  0  0  0
 29 30  1  0  0  0
 29 52  1  0  0  0
 29 53  1  0  0  0
 30 54  1  0  0  0
 30 55  1  0  0  0
M  END
> <s_m_entry_id>
32789

> <s_m_entry_name>
dock_pv.190

> <s_m_Source_Path>
/home/csk/Desktop/cluster/DUD-E-result/cdk2

> <s_m_Source_File>
dock_pv.maegz

> <i_m_Source_File_Index>
190

> <chembl_id>
CHEMBL1171949

> <chembl_pref_name>
None

> <i_lp_mmshare_version>
53161

> <i_f3d_flags>
0

> <r_lp_tautomer_probability>
0.999999987636

> <s_lp_Force_Field>
OPLS_2005

> <r_lp_Energy>
28.573775

> <b_lp_Chiralities_Consistent>
1

> <s_lp_Variant>
CHEMBL301_lig965-1

> <s_i_glide_gridfile>
glide-grid_1h00

> <i_i_glide_lignum>
1359

> <i_i_glide_rotatable_bonds>
5

> <r_i_docking_score>
-7.79893173672435

> <r_i_glide_ligand_efficiency>
-0.259964391224145

> <r_i_glide_ligand_efficiency_sa>
-0.807769805886375

> <r_i_glide_ligand_efficiency_ln>
-1.7720022667511

> <r_i_glide_gscore>
-7.79893173672435

> <r_i_glide_lipo>
-2.41178958177225

> <r_i_glide_hbond>
-0.48

> <r_i_glide_metal>
0

> <r_i_glide_rewards>
-2.16585654793883

> <r_i_glide_evdw>
-37.2449684143066

> <r_i_glide_ecoul>
-8.53293228149414

> <r_i_glide_erotb>
0.482415721039915

> <r_i_glide_esite>
-0.0815130651137346

> <r_i_glide_emodel>
-67.2531588260975

> <r_i_glide_energy>
-45.7779006958008

> <r_i_glide_einternal>
4.63548994064331

> <i_i_glide_confnum>
58

> <i_i_glide_posenum>
167

> <r_i_glide_eff_state_penalty>
0

> <s_user_duplicate_titles>
CHEMBL301_lig965,648052

> <s_m_subgroup_title>
dock_pv

> <s_m_subgroupid>
dock_pv

> <b_m_subgroup_collapsed>
1

$$$$
CHEMBL301_lig1088
                    3D
 Schrodinger Suite 2021-1.
 53 56  0  0  1  0            999 V2000
   -0.9254   31.8364    9.0413 C   0  0  0  0  0  0
   -0.2733   32.7243    8.1771 C   0  0  0  0  0  0
    0.8415   32.4316    7.4510 N   0  0  0  0  0  0
   -0.4032   30.5485    9.2444 C   0  0  0  0  0  0
   -1.1021   29.6578   10.0792 N   0  0  0  0  0  0
   -0.3998   28.8563   11.0735 C   0  0  0  0  0  0
    0.8119   30.2519    8.5808 C   0  0  0  0  0  0
    1.3188   31.2116    7.6760 C   0  0  0  0  0  0
    2.4575   30.6540    7.1637 N   0  0  0  0  0  0
    2.6213   29.4396    7.7753 C   0  0  0  0  0  0
    1.6825   29.1914    8.6620 N   0  0  0  0  0  0
    3.6943   28.4808    7.3802 C   0  0  0  0  0  0
    4.2144   27.5575    8.2902 C   0  0  0  0  0  0
    5.1429   26.6063    7.8670 C   0  0  0  0  0  0
    5.5693   26.5651    6.5419 C   0  0  0  0  0  0
    5.0433   27.4878    5.6274 C   0  0  0  0  0  0
    4.1253   28.4442    6.0482 C   0  0  0  0  0  0
    6.4994   25.5933    6.2291 O   0  0  0  0  0  0
    7.0351   25.5471    4.9106 C   0  0  0  0  0  0
   -2.4900   32.4343    9.9561 Br  0  0  0  0  0  0
   -1.3484   27.8991   11.8243 C   0  0  0  0  0  0
   -0.6839   27.0711   12.9412 C   0  0  0  0  0  0
    0.4554   26.2817   12.4808 N   0  0  0  0  0  0
    0.3942   25.1013   11.8527 C   0  0  0  0  0  0
    1.7375   24.5796   11.3089 C   0  0  0  0  0  0
   -0.6630   24.5173   11.6129 O   0  0  0  0  0  0
    1.8335   23.0496   11.1396 C   0  0  0  0  0  0
    2.4929   23.3182    9.7738 C   0  0  0  0  0  0
    1.7995   24.6874    9.7759 C   0  0  0  0  0  0
   -0.6713   33.7179    8.0318 H   0  0  0  0  0  0
   -1.9469   30.0732   10.4498 H   0  0  0  0  0  0
    0.1222   29.5165   11.7690 H   0  0  0  0  0  0
    0.4063   28.2824   10.6151 H   0  0  0  0  0  0
    3.1337   31.0405    6.5137 H   0  0  0  0  0  0
    3.8934   27.5589    9.3233 H   0  0  0  0  0  0
    5.5396   25.8944    8.5755 H   0  0  0  0  0  0
    5.3524   27.4875    4.5924 H   0  0  0  0  0  0
    3.7312   29.1433    5.3242 H   0  0  0  0  0  0
    7.7748   24.7489    4.8529 H   0  0  0  0  0  0
    6.2607   25.3368    4.1695 H   0  0  0  0  0  0
    7.5376   26.4822    4.6521 H   0  0  0  0  0  0
   -1.8135   27.2200   11.1084 H   0  0  0  0  0  0
   -2.1734   28.4682   12.2548 H   0  0  0  0  0  0
   -1.4185   26.4462   13.4517 H   0  0  0  0  0  0
   -0.2806   27.7540   13.6890 H   0  0  0  0  0  0
    1.3719   26.6883   12.6562 H   0  0  0  0  0  0
    2.5966   25.0406   11.8006 H   0  0  0  0  0  0
    0.8771   22.5300   11.0311 H   0  0  0  0  0  0
    2.4508   22.5294   11.8723 H   0  0  0  0  0  0
    2.1911   22.6413    8.9762 H   0  0  0  0  0  0
    3.5786   23.3942    9.7761 H   0  0  0  0  0  0
    2.3870   25.5179    9.3809 H   0  0  0  0  0  0
    0.8306   24.6548    9.2738 H   0  0  0  0  0  0
  1  2  2  0  0  0
  1  4  1  0  0  0
  1 20  1  0  0  0
  2  3  1  0  0  0
  2 30  1  0  0  0
  3  8  2  0  0  0
  4  7  2  0  0  0
  4  5  1  0  0  0
  5  6  1  0  0  0
  5 31  1  0  0  0
  6 21  1  0  0  0
  6 32  1  0  0  0
  6 33  1  0  0  0
  7  8  1  0  0  0
  7 11  1  0  0  0
  8  9  1  0  0  0
  9 10  1  0  0  0
  9 34  1  0  0  0
 10 11  2  0  0  0
 10 12  1  0  0  0
 12 17  1  0  0  0
 12 13  2  0  0  0
 13 14  1  0  0  0
 13 35  1  0  0  0
 14 15  2  0  0  0
 14 36  1  0  0  0
 15 16  1  0  0  0
 15 18  1  0  0  0
 16 17  2  0  0  0
 16 37  1  0  0  0
 17 38  1  0  0  0
 18 19  1  0  0  0
 19 39  1  0  0  0
 19 40  1  0  0  0
 19 41  1  0  0  0
 21 22  1  0  0  0
 21 42  1  0  0  0
 21 43  1  0  0  0
 22 23  1  0  0  0
 22 44  1  0  0  0
 22 45  1  0  0  0
 23 24  1  0  0  0
 23 46  1  0  0  0
 24 25  1  0  0  0
 24 26  2  0  0  0
 25 27  1  0  0  0
 25 29  1  0  0  0
 25 47  1  0  0  0
 27 28  1  0  0  0
 27 48  1  0  0  0
 27 49  1  0  0  0
 28 29  1  0  0  0
 28 50  1  0  0  0
 28 51  1  0  0  0
 29 52  1  0  0  0
 29 53  1  0  0  0
M  END
> <s_m_entry_id>
32790

> <s_m_entry_name>
dock_pv.191

> <s_m_Source_Path>
/home/csk/Desktop/cluster/DUD-E-result/cdk2

> <s_m_Source_File>
dock_pv.maegz

> <i_m_Source_File_Index>
191

> <chembl_id>
CHEMBL2011933

> <chembl_pref_name>
None

> <i_lp_mmshare_version>
53161

> <i_f3d_flags>
0

> <r_lp_tautomer_probability>
1

> <s_lp_Force_Field>
OPLS_2005

> <r_lp_Energy>
28.314849

> <b_lp_Chiralities_Consistent>
1

> <s_lp_Variant>
CHEMBL301_lig1088-1

> <s_i_glide_gridfile>
glide-grid_1h00

> <i_i_glide_lignum>
1491

> <i_i_glide_rotatable_bonds>
9

> <r_i_docking_score>
-7.79748944316041

> <r_i_glide_ligand_efficiency>
-0.268878946315876

> <r_i_glide_ligand_efficiency_sa>
-0.826081309911728

> <r_i_glide_ligand_efficiency_ln>
-1.78542735521183

> <r_i_glide_gscore>
-7.79748944316041

> <r_i_glide_lipo>
-2.59649592735897

> <r_i_glide_hbond>
-0.608

> <r_i_glide_metal>
0

> <r_i_glide_rewards>
-1.98974997237764

> <r_i_glide_evdw>
-36.275260925293

> <r_i_glide_ecoul>
-9.56010437011719

> <r_i_glide_erotb>
0.670127864571787

> <r_i_glide_esite>
-0.0255927062133638

> <r_i_glide_emodel>
-66.5746792726359

> <r_i_glide_energy>
-45.8353652954102

> <r_i_glide_einternal>
1.94890308380127

> <i_i_glide_confnum>
33

> <i_i_glide_posenum>
58

> <r_i_glide_eff_state_penalty>
0

> <s_user_duplicate_titles>
CHEMBL301_lig1088

> <s_m_subgroup_title>
dock_pv

> <s_m_subgroupid>
dock_pv

> <b_m_subgroup_collapsed>
1

$$$$
CHEMBL301_lig1403
                    3D
 Schrodinger Suite 2021-1.
 44 45  0  0  1  0            999 V2000
   -1.1338   29.2292   13.1937 C   0  0  0  0  0  0
   -0.7793   28.0213   12.3141 C   0  0  2  0  0  0
    0.0571   27.1491   13.0642 O   0  0  0  0  0  0
   -0.1153   28.4155   10.9671 C   0  0  1  0  0  0
    0.2351   27.1696   10.1263 C   0  0  0  0  0  0
   -0.9208   29.3925   10.2144 N   0  0  0  0  0  0
   -0.3413   30.2681    9.2779 C   0  0  0  0  0  0
    0.7434   29.8495    8.5801 N   0  0  0  0  0  0
    1.3037   30.6927    7.6854 C   0  0  0  0  0  0
    2.4057   30.2528    6.9381 N   0  0  0  0  0  0
    3.2581   29.1440    7.0762 C   0  0  0  0  0  0
    3.5157   28.5646    8.3168 C   0  0  0  0  0  0
    4.3890   27.4905    8.4101 C   0  0  0  0  0  0
    5.0436   27.0047    7.2769 C   0  0  0  0  0  0
    4.7989   27.5890    6.0342 C   0  0  0  0  0  0
    3.9047   28.6519    5.9387 C   0  0  0  0  0  0
    6.1565   25.6031    7.4210 S   0  0  1  0  0  0
    7.0821   25.9901    8.5760 N   0  0  0  0  0  0
    5.3712   24.3668    7.3757 O   0  0  0  0  0  0
    7.3434   25.6655    5.9642 C   0  0  0  0  0  0
    0.8680   31.9545    7.4421 N   0  0  0  0  0  0
   -0.1938   32.3834    8.1761 C   0  0  0  0  0  0
   -0.8484   31.5641    9.1018 C   0  0  0  0  0  0
   -2.3446   32.2289   10.0813 Br  0  0  0  0  0  0
   -1.8855   29.8547   12.7131 H   0  0  0  0  0  0
   -0.2596   29.8498   13.3759 H   0  0  0  0  0  0
   -1.5420   28.9186   14.1557 H   0  0  0  0  0  0
   -1.7087   27.4867   12.1077 H   0  0  0  0  0  0
    0.9766   27.4526   13.0445 H   0  0  0  0  0  0
    0.8293   28.9079   11.2087 H   0  0  0  0  0  0
    0.6663   26.3678   10.7252 H   0  0  0  0  0  0
   -0.6456   26.7655    9.6253 H   0  0  0  0  0  0
    0.9836   27.4034    9.3756 H   0  0  0  0  0  0
   -1.6974   29.7882   10.7252 H   0  0  0  0  0  0
    2.7709   30.9511    6.3059 H   0  0  0  0  0  0
    3.0497   28.9389    9.2155 H   0  0  0  0  0  0
    4.5483   27.0515    9.3758 H   0  0  0  0  0  0
    5.2914   27.2317    5.1426 H   0  0  0  0  0  0
    3.7299   29.1078    4.9760 H   0  0  0  0  0  0
    6.5861   25.9778    9.4695 H   0  0  0  0  0  0
    7.8028   26.6519    5.9218 H   0  0  0  0  0  0
    8.1107   24.9073    6.1123 H   0  0  0  0  0  0
    6.7962   25.4593    5.0465 H   0  0  0  0  0  0
   -0.5233   33.3981    7.9976 H   0  0  0  0  0  0
  1  2  1  0  0  0
  1 25  1  0  0  0
  1 26  1  0  0  0
  1 27  1  0  0  0
  2  3  1  0  0  0
  2  4  1  0  0  0
  2 28  1  0  0  0
  3 29  1  0  0  0
  4  5  1  0  0  0
  4  6  1  0  0  0
  4 30  1  0  0  0
  5 31  1  0  0  0
  5 32  1  0  0  0
  5 33  1  0  0  0
  6  7  1  0  0  0
  6 34  1  0  0  0
  7  8  2  0  0  0
  7 23  1  0  0  0
  8  9  1  0  0  0
  9 10  1  0  0  0
  9 21  2  0  0  0
 10 11  1  0  0  0
 10 35  1  0  0  0
 11 12  2  0  0  0
 11 16  1  0  0  0
 12 13  1  0  0  0
 12 36  1  0  0  0
 13 14  2  0  0  0
 13 37  1  0  0  0
 14 15  1  0  0  0
 14 17  1  0  0  0
 15 16  2  0  0  0
 15 38  1  0  0  0
 16 39  1  0  0  0
 17 18  2  0  0  0
 17 19  2  0  0  0
 17 20  1  0  0  0
 18 40  1  0  0  0
 20 41  1  0  0  0
 20 42  1  0  0  0
 20 43  1  0  0  0
 21 22  1  0  0  0
 22 23  2  0  0  0
 22 44  1  0  0  0
 23 24  1  0  0  0
M  END
> <s_m_entry_id>
32791

> <s_m_entry_name>
dock_pv.192

> <s_m_Source_Path>
/home/csk/Desktop/cluster/DUD-E-result/cdk2

> <s_m_Source_File>
dock_pv.maegz

> <i_m_Source_File_Index>
192

> <chembl_id>
CHEMBL3648117

> <chembl_pref_name>
None

> <i_lp_mmshare_version>
53161

> <i_f3d_flags>
0

> <r_lp_tautomer_probability>
0.999999624730965

> <s_lp_Force_Field>
OPLS_2005

> <r_lp_Energy>
3.102603

> <b_lp_Chiralities_Consistent>
1

> <s_lp_Variant>
CHEMBL301_lig1403-2

> <s_i_glide_gridfile>
glide-grid_1h00

> <i_i_glide_lignum>
1913

> <i_i_glide_rotatable_bonds>
7

> <r_i_docking_score>
-7.79549753954036

> <r_i_glide_ligand_efficiency>
-0.324812397480848

> <r_i_glide_ligand_efficiency_sa>
-0.936921080402017

> <r_i_glide_ligand_efficiency_ln>
-1.86582027328527

> <r_i_glide_gscore>
-7.79549753954036

> <r_i_glide_lipo>
-2.57886084960629

> <r_i_glide_hbond>
-0.612539840168882

> <r_i_glide_metal>
0

> <r_i_glide_rewards>
-1.44360357343912

> <r_i_glide_evdw>
-36.5580062866211

> <r_i_glide_ecoul>
-12.7163677215576

> <r_i_glide_erotb>
0.574862196238635

> <r_i_glide_esite>
0

> <r_i_glide_emodel>
-68.8472051188454

> <r_i_glide_energy>
-49.2743740081787

> <r_i_glide_einternal>
8.08058261871338

> <i_i_glide_confnum>
53

> <i_i_glide_posenum>
267

> <r_i_glide_eff_state_penalty>
0

> <s_user_duplicate_titles>
CHEMBL301_lig1403

> <s_m_subgroup_title>
dock_pv

> <s_m_subgroupid>
dock_pv

> <b_m_subgroup_collapsed>
1

$$$$
CHEMBL301_lig142
                    3D
 Schrodinger Suite 2021-1.
 43 46  0  0  1  0            999 V2000
    1.3366   30.2452    8.1797 C   0  0  0  0  0  0
    7.0953   24.8472    5.8936 S   0  0  0  0  0  0
    0.1562   30.2516    9.0282 C   0  0  0  0  0  0
    1.2577   31.4525    7.3761 C   0  0  0  0  0  0
    0.1758   32.1161    7.8168 N   0  0  0  0  0  0
   -0.5271   31.4197    8.7781 C   0  0  0  0  0  0
    2.3424   29.3490    8.1020 C   0  0  0  0  0  0
   -0.3532   29.3763    9.9964 C   0  0  0  0  0  0
   -1.9426   28.7755   11.6088 N   0  0  0  0  0  0
    5.9506   26.1603    6.3126 C   0  0  0  0  0  0
    0.2484   27.8250   10.5771 S   0  0  0  0  0  0
    8.6992   25.6197    5.9422 N   0  0  0  0  0  0
   -1.1177   27.7711   11.6594 C   0  0  0  0  0  0
   -1.5491   29.6995   10.6929 C   0  0  0  0  0  0
    6.8182   24.4536    4.5074 O   0  0  0  0  0  0
    7.0167   23.8582    6.9757 O   0  0  0  0  0  0
    3.4297   29.3552    7.2642 N   0  0  0  0  0  0
    2.0209   31.8502    6.5017 O   0  0  0  0  0  0
   -1.7003   31.7633    9.4477 C   0  0  0  0  0  0
   -2.2253   30.9011   10.4175 C   0  0  0  0  0  0
    5.4450   26.9832    5.3071 C   0  0  0  0  0  0
    5.6009   26.3777    7.6485 C   0  0  0  0  0  0
    4.2618   28.2699    6.9718 C   0  0  0  0  0  0
    4.6158   28.0507    5.6414 C   0  0  0  0  0  0
    4.7456   27.4253    7.9763 C   0  0  0  0  0  0
    9.7361   25.0268    6.8093 C   0  0  0  0  0  0
    9.1873   26.2520    4.6998 C   0  0  0  0  0  0
   -0.0747   33.0309    7.4691 H   0  0  0  0  0  0
    2.3421   28.4865    8.7522 H   0  0  0  0  0  0
   -1.2554   26.9380   12.3352 H   0  0  0  0  0  0
    3.4779   30.1001    6.5748 H   0  0  0  0  0  0
   -2.2055   32.6943    9.2389 H   0  0  0  0  0  0
   -3.1218   31.1573   10.9683 H   0  0  0  0  0  0
    5.7242   26.8226    4.2754 H   0  0  0  0  0  0
    5.9938   25.7482    8.4353 H   0  0  0  0  0  0
    4.2509   28.7024    4.8630 H   0  0  0  0  0  0
    4.4923   27.5916    9.0134 H   0  0  0  0  0  0
   10.5436   25.7415    6.9699 H   0  0  0  0  0  0
   10.1283   24.1212    6.3447 H   0  0  0  0  0  0
    9.3051   24.7616    7.7734 H   0  0  0  0  0  0
    9.9408   27.0072    4.9303 H   0  0  0  0  0  0
    9.6071   25.4938    4.0382 H   0  0  0  0  0  0
    8.3584   26.7322    4.1778 H   0  0  0  0  0  0
  1  3  1  0  0  0
  1  4  1  0  0  0
  1  7  2  0  0  0
  2 10  1  0  0  0
  2 12  1  0  0  0
  2 15  2  0  0  0
  2 16  2  0  0  0
  3  6  2  0  0  0
  3  8  1  0  0  0
  4  5  1  0  0  0
  4 18  2  0  0  0
  5  6  1  0  0  0
  5 28  1  0  0  0
  6 19  1  0  0  0
  7 17  1  0  0  0
  7 29  1  0  0  0
  8 11  1  0  0  0
  8 14  2  0  0  0
  9 14  1  0  0  0
  9 13  2  0  0  0
 10 22  2  0  0  0
 10 21  1  0  0  0
 11 13  1  0  0  0
 12 26  1  0  0  0
 12 27  1  0  0  0
 13 30  1  0  0  0
 14 20  1  0  0  0
 17 23  1  0  0  0
 17 31  1  0  0  0
 19 20  2  0  0  0
 19 32  1  0  0  0
 20 33  1  0  0  0
 21 24  2  0  0  0
 21 34  1  0  0  0
 22 25  1  0  0  0
 22 35  1  0  0  0
 23 24  1  0  0  0
 23 25  2  0  0  0
 24 36  1  0  0  0
 25 37  1  0  0  0
 26 38  1  0  0  0
 26 39  1  0  0  0
 26 40  1  0  0  0
 27 41  1  0  0  0
 27 42  1  0  0  0
 27 43  1  0  0  0
M  END
> <s_m_entry_id>
32792

> <s_m_entry_name>
dock_pv.193

> <s_m_Source_Path>
/home/csk/Desktop/cluster/DUD-E-result/cdk2

> <s_m_Source_File>
dock_pv.maegz

> <i_m_Source_File_Index>
193

> <chembl_id>
CHEMBL1964247

> <chembl_pref_name>
None

> <i_lp_mmshare_version>
53161

> <i_f3d_flags>
0

> <r_lp_tautomer_probability>
0.499999999999422

> <s_lp_Force_Field>
OPLS_2005

> <r_lp_Energy>
34.824475

> <b_lp_Chiralities_Consistent>
1

> <s_lp_Variant>
CHEMBL301_lig142-1

> <s_i_glide_gridfile>
glide-grid_1h00

> <i_i_glide_lignum>
281

> <i_i_glide_rotatable_bonds>
4

> <r_i_docking_score>
-7.7931524736318

> <r_i_glide_ligand_efficiency>
-0.288635276801178

> <r_i_glide_ligand_efficiency_sa>
-0.865905829452239

> <r_i_glide_ligand_efficiency_ln>
-1.81411741570169

> <r_i_glide_gscore>
-7.7931524736318

> <r_i_glide_lipo>
-2.69810707844006

> <r_i_glide_hbond>
-0.543237508754157

> <r_i_glide_metal>
0

> <r_i_glide_rewards>
-1.81649321505322

> <r_i_glide_evdw>
-40.9700736999512

> <r_i_glide_ecoul>
-6.97156620025635

> <r_i_glide_erotb>
0.366713028000741

> <r_i_glide_esite>
-0.00778908434909546

> <r_i_glide_emodel>
-64.7337109211569

> <r_i_glide_energy>
-47.9416399002075

> <r_i_glide_einternal>
8.98763465881348

> <i_i_glide_confnum>
1

> <i_i_glide_posenum>
51

> <r_i_glide_eff_state_penalty>
0

> <s_user_duplicate_titles>
CHEMBL301_lig142,137290

> <s_m_subgroup_title>
dock_pv

> <s_m_subgroupid>
dock_pv

> <b_m_subgroup_collapsed>
1

$$$$
CHEMBL301_lig1329
                    3D
 Schrodinger Suite 2021-1.
 57 59  0  0  1  0            999 V2000
   -1.7835   25.4418    9.5718 C   0  0  0  0  0  0
   -0.7167   24.8056   10.4773 C   0  0  0  0  0  0
   -0.5483   25.5320   11.8262 C   0  0  1  0  0  0
    0.4582   24.8812   12.5756 O   0  0  0  0  0  0
   -0.2199   27.0385   11.6774 C   0  0  1  0  0  0
   -0.3617   27.8035   13.0150 C   0  0  0  0  0  0
   -0.4866   29.3226   12.8453 C   0  0  0  0  0  0
    1.0589   27.2695   10.9764 N   0  0  0  0  0  0
    1.2152   28.2110    9.9534 C   0  0  0  0  0  0
    2.4346   28.2416    9.3544 N   0  0  0  0  0  0
    2.6641   29.2138    8.4216 C   0  0  0  0  0  0
    3.9049   29.3098    7.7754 N   0  0  0  0  0  0
    4.9825   28.3488    7.9871 C   0  0  0  0  0  0
    4.8101   27.1340    7.0896 C   0  0  0  0  0  0
    4.8587   27.2513    5.6948 C   0  0  0  0  0  0
    4.6900   26.1152    4.8999 C   0  0  0  0  0  0
    4.4899   24.8861    5.5309 C   0  0  0  0  0  0
    4.4561   24.7461    6.8811 N   0  0  0  0  0  0
    4.6126   25.8627    7.6376 C   0  0  0  0  0  0
    1.6699   30.1687    8.1436 C   0  0  0  0  0  0
    1.6371   31.2984    7.3663 N   0  0  0  0  0  0
    0.5096   31.8756    7.7106 C   0  0  0  0  0  0
   -0.3006   31.1123    8.5252 N   0  0  0  0  0  0
   -1.5403   31.4784    9.2050 C   0  0  0  0  0  0
   -2.3417   32.5966    8.5650 C   0  0  0  0  0  0
   -1.1499   31.9652   10.5761 C   0  0  0  0  0  0
    0.4538   30.0014    8.8264 C   0  0  0  0  0  0
    0.1687   29.0311    9.6876 N   0  0  0  0  0  0
   -1.9141   24.8964    8.6433 H   0  0  0  0  0  0
   -2.7431   25.4527   10.0832 H   0  0  0  0  0  0
   -1.5316   26.4606    9.2789 H   0  0  0  0  0  0
    0.2350   24.7775    9.9429 H   0  0  0  0  0  0
   -0.9892   23.7698   10.6722 H   0  0  0  0  0  0
   -1.4741   25.4240   12.3935 H   0  0  0  0  0  0
    0.9998   25.5676   12.9768 H   0  0  0  0  0  0
   -1.0221   27.4461   11.0661 H   0  0  0  0  0  0
   -1.2624   27.4615   13.5275 H   0  0  0  0  0  0
    0.4579   27.5645   13.6882 H   0  0  0  0  0  0
   -0.7438   29.8206   13.7757 H   0  0  0  0  0  0
    0.4438   29.7558   12.4787 H   0  0  0  0  0  0
   -1.2845   29.5613   12.1434 H   0  0  0  0  0  0
    1.8590   26.6958   11.1983 H   0  0  0  0  0  0
    4.0597   30.0866    7.1415 H   0  0  0  0  0  0
    5.9210   28.8383    7.7328 H   0  0  0  0  0  0
    5.0496   28.0508    9.0348 H   0  0  0  0  0  0
    5.0222   28.2153    5.2340 H   0  0  0  0  0  0
    4.7157   26.1845    3.8220 H   0  0  0  0  0  0
    4.3536   23.9861    4.9488 H   0  0  0  0  0  0
    4.5612   25.7240    8.7076 H   0  0  0  0  0  0
    0.1887   32.8531    7.3805 H   0  0  0  0  0  0
   -2.1567   30.5795    9.2832 H   0  0  0  0  0  0
   -3.0959   32.9430    9.2702 H   0  0  0  0  0  0
   -2.8793   32.2527    7.6877 H   0  0  0  0  0  0
   -1.7080   33.4472    8.3173 H   0  0  0  0  0  0
   -2.0171   31.9547   11.2394 H   0  0  0  0  0  0
   -0.3820   31.3280   11.0019 H   0  0  0  0  0  0
   -0.7414   32.9776   10.5571 H   0  0  0  0  0  0
  1  2  1  0  0  0
  1 29  1  0  0  0
  1 30  1  0  0  0
  1 31  1  0  0  0
  2  3  1  0  0  0
  2 32  1  0  0  0
  2 33  1  0  0  0
  3  4  1  0  0  0
  3  5  1  0  0  0
  3 34  1  0  0  0
  4 35  1  0  0  0
  5  6  1  0  0  0
  5  8  1  0  0  0
  5 36  1  0  0  0
  6  7  1  0  0  0
  6 37  1  0  0  0
  6 38  1  0  0  0
  7 39  1  0  0  0
  7 40  1  0  0  0
  7 41  1  0  0  0
  8  9  1  0  0  0
  8 42  1  0  0  0
  9 10  2  0  0  0
  9 28  1  0  0  0
 10 11  1  0  0  0
 11 12  1  0  0  0
 11 20  2  0  0  0
 12 13  1  0  0  0
 12 43  1  0  0  0
 13 14  1  0  0  0
 13 44  1  0  0  0
 13 45  1  0  0  0
 14 15  2  0  0  0
 14 19  1  0  0  0
 15 16  1  0  0  0
 15 46  1  0  0  0
 16 17  2  0  0  0
 16 47  1  0  0  0
 17 18  1  0  0  0
 17 48  1  0  0  0
 18 19  2  0  0  0
 19 49  1  0  0  0
 20 21  1  0  0  0
 20 27  1  0  0  0
 21 22  2  0  0  0
 22 23  1  0  0  0
 22 50  1  0  0  0
 23 24  1  0  0  0
 23 27  1  0  0  0
 24 25  1  0  0  0
 24 26  1  0  0  0
 24 51  1  0  0  0
 25 52  1  0  0  0
 25 53  1  0  0  0
 25 54  1  0  0  0
 26 55  1  0  0  0
 26 56  1  0  0  0
 26 57  1  0  0  0
 27 28  2  0  0  0
M  END
> <s_m_entry_id>
32793

> <s_m_entry_name>
dock_pv.194

> <s_m_Source_Path>
/home/csk/Desktop/cluster/DUD-E-result/cdk2

> <s_m_Source_File>
dock_pv.maegz

> <i_m_Source_File_Index>
194

> <chembl_id>
CHEMBL1922120

> <chembl_pref_name>
None

> <i_lp_mmshare_version>
53161

> <i_f3d_flags>
0

> <r_lp_tautomer_probability>
1

> <s_lp_Force_Field>
OPLS_2005

> <r_lp_Energy>
22.961136

> <b_lp_Chiralities_Consistent>
1

> <s_lp_Variant>
CHEMBL301_lig1329-2

> <s_i_glide_gridfile>
glide-grid_1h00

> <i_i_glide_lignum>
1754

> <i_i_glide_rotatable_bonds>
10

> <r_i_docking_score>
-7.79304920811413

> <r_i_glide_ligand_efficiency>
-0.278323186004076

> <r_i_glide_ligand_efficiency_sa>
-0.845153116298535

> <r_i_glide_ligand_efficiency_ln>
-1.79886457110008

> <r_i_glide_gscore>
-7.79304920811413

> <r_i_glide_lipo>
-2.73530960023226

> <r_i_glide_hbond>
-0.32

> <r_i_glide_metal>
0

> <r_i_glide_rewards>
-2.95357229925953

> <r_i_glide_evdw>
-37.5769882202148

> <r_i_glide_ecoul>
-4.53146409988403

> <r_i_glide_erotb>
0.792820110583749

> <r_i_glide_esite>
-0.0184183932127416

> <r_i_glide_emodel>
-57.0195263037024

> <r_i_glide_energy>
-42.1084523200989

> <r_i_glide_einternal>
4.40448665618896

> <i_i_glide_confnum>
20

> <i_i_glide_posenum>
264

> <r_i_glide_eff_state_penalty>
0

> <s_user_duplicate_titles>
CHEMBL301_lig1329

> <s_m_subgroup_title>
dock_pv

> <s_m_subgroupid>
dock_pv

> <b_m_subgroup_collapsed>
1

$$$$
CHEMBL301_lig1391
                    3D
 Schrodinger Suite 2021-1.
 46 47  0  0  1  0            999 V2000
   -0.0842   27.1749    9.7901 C   0  0  0  0  0  0
   -0.4329   28.2383   10.8483 C   0  0  1  0  0  0
   -1.5432   29.5284   10.1765 S   0  0  0  0  0  0
   -0.6083   30.6098    9.1368 C   0  0  0  0  0  0
    0.4508   30.0794    8.4772 N   0  0  0  0  0  0
    1.1576   30.9046    7.6679 C   0  0  0  0  0  0
    2.2637   30.4011    6.9756 N   0  0  0  0  0  0
    3.0627   29.2637    7.1572 C   0  0  0  0  0  0
    3.7502   28.7692    6.0476 C   0  0  0  0  0  0
    4.6032   27.6806    6.1696 C   0  0  0  0  0  0
    4.7544   27.0601    7.4089 C   0  0  0  0  0  0
    4.0561   27.5395    8.5204 C   0  0  0  0  0  0
    3.2280   28.6511    8.4004 C   0  0  0  0  0  0
    5.7958   25.6154    7.5771 S   0  0  1  0  0  0
    6.8581   26.0691    8.5760 N   0  0  0  0  0  0
    4.9402   24.4394    7.7591 O   0  0  0  0  0  0
    6.8102   25.4457    6.0019 C   0  0  0  0  0  0
    0.8768   32.2168    7.4606 N   0  0  0  0  0  0
   -0.1521   32.7389    8.1760 C   0  0  0  0  0  0
   -0.9358   31.9684    9.0355 C   0  0  0  0  0  0
   -2.3418   32.7766   10.0381 Br  0  0  0  0  0  0
   -0.9336   27.6302   12.1938 C   0  0  0  0  0  0
   -1.1616   28.7342   13.2381 C   0  0  0  0  0  0
   -2.2142   26.7816   12.0364 C   0  0  0  0  0  0
    0.0579   26.7704   12.7362 O   0  0  0  0  0  0
    0.4983   26.3519   10.2042 H   0  0  0  0  0  0
   -0.9836   26.7552    9.3384 H   0  0  0  0  0  0
    0.5198   27.6121    8.9989 H   0  0  0  0  0  0
    0.4972   28.7651   11.0689 H   0  0  0  0  0  0
    2.6936   31.0633    6.3474 H   0  0  0  0  0  0
    3.6556   29.2516    5.0864 H   0  0  0  0  0  0
    5.1307   27.3295    5.2966 H   0  0  0  0  0  0
    4.1380   27.0520    9.4765 H   0  0  0  0  0  0
    2.7153   29.0266    9.2739 H   0  0  0  0  0  0
    6.4584   26.1421    9.5147 H   0  0  0  0  0  0
    7.3348   26.3819    5.8092 H   0  0  0  0  0  0
    7.5312   24.6430    6.1446 H   0  0  0  0  0  0
    6.1454   25.1979    5.1760 H   0  0  0  0  0  0
   -0.3422   33.7953    8.0552 H   0  0  0  0  0  0
   -1.9368   29.4321   12.9190 H   0  0  0  0  0  0
   -0.2604   29.3225   13.4032 H   0  0  0  0  0  0
   -1.5219   28.3162   14.1767 H   0  0  0  0  0  0
   -3.0462   27.3841   11.6713 H   0  0  0  0  0  0
   -2.0745   25.9519   11.3440 H   0  0  0  0  0  0
   -2.5265   26.3532   12.9893 H   0  0  0  0  0  0
    0.8908   27.2485   12.8512 H   0  0  0  0  0  0
  1  2  1  0  0  0
  1 26  1  0  0  0
  1 27  1  0  0  0
  1 28  1  0  0  0
  2  3  1  0  0  0
  2 22  1  0  0  0
  2 29  1  0  0  0
  3  4  1  0  0  0
  4  5  2  0  0  0
  4 20  1  0  0  0
  5  6  1  0  0  0
  6  7  1  0  0  0
  6 18  2  0  0  0
  7  8  1  0  0  0
  7 30  1  0  0  0
  8  9  2  0  0  0
  8 13  1  0  0  0
  9 10  1  0  0  0
  9 31  1  0  0  0
 10 11  2  0  0  0
 10 32  1  0  0  0
 11 12  1  0  0  0
 11 14  1  0  0  0
 12 13  2  0  0  0
 12 33  1  0  0  0
 13 34  1  0  0  0
 14 15  2  0  0  0
 14 16  2  0  0  0
 14 17  1  0  0  0
 15 35  1  0  0  0
 17 36  1  0  0  0
 17 37  1  0  0  0
 17 38  1  0  0  0
 18 19  1  0  0  0
 19 20  2  0  0  0
 19 39  1  0  0  0
 20 21  1  0  0  0
 22 23  1  0  0  0
 22 24  1  0  0  0
 22 25  1  0  0  0
 23 40  1  0  0  0
 23 41  1  0  0  0
 23 42  1  0  0  0
 24 43  1  0  0  0
 24 44  1  0  0  0
 24 45  1  0  0  0
 25 46  1  0  0  0
M  END
> <s_m_entry_id>
32794

> <s_m_entry_name>
dock_pv.195

> <s_m_Source_Path>
/home/csk/Desktop/cluster/DUD-E-result/cdk2

> <s_m_Source_File>
dock_pv.maegz

> <i_m_Source_File_Index>
195

> <chembl_id>
CHEMBL3648104

> <chembl_pref_name>
None

> <i_lp_mmshare_version>
53161

> <i_f3d_flags>
0

> <r_lp_tautomer_probability>
0.999999987636

> <s_lp_Force_Field>
OPLS_2005

> <r_lp_Energy>
3.614342

> <b_lp_Chiralities_Consistent>
1

> <s_lp_Variant>
CHEMBL301_lig1391-4

> <s_i_glide_gridfile>
glide-grid_1h00

> <i_i_glide_lignum>
1882

> <i_i_glide_rotatable_bonds>
7

> <r_i_docking_score>
-7.7908786367502

> <r_i_glide_ligand_efficiency>
-0.311635145470008

> <r_i_glide_ligand_efficiency_sa>
-0.911226692227142

> <r_i_glide_ligand_efficiency_ln>
-1.84667171070236

> <r_i_glide_gscore>
-7.7908786367502

> <r_i_glide_lipo>
-2.81611937882772

> <r_i_glide_hbond>
-0.606229019814959

> <r_i_glide_metal>
0

> <r_i_glide_rewards>
-1.2624301344127

> <r_i_glide_evdw>
-37.1391067504883

> <r_i_glide_ecoul>
-11.6894969940186

> <r_i_glide_erotb>
0.504279782932377

> <r_i_glide_esite>
0

> <r_i_glide_emodel>
-71.1654780271073

> <r_i_glide_energy>
-48.8286037445068

> <r_i_glide_einternal>
4.32144260406494

> <i_i_glide_confnum>
17

> <i_i_glide_posenum>
14

> <r_i_glide_eff_state_penalty>
0

> <s_user_duplicate_titles>
CHEMBL301_lig1391

> <s_m_subgroup_title>
dock_pv

> <s_m_subgroupid>
dock_pv

> <b_m_subgroup_collapsed>
1

$$$$
CHEMBL301_lig1500
                    3D
 Schrodinger Suite 2021-1.
 50 53  0  0  1  0            999 V2000
    2.2162   26.6615   10.4564 C   0  0  0  0  0  0
    1.6620   27.9706   10.3458 O   0  0  0  0  0  0
    0.3350   28.1840   10.6740 C   0  0  0  0  0  0
   -0.3005   27.3648   11.6212 C   0  0  0  0  0  0
   -1.6268   27.5696   11.9698 C   0  0  0  0  0  0
   -2.2180   26.7612   12.8780 F   0  0  0  0  0  0
   -2.3407   28.5992   11.3761 C   0  0  0  0  0  0
   -1.7298   29.4189   10.4339 C   0  0  0  0  0  0
   -0.3832   29.2506   10.0631 C   0  0  0  0  0  0
    0.2198   30.1703    9.0226 C   0  0  0  0  0  0
    1.3074   29.6869    8.3576 N   0  0  0  0  0  0
    1.8716   30.4282    7.3760 C   0  0  0  0  0  0
    2.8580   29.8520    6.5637 N   0  0  0  0  0  0
    3.6888   28.7308    6.7188 C   0  0  0  0  0  0
    4.2913   28.4385    7.9435 C   0  0  0  0  0  0
    5.1710   27.3621    8.0453 C   0  0  0  0  0  0
    5.4102   26.5365    6.9515 C   0  0  0  0  0  0
    4.8027   26.8067    5.7260 C   0  0  0  0  0  0
    4.9725   25.8299    4.5718 C   0  0  0  0  0  0
    6.3726   26.2503    3.3834 S   0  0  1  0  0  0
    6.4580   24.9576    2.5760 N   0  0  0  0  0  0
    6.1364   27.5663    2.7830 O   0  0  0  0  0  0
    7.9763   26.2519    4.4105 C   0  0  0  0  0  0
    9.0476   25.2120    4.1450 C   0  0  0  0  0  0
    9.2334   26.6329    3.6605 C   0  0  0  0  0  0
    3.9944   27.9423    5.6001 C   0  0  0  0  0  0
    1.4968   31.6927    7.0619 N   0  0  0  0  0  0
    0.4580   32.2067    7.7760 C   0  0  0  0  0  0
   -0.2522   31.4684    8.7252 C   0  0  0  0  0  0
   -1.2791   32.0579    9.3792 F   0  0  0  0  0  0
    3.2037   26.6523    9.9979 H   0  0  0  0  0  0
    2.3439   26.3461   11.4905 H   0  0  0  0  0  0
    1.6054   25.9243    9.9330 H   0  0  0  0  0  0
    0.2305   26.5664   12.1142 H   0  0  0  0  0  0
   -3.3716   28.7636   11.6538 H   0  0  0  0  0  0
   -2.3500   30.1774    9.9854 H   0  0  0  0  0  0
    3.3144   30.5496    5.9824 H   0  0  0  0  0  0
    4.0961   29.0523    8.8101 H   0  0  0  0  0  0
    5.6603   27.1448    8.9761 H   0  0  0  0  0  0
    6.0564   25.6784    7.0660 H   0  0  0  0  0  0
    4.0639   25.7780    3.9721 H   0  0  0  0  0  0
    5.1659   24.8235    4.9422 H   0  0  0  0  0  0
    5.8662   24.9811    1.7472 H   0  0  0  0  0  0
    7.8158   26.6519    5.4091 H   0  0  0  0  0  0
    8.8736   24.4255    3.4103 H   0  0  0  0  0  0
    9.6445   24.8590    4.9860 H   0  0  0  0  0  0
    9.9554   27.2804    4.1599 H   0  0  0  0  0  0
    9.1637   26.8425    2.5919 H   0  0  0  0  0  0
    3.5483   28.1759    4.6453 H   0  0  0  0  0  0
    0.1687   33.2221    7.5443 H   0  0  0  0  0  0
  1  2  1  0  0  0
  1 31  1  0  0  0
  1 32  1  0  0  0
  1 33  1  0  0  0
  2  3  1  0  0  0
  3  4  2  0  0  0
  3  9  1  0  0  0
  4  5  1  0  0  0
  4 34  1  0  0  0
  5  6  1  0  0  0
  5  7  2  0  0  0
  7  8  1  0  0  0
  7 35  1  0  0  0
  8  9  2  0  0  0
  8 36  1  0  0  0
  9 10  1  0  0  0
 10 11  2  0  0  0
 10 29  1  0  0  0
 11 12  1  0  0  0
 12 13  1  0  0  0
 12 27  2  0  0  0
 13 14  1  0  0  0
 13 37  1  0  0  0
 14 15  2  0  0  0
 14 26  1  0  0  0
 15 16  1  0  0  0
 15 38  1  0  0  0
 16 17  2  0  0  0
 16 39  1  0  0  0
 17 18  1  0  0  0
 17 40  1  0  0  0
 18 19  1  0  0  0
 18 26  2  0  0  0
 19 20  1  0  0  0
 19 41  1  0  0  0
 19 42  1  0  0  0
 20 21  2  0  0  0
 20 22  2  0  0  0
 20 23  1  0  0  0
 21 43  1  0  0  0
 23 24  1  0  0  0
 23 25  1  0  0  0
 23 44  1  0  0  0
 24 25  1  0  0  0
 24 45  1  0  0  0
 24 46  1  0  0  0
 25 47  1  0  0  0
 25 48  1  0  0  0
 26 49  1  0  0  0
 27 28  1  0  0  0
 28 29  2  0  0  0
 28 50  1  0  0  0
 29 30  1  0  0  0
M  END
> <s_m_entry_id>
32795

> <s_m_entry_name>
dock_pv.196

> <s_m_Source_Path>
/home/csk/Desktop/cluster/DUD-E-result/cdk2

> <s_m_Source_File>
dock_pv.maegz

> <i_m_Source_File_Index>
196

> <chembl_id>
CHEMBL3921855

> <chembl_pref_name>
None

> <i_lp_mmshare_version>
53161

> <i_f3d_flags>
0

> <r_lp_tautomer_probability>
0.999999987636

> <s_lp_Force_Field>
OPLS_2005

> <r_lp_Energy>
17.22984

> <b_lp_Chiralities_Consistent>
1

> <s_lp_Variant>
CHEMBL301_lig1500-1

> <s_i_glide_gridfile>
glide-grid_1h00

> <i_i_glide_lignum>
2040

> <i_i_glide_rotatable_bonds>
7

> <r_i_docking_score>
-7.78812073149466

> <r_i_glide_ligand_efficiency>
-0.259604024383155

> <r_i_glide_ligand_efficiency_sa>
-0.806650062325253

> <r_i_glide_ligand_efficiency_ln>
-1.76954588856758

> <r_i_glide_gscore>
-7.78812073149466

> <r_i_glide_lipo>
-2.8289874054052

> <r_i_glide_hbond>
-0.40428711915057

> <r_i_glide_metal>
0

> <r_i_glide_rewards>
-2.08232319337706

> <r_i_glide_evdw>
-35.0046653747559

> <r_i_glide_ecoul>
-7.46605443954468

> <r_i_glide_erotb>
0.45061762376323

> <r_i_glide_esite>
-0.0529992026555718

> <r_i_glide_emodel>
-58.8162402910408

> <r_i_glide_energy>
-42.4707198143005

> <r_i_glide_einternal>
5.88746547698975

> <i_i_glide_confnum>
84

> <i_i_glide_posenum>
28

> <r_i_glide_eff_state_penalty>
0

> <s_user_duplicate_titles>
CHEMBL301_lig1500

> <s_m_subgroup_title>
dock_pv

> <s_m_subgroupid>
dock_pv

> <b_m_subgroup_collapsed>
1

$$$$
CHEMBL301_lig1353
                    3D
 Schrodinger Suite 2021-1.
 40 41  0  0  1  0            999 V2000
    0.5144   25.4778   11.5482 C   0  0  0  0  0  0
   -0.2832   26.7798   11.7196 C   0  0  1  0  0  0
    0.0573   27.3236   12.9780 O   0  0  0  0  0  0
    0.0176   27.8049   10.6126 C   0  0  0  0  0  0
   -1.0904   29.2507   10.5126 S   0  0  0  0  0  0
   -0.3965   30.3307    9.2897 C   0  0  0  0  0  0
    0.6536   29.8520    8.5760 N   0  0  0  0  0  0
    1.2600   30.6870    7.6959 C   0  0  0  0  0  0
    2.3881   30.2377    6.9903 N   0  0  0  0  0  0
    3.2011   29.0975    7.1427 C   0  0  0  0  0  0
    3.9460   28.6524    6.0470 C   0  0  0  0  0  0
    4.7903   27.5580    6.1560 C   0  0  0  0  0  0
    4.8572   26.8655    7.3625 C   0  0  0  0  0  0
    4.0787   27.2735    8.4489 C   0  0  0  0  0  0
    3.2920   28.4098    8.3540 C   0  0  0  0  0  0
    5.9032   25.4264    7.5143 S   0  0  1  0  0  0
    6.9121   25.8527    8.5757 N   0  0  0  0  0  0
    5.0440   24.2446    7.6144 O   0  0  0  0  0  0
    6.9881   25.3157    5.9807 C   0  0  0  0  0  0
    0.8643   31.9619    7.4514 N   0  0  0  0  0  0
   -0.1876   32.4253    8.1764 C   0  0  0  0  0  0
   -0.8668   31.6396    9.1109 C   0  0  0  0  0  0
   -2.3324   32.3713   10.0945 Br  0  0  0  0  0  0
    0.2594   24.9828   10.6098 H   0  0  0  0  0  0
    0.3016   24.7761   12.3567 H   0  0  0  0  0  0
    1.5898   25.6605   11.5410 H   0  0  0  0  0  0
   -1.3510   26.5524   11.7222 H   0  0  0  0  0  0
    1.0178   27.4512   13.0169 H   0  0  0  0  0  0
    1.0388   28.1676   10.7272 H   0  0  0  0  0  0
   -0.0209   27.3135    9.6409 H   0  0  0  0  0  0
    2.7845   30.9267    6.3685 H   0  0  0  0  0  0
    3.9031   29.1680    5.1029 H   0  0  0  0  0  0
    5.3670   27.2598    5.2951 H   0  0  0  0  0  0
    4.0578   26.7257    9.3736 H   0  0  0  0  0  0
    2.7501   28.7285    9.2289 H   0  0  0  0  0  0
    6.4661   25.9230    9.4941 H   0  0  0  0  0  0
    7.5195   26.2581    5.8510 H   0  0  0  0  0  0
    7.6996   24.5040    6.1218 H   0  0  0  0  0  0
    6.3569   25.1051    5.1187 H   0  0  0  0  0  0
   -0.4783   33.4508    8.0071 H   0  0  0  0  0  0
  1  2  1  0  0  0
  1 24  1  0  0  0
  1 25  1  0  0  0
  1 26  1  0  0  0
  2  3  1  0  0  0
  2  4  1  0  0  0
  2 27  1  0  0  0
  3 28  1  0  0  0
  4  5  1  0  0  0
  4 29  1  0  0  0
  4 30  1  0  0  0
  5  6  1  0  0  0
  6  7  2  0  0  0
  6 22  1  0  0  0
  7  8  1  0  0  0
  8  9  1  0  0  0
  8 20  2  0  0  0
  9 10  1  0  0  0
  9 31  1  0  0  0
 10 11  2  0  0  0
 10 15  1  0  0  0
 11 12  1  0  0  0
 11 32  1  0  0  0
 12 13  2  0  0  0
 12 33  1  0  0  0
 13 14  1  0  0  0
 13 16  1  0  0  0
 14 15  2  0  0  0
 14 34  1  0  0  0
 15 35  1  0  0  0
 16 17  2  0  0  0
 16 18  2  0  0  0
 16 19  1  0  0  0
 17 36  1  0  0  0
 19 37  1  0  0  0
 19 38  1  0  0  0
 19 39  1  0  0  0
 20 21  1  0  0  0
 21 22  2  0  0  0
 21 40  1  0  0  0
 22 23  1  0  0  0
M  END
> <s_m_entry_id>
32796

> <s_m_entry_name>
dock_pv.197

> <s_m_Source_Path>
/home/csk/Desktop/cluster/DUD-E-result/cdk2

> <s_m_Source_File>
dock_pv.maegz

> <i_m_Source_File_Index>
197

> <chembl_id>
CHEMBL3648101

> <chembl_pref_name>
None

> <i_lp_mmshare_version>
53161

> <i_f3d_flags>
0

> <r_lp_tautomer_probability>
0.999999987636

> <s_lp_Force_Field>
OPLS_2005

> <r_lp_Energy>
-1.611031

> <b_lp_Chiralities_Consistent>
1

> <s_lp_Variant>
CHEMBL301_lig1353-4

> <s_i_glide_gridfile>
glide-grid_1h00

> <i_i_glide_lignum>
1804

> <i_i_glide_rotatable_bonds>
7

> <r_i_docking_score>
-7.7835067832419

> <r_i_glide_ligand_efficiency>
-0.338413338401822

> <r_i_glide_ligand_efficiency_sa>
-0.962402517616406

> <r_i_glide_ligand_efficiency_ln>
-1.88212251712535

> <r_i_glide_gscore>
-7.7835067832419

> <r_i_glide_lipo>
-2.38121143500274

> <r_i_glide_hbond>
-0.631662335569697

> <r_i_glide_metal>
0

> <r_i_glide_rewards>
-1.60266920583908

> <r_i_glide_evdw>
-34.2462120056152

> <r_i_glide_ecoul>
-13.4867486953735

> <r_i_glide_erotb>
0.567359097756403

> <r_i_glide_esite>
0

> <r_i_glide_emodel>
-68.005486032848

> <r_i_glide_energy>
-47.7329607009888

> <r_i_glide_einternal>
4.29301500320435

> <i_i_glide_confnum>
26

> <i_i_glide_posenum>
379

> <r_i_glide_eff_state_penalty>
0

> <s_user_duplicate_titles>
CHEMBL301_lig1353

> <s_m_subgroup_title>
dock_pv

> <s_m_subgroupid>
dock_pv

> <b_m_subgroup_collapsed>
1

$$$$
CHEMBL301_lig1086
                    3D
 Schrodinger Suite 2021-1.
 50 53  0  0  1  0            999 V2000
   -0.9387   31.8717    9.0641 C   0  0  0  0  0  0
   -0.3014   32.7435    8.1761 C   0  0  0  0  0  0
    0.8060   32.4437    7.4458 N   0  0  0  0  0  0
   -0.4165   30.5836    9.2807 C   0  0  0  0  0  0
   -1.0927   29.7253   10.1663 N   0  0  0  0  0  0
   -0.3565   28.9296   11.1354 C   0  0  0  0  0  0
    0.7848   30.2655    8.5939 C   0  0  0  0  0  0
    1.2802   31.2234    7.6761 C   0  0  0  0  0  0
    2.4118   30.6629    7.1510 N   0  0  0  0  0  0
    2.5870   29.4520    7.7654 C   0  0  0  0  0  0
    1.6594   29.2058    8.6659 N   0  0  0  0  0  0
    3.6752   28.5173    7.3636 C   0  0  0  0  0  0
    4.2835   27.6653    8.2858 C   0  0  0  0  0  0
    5.2460   26.7526    7.8599 C   0  0  0  0  0  0
    5.6194   26.6753    6.5218 C   0  0  0  0  0  0
    5.0049   27.5273    5.5954 C   0  0  0  0  0  0
    4.0571   28.4516    6.0193 C   0  0  0  0  0  0
    6.5953   25.7508    6.2062 O   0  0  0  0  0  0
    7.0849   25.6901    4.8690 C   0  0  0  0  0  0
   -2.4829   32.4920    9.9984 Br  0  0  0  0  0  0
   -1.2831   28.0064   11.9499 C   0  0  0  0  0  0
   -0.5510   27.0084   12.8716 C   0  0  0  0  0  0
    0.4577   26.2115   12.1750 N   0  0  0  0  0  0
    0.2087   25.2160   11.3050 C   0  0  0  0  0  0
    1.3949   24.5889   10.5521 C   0  0  0  0  0  0
   -0.9233   24.7892   11.0801 O   0  0  0  0  0  0
    2.0194   25.4937    9.5075 C   0  0  0  0  0  0
    2.7855   25.1667   10.7546 C   0  0  0  0  0  0
   -0.6972   33.7388    8.0273 H   0  0  0  0  0  0
   -1.9122   30.1633   10.5647 H   0  0  0  0  0  0
    0.2405   29.5675   11.7905 H   0  0  0  0  0  0
    0.3864   28.3267   10.6177 H   0  0  0  0  0  0
    3.0811   31.0470    6.4897 H   0  0  0  0  0  0
    4.0109   27.7015    9.3318 H   0  0  0  0  0  0
    5.7115   26.0945    8.5761 H   0  0  0  0  0  0
    5.2685   27.5018    4.5511 H   0  0  0  0  0  0
    3.6014   29.1004    5.2870 H   0  0  0  0  0  0
    7.8691   24.9351    4.8051 H   0  0  0  0  0  0
    6.2979   25.3985    4.1724 H   0  0  0  0  0  0
    7.5139   26.6416    4.5515 H   0  0  0  0  0  0
   -1.9215   27.4458   11.2656 H   0  0  0  0  0  0
   -1.9696   28.6105   12.5438 H   0  0  0  0  0  0
   -1.2640   26.3597   13.3855 H   0  0  0  0  0  0
   -0.0095   27.5624   13.6390 H   0  0  0  0  0  0
    1.4180   26.4916   12.3315 H   0  0  0  0  0  0
    1.2889   23.5267   10.3316 H   0  0  0  0  0  0
    1.6568   26.5124    9.3767 H   0  0  0  0  0  0
    2.3607   25.0508    8.5745 H   0  0  0  0  0  0
    3.6571   24.5453   10.5904 H   0  0  0  0  0  0
    2.9762   25.9608   11.4787 H   0  0  0  0  0  0
  1  2  2  0  0  0
  1  4  1  0  0  0
  1 20  1  0  0  0
  2  3  1  0  0  0
  2 29  1  0  0  0
  3  8  2  0  0  0
  4  7  2  0  0  0
  4  5  1  0  0  0
  5  6  1  0  0  0
  5 30  1  0  0  0
  6 21  1  0  0  0
  6 31  1  0  0  0
  6 32  1  0  0  0
  7  8  1  0  0  0
  7 11  1  0  0  0
  8  9  1  0  0  0
  9 10  1  0  0  0
  9 33  1  0  0  0
 10 11  2  0  0  0
 10 12  1  0  0  0
 12 17  1  0  0  0
 12 13  2  0  0  0
 13 14  1  0  0  0
 13 34  1  0  0  0
 14 15  2  0  0  0
 14 35  1  0  0  0
 15 16  1  0  0  0
 15 18  1  0  0  0
 16 17  2  0  0  0
 16 36  1  0  0  0
 17 37  1  0  0  0
 18 19  1  0  0  0
 19 38  1  0  0  0
 19 39  1  0  0  0
 19 40  1  0  0  0
 21 22  1  0  0  0
 21 41  1  0  0  0
 21 42  1  0  0  0
 22 23  1  0  0  0
 22 43  1  0  0  0
 22 44  1  0  0  0
 23 24  1  0  0  0
 23 45  1  0  0  0
 24 25  1  0  0  0
 24 26  2  0  0  0
 25 27  1  0  0  0
 25 28  1  0  0  0
 25 46  1  0  0  0
 27 28  1  0  0  0
 27 47  1  0  0  0
 27 48  1  0  0  0
 28 49  1  0  0  0
 28 50  1  0  0  0
M  END
> <s_m_entry_id>
32797

> <s_m_entry_name>
dock_pv.198

> <s_m_Source_Path>
/home/csk/Desktop/cluster/DUD-E-result/cdk2

> <s_m_Source_File>
dock_pv.maegz

> <i_m_Source_File_Index>
198

> <chembl_id>
CHEMBL2011931

> <chembl_pref_name>
None

> <i_lp_mmshare_version>
53161

> <i_f3d_flags>
0

> <r_lp_tautomer_probability>
1

> <s_lp_Force_Field>
OPLS_2005

> <r_lp_Energy>
23.135171

> <b_lp_Chiralities_Consistent>
1

> <s_lp_Variant>
CHEMBL301_lig1086-1

> <s_i_glide_gridfile>
glide-grid_1h00

> <i_i_glide_lignum>
1489

> <i_i_glide_rotatable_bonds>
9

> <r_i_docking_score>
-7.7796531387814

> <r_i_glide_ligand_efficiency>
-0.277844754956479

> <r_i_glide_ligand_efficiency_sa>
-0.843700317857211

> <r_i_glide_ligand_efficiency_ln>
-1.79577236497239

> <r_i_glide_gscore>
-7.7796531387814

> <r_i_glide_lipo>
-2.61929730876239

> <r_i_glide_hbond>
-0.581149857754223

> <r_i_glide_metal>
0

> <r_i_glide_rewards>
-2.1461043812642

> <r_i_glide_evdw>
-36.57861328125

> <r_i_glide_ecoul>
-8.63889312744141

> <r_i_glide_erotb>
0.70909615273927

> <r_i_glide_esite>
-0.0174331105611482

> <r_i_glide_emodel>
-65.0929295239579

> <r_i_glide_energy>
-45.2175064086914

> <r_i_glide_einternal>
5.34035778045654

> <i_i_glide_confnum>
19

> <i_i_glide_posenum>
6

> <r_i_glide_eff_state_penalty>
0

> <s_user_duplicate_titles>
CHEMBL301_lig1086

> <s_m_subgroup_title>
dock_pv

> <s_m_subgroupid>
dock_pv

> <b_m_subgroup_collapsed>
1

$$$$
CHEMBL301_lig1478
                    3D
 Schrodinger Suite 2021-1.
 50 53  0  0  1  0            999 V2000
    4.4552   24.2444    6.0275 C   0  0  0  0  0  0
    4.9869   25.0986    4.4402 S   0  0  2  0  0  0
    3.6580   25.3857    3.7760 N   0  0  0  0  0  0
    6.0647   24.3385    3.8039 O   0  0  0  0  0  0
    5.5971   26.8290    4.8744 C   0  0  0  0  0  0
    4.8595   27.4960    6.0256 C   0  0  0  0  0  0
    5.2015   27.1371    7.3269 C   0  0  0  0  0  0
    4.5829   27.7554    8.4025 C   0  0  0  0  0  0
    3.6323   28.7478    8.1966 C   0  0  0  0  0  0
    3.2844   29.1332    6.9020 C   0  0  0  0  0  0
    2.4579   30.2518    6.6908 N   0  0  0  0  0  0
    1.3777   30.7264    7.4538 C   0  0  0  0  0  0
    1.0924   32.0514    7.3757 N   0  0  0  0  0  0
    0.0710   32.5030    8.1556 C   0  0  0  0  0  0
   -0.6471   31.6698    9.0106 C   0  0  0  0  0  0
   -1.5894   32.2171    9.8113 F   0  0  0  0  0  0
   -0.2791   30.3067    9.0565 C   0  0  0  0  0  0
    0.7154   29.8521    8.2477 N   0  0  0  0  0  0
   -0.8700   29.3028   10.0143 C   0  0  0  0  0  0
   -2.1775   29.5087   10.4704 C   0  0  0  0  0  0
   -2.7728   28.6510   11.3761 C   0  0  0  0  0  0
   -2.0870   27.5463   11.8557 C   0  0  0  0  0  0
   -0.7918   27.2737   11.4262 C   0  0  0  0  0  0
   -0.0359   26.0704   11.9694 C   0  0  0  0  0  0
    1.0175   25.6149   10.9599 C   0  0  0  0  0  0
    1.8504   26.8291   10.5306 C   0  0  0  0  0  0
    1.0496   27.8545    9.9378 O   0  0  0  0  0  0
   -0.1885   28.1477   10.4930 C   0  0  0  0  0  0
    3.9007   28.4963    5.8147 C   0  0  0  0  0  0
    3.7097   24.8588    6.5296 H   0  0  0  0  0  0
    5.3290   24.1030    6.6595 H   0  0  0  0  0  0
    4.0174   23.2825    5.7668 H   0  0  0  0  0  0
    3.6578   25.0533    2.8111 H   0  0  0  0  0  0
    6.6523   26.7197    5.1265 H   0  0  0  0  0  0
    5.5529   27.4261    3.9646 H   0  0  0  0  0  0
    5.9521   26.3829    7.5112 H   0  0  0  0  0  0
    4.8592   27.4618    9.3959 H   0  0  0  0  0  0
    3.1918   29.2410    9.0493 H   0  0  0  0  0  0
    2.9486   30.9743    6.1759 H   0  0  0  0  0  0
   -0.1474   33.5599    8.1051 H   0  0  0  0  0  0
   -2.7797   30.3318   10.1211 H   0  0  0  0  0  0
   -3.7767   28.8489   11.7207 H   0  0  0  0  0  0
   -2.5714   26.8994   12.5729 H   0  0  0  0  0  0
    0.4535   26.3605   12.9010 H   0  0  0  0  0  0
   -0.7150   25.2517   12.2114 H   0  0  0  0  0  0
    0.5403   25.1680   10.0858 H   0  0  0  0  0  0
    1.6594   24.8498   11.3969 H   0  0  0  0  0  0
    2.5959   26.5083    9.8055 H   0  0  0  0  0  0
    2.3918   27.2486   11.3758 H   0  0  0  0  0  0
    3.6640   28.8009    4.8094 H   0  0  0  0  0  0
  1  2  1  0  0  0
  1 30  1  0  0  0
  1 31  1  0  0  0
  1 32  1  0  0  0
  2  3  2  0  0  0
  2  4  2  0  0  0
  2  5  1  0  0  0
  3 33  1  0  0  0
  5  6  1  0  0  0
  5 34  1  0  0  0
  5 35  1  0  0  0
  6  7  2  0  0  0
  6 29  1  0  0  0
  7  8  1  0  0  0
  7 36  1  0  0  0
  8  9  2  0  0  0
  8 37  1  0  0  0
  9 10  1  0  0  0
  9 38  1  0  0  0
 10 11  1  0  0  0
 10 29  2  0  0  0
 11 12  1  0  0  0
 11 39  1  0  0  0
 12 13  2  0  0  0
 12 18  1  0  0  0
 13 14  1  0  0  0
 14 15  2  0  0  0
 14 40  1  0  0  0
 15 16  1  0  0  0
 15 17  1  0  0  0
 17 18  2  0  0  0
 17 19  1  0  0  0
 19 20  2  0  0  0
 19 28  1  0  0  0
 20 21  1  0  0  0
 20 41  1  0  0  0
 21 22  2  0  0  0
 21 42  1  0  0  0
 22 23  1  0  0  0
 22 43  1  0  0  0
 23 24  1  0  0  0
 23 28  2  0  0  0
 24 25  1  0  0  0
 24 44  1  0  0  0
 24 45  1  0  0  0
 25 26  1  0  0  0
 25 46  1  0  0  0
 25 47  1  0  0  0
 26 27  1  0  0  0
 26 48  1  0  0  0
 26 49  1  0  0  0
 27 28  1  0  0  0
 29 50  1  0  0  0
M  END
> <s_m_entry_id>
32798

> <s_m_entry_name>
dock_pv.199

> <s_m_Source_Path>
/home/csk/Desktop/cluster/DUD-E-result/cdk2

> <s_m_Source_File>
dock_pv.maegz

> <i_m_Source_File_Index>
199

> <chembl_id>
CHEMBL3978185

> <chembl_pref_name>
None

> <i_lp_mmshare_version>
53161

> <i_f3d_flags>
0

> <r_lp_tautomer_probability>
0.999999987636

> <s_lp_Force_Field>
OPLS_2005

> <r_lp_Energy>
8.592733

> <b_lp_Chiralities_Consistent>
1

> <s_lp_Variant>
CHEMBL301_lig1478-2

> <s_i_glide_gridfile>
glide-grid_1h00

> <i_i_glide_lignum>
1997

> <i_i_glide_rotatable_bonds>
5

> <r_i_docking_score>
-7.77878917954641

> <r_i_glide_ligand_efficiency>
-0.268234109639531

> <r_i_glide_ligand_efficiency_sa>
-0.824100167343398

> <r_i_glide_ligand_efficiency_ln>
-1.781145469042

> <r_i_glide_gscore>
-7.77878917954641

> <r_i_glide_lipo>
-2.69907350351617

> <r_i_glide_hbond>
-0.369708893757715

> <r_i_glide_metal>
0

> <r_i_glide_rewards>
-2.18103632730473

> <r_i_glide_evdw>
-39.9290657043457

> <r_i_glide_ecoul>
-7.31770610809326

> <r_i_glide_erotb>
0.579500119085285

> <r_i_glide_esite>
-0.0143613726218079

> <r_i_glide_emodel>
-62.8993250965122

> <r_i_glide_energy>
-47.246771812439

> <r_i_glide_einternal>
12.6075553894043

> <i_i_glide_confnum>
141

> <i_i_glide_posenum>
183

> <r_i_glide_eff_state_penalty>
0

> <s_user_duplicate_titles>
CHEMBL301_lig1478

> <s_m_subgroup_title>
dock_pv

> <s_m_subgroupid>
dock_pv

> <b_m_subgroup_collapsed>
1

$$$$
CHEMBL301_lig1392
                    3D
 Schrodinger Suite 2021-1.
 54 56  0  0  1  0            999 V2000
    0.7909   23.7330   11.4959 C   0  0  0  0  0  0
    0.9191   25.0107   12.3482 C   0  0  0  0  0  0
    0.4110   26.3264   11.7071 C   0  0  1  0  0  0
    1.2763   26.6773   10.5765 N   0  0  0  0  0  0
    1.3287   27.9270    9.9569 C   0  0  0  0  0  0
    2.4380   28.1117    9.2035 N   0  0  0  0  0  0
    2.4937   29.2123    8.4077 C   0  0  0  0  0  0
    3.6367   29.4517    7.6340 N   0  0  0  0  0  0
    4.8406   28.6340    7.7389 C   0  0  0  0  0  0
    4.7225   27.3697    6.9031 C   0  0  0  0  0  0
    4.5764   27.4322    5.5114 C   0  0  0  0  0  0
    4.4616   26.2500    4.7763 C   0  0  0  0  0  0
    4.5025   25.0339    5.4611 C   0  0  0  0  0  0
    4.6574   24.9491    6.8078 N   0  0  0  0  0  0
    4.7690   26.1086    7.5064 C   0  0  0  0  0  0
    1.4120   30.1101    8.3730 C   0  0  0  0  0  0
    1.1657   31.2491    7.6527 N   0  0  0  0  0  0
    0.0571   31.7133    8.1760 C   0  0  0  0  0  0
   -0.5025   30.9216    9.1656 N   0  0  0  0  0  0
   -1.7054   31.1727    9.9792 C   0  0  0  0  0  0
   -2.8054   30.1513    9.6463 C   0  0  0  0  0  0
   -2.2208   32.6199    9.8555 C   0  0  0  0  0  0
    0.3626   29.8490    9.2814 C   0  0  0  0  0  0
    0.2921   28.7948   10.0960 N   0  0  0  0  0  0
   -1.1369   26.3922   11.4574 C   0  0  1  0  0  0
   -1.5528   25.4685   10.4560 O   0  0  0  0  0  0
   -1.9987   26.2596   12.7406 C   0  0  0  0  0  0
   -1.5416   27.0385   13.7220 F   0  0  0  0  0  0
   -3.2581   26.6274   12.4987 F   0  0  0  0  0  0
   -2.0336   25.0125   13.2135 F   0  0  0  0  0  0
    1.3062   22.8983   11.9715 H   0  0  0  0  0  0
   -0.2495   23.4342   11.3726 H   0  0  0  0  0  0
    1.2223   23.8647   10.5025 H   0  0  0  0  0  0
    1.9775   25.1468   12.5747 H   0  0  0  0  0  0
    0.4357   24.8506   13.3114 H   0  0  0  0  0  0
    0.6122   27.1040   12.4469 H   0  0  0  0  0  0
    2.1176   26.1330   10.4644 H   0  0  0  0  0  0
    3.7019   30.3222    7.1181 H   0  0  0  0  0  0
    5.6701   29.2304    7.3666 H   0  0  0  0  0  0
    5.0640   28.3970    8.7812 H   0  0  0  0  0  0
    4.5481   28.3883    5.0078 H   0  0  0  0  0  0
    4.3434   26.2727    3.7025 H   0  0  0  0  0  0
    4.4131   24.0992    4.9263 H   0  0  0  0  0  0
    4.8803   26.0116    8.5772 H   0  0  0  0  0  0
   -0.4180   32.6387    7.8851 H   0  0  0  0  0  0
   -1.4064   31.0223   11.0182 H   0  0  0  0  0  0
   -3.6664   30.2792   10.3036 H   0  0  0  0  0  0
   -2.4489   29.1312    9.7813 H   0  0  0  0  0  0
   -3.1543   30.2553    8.6182 H   0  0  0  0  0  0
   -3.0594   32.7933   10.5319 H   0  0  0  0  0  0
   -1.4493   33.3471   10.1087 H   0  0  0  0  0  0
   -2.5690   32.8311    8.8457 H   0  0  0  0  0  0
   -1.3964   27.3656   11.0550 H   0  0  0  0  0  0
   -2.5151   25.4526   10.4304 H   0  0  0  0  0  0
  1  2  1  0  0  0
  1 31  1  0  0  0
  1 32  1  0  0  0
  1 33  1  0  0  0
  2  3  1  0  0  0
  2 34  1  0  0  0
  2 35  1  0  0  0
  3  4  1  0  0  0
  3 25  1  0  0  0
  3 36  1  0  0  0
  4  5  1  0  0  0
  4 37  1  0  0  0
  5  6  2  0  0  0
  5 24  1  0  0  0
  6  7  1  0  0  0
  7  8  1  0  0  0
  7 16  2  0  0  0
  8  9  1  0  0  0
  8 38  1  0  0  0
  9 10  1  0  0  0
  9 39  1  0  0  0
  9 40  1  0  0  0
 10 11  2  0  0  0
 10 15  1  0  0  0
 11 12  1  0  0  0
 11 41  1  0  0  0
 12 13  2  0  0  0
 12 42  1  0  0  0
 13 14  1  0  0  0
 13 43  1  0  0  0
 14 15  2  0  0  0
 15 44  1  0  0  0
 16 17  1  0  0  0
 16 23  1  0  0  0
 17 18  2  0  0  0
 18 19  1  0  0  0
 18 45  1  0  0  0
 19 20  1  0  0  0
 19 23  1  0  0  0
 20 21  1  0  0  0
 20 22  1  0  0  0
 20 46  1  0  0  0
 21 47  1  0  0  0
 21 48  1  0  0  0
 21 49  1  0  0  0
 22 50  1  0  0  0
 22 51  1  0  0  0
 22 52  1  0  0  0
 23 24  2  0  0  0
 25 26  1  0  0  0
 25 27  1  0  0  0
 25 53  1  0  0  0
 26 54  1  0  0  0
 27 28  1  0  0  0
 27 29  1  0  0  0
 27 30  1  0  0  0
M  END
> <s_m_entry_id>
32799

> <s_m_entry_name>
dock_pv.200

> <s_m_Source_Path>
/home/csk/Desktop/cluster/DUD-E-result/cdk2

> <s_m_Source_File>
dock_pv.maegz

> <i_m_Source_File_Index>
200

> <chembl_id>
CHEMBL3655777

> <chembl_pref_name>
None

> <i_lp_mmshare_version>
53161

> <i_f3d_flags>
0

> <r_lp_tautomer_probability>
1

> <s_lp_Force_Field>
OPLS_2005

> <r_lp_Energy>
28.642779

> <b_lp_Chiralities_Consistent>
1

> <s_lp_Variant>
CHEMBL301_lig1392-4

> <s_i_glide_gridfile>
glide-grid_1h00

> <i_i_glide_lignum>
1886

> <i_i_glide_rotatable_bonds>
10

> <r_i_docking_score>
-7.77149686796538

> <r_i_glide_ligand_efficiency>
-0.259049895598846

> <r_i_glide_ligand_efficiency_sa>
-0.804928255356114

> <r_i_glide_ligand_efficiency_ln>
-1.76576876564222

> <r_i_glide_gscore>
-7.77149686796538

> <r_i_glide_lipo>
-2.43199464944124

> <r_i_glide_hbond>
-0.317699399191622

> <r_i_glide_metal>
0

> <r_i_glide_rewards>
-2.77266520761539

> <r_i_glide_evdw>
-42.6762351989746

> <r_i_glide_ecoul>
-4.76385736465454

> <r_i_glide_erotb>
0.663234544842453

> <r_i_glide_esite>
-0.0639817919126662

> <r_i_glide_emodel>
-68.020181554956

> <r_i_glide_energy>
-47.4400925636292

> <r_i_glide_einternal>
4.85827684402466

> <i_i_glide_confnum>
19

> <i_i_glide_posenum>
35

> <r_i_glide_eff_state_penalty>
0

> <s_user_duplicate_titles>
CHEMBL301_lig1392

> <s_m_subgroup_title>
dock_pv

> <s_m_subgroupid>
dock_pv

> <b_m_subgroup_collapsed>
1

$$$$
CHEMBL301_lig658
                    3D
 Schrodinger Suite 2021-1.
 52 54  0  0  1  0            999 V2000
   -1.5414   27.0546   13.8043 O   0  0  0  0  0  0
   -0.9411   27.5518   12.6172 C   0  0  0  0  0  0
   -0.0495   26.4763   11.9304 C   0  0  1  0  0  0
   -0.8617   25.2914   11.3488 C   0  0  0  0  0  0
   -1.5089   25.5619    9.9795 C   0  0  0  0  0  0
    0.9982   26.9590   11.0080 N   0  0  0  0  0  0
    0.9568   28.0820   10.1730 C   0  0  0  0  0  0
    2.0642   28.2536    9.4114 N   0  0  0  0  0  0
    2.0930   29.3267    8.5761 C   0  0  0  0  0  0
    1.0117   30.1735    8.5314 N   0  0  0  0  0  0
    0.8577   31.2887    7.7761 N   0  0  0  0  0  0
   -0.2800   31.8052    8.1948 C   0  0  0  0  0  0
   -0.9448   31.0638    9.1823 C   0  0  0  0  0  0
   -2.2421   31.3687    9.9154 C   0  0  0  0  0  0
   -2.3408   32.8576   10.2871 C   0  0  0  0  0  0
   -3.4647   30.9023    9.1115 C   0  0  0  0  0  0
   -0.0846   29.9530    9.3715 C   0  0  0  0  0  0
   -0.1327   28.8904   10.1780 N   0  0  0  0  0  0
    3.2189   29.5880    7.7761 N   0  0  0  0  0  0
    4.4793   28.8683    7.9276 C   0  0  0  0  0  0
    4.4806   27.5816    7.1190 C   0  0  0  0  0  0
    4.4831   27.6333    5.7207 C   0  0  0  0  0  0
    4.4693   26.4539    4.9817 C   0  0  0  0  0  0
    4.4580   25.2271    5.6424 C   0  0  0  0  0  0
    4.4580   25.1692    7.0350 C   0  0  0  0  0  0
    4.4671   26.3481    7.7751 C   0  0  0  0  0  0
   -2.2379   27.6730   14.0624 H   0  0  0  0  0  0
   -0.3466   28.4188   12.9089 H   0  0  0  0  0  0
   -1.7471   27.8893   11.9641 H   0  0  0  0  0  0
    0.5473   26.0673   12.7467 H   0  0  0  0  0  0
   -0.2224   24.4113   11.2704 H   0  0  0  0  0  0
   -1.6473   25.0155   12.0550 H   0  0  0  0  0  0
   -2.3076   24.8506    9.7747 H   0  0  0  0  0  0
   -1.9326   26.5630    9.9483 H   0  0  0  0  0  0
   -0.7779   25.4896    9.1732 H   0  0  0  0  0  0
    1.8366   26.4032   10.9273 H   0  0  0  0  0  0
   -0.6297   32.7421    7.7837 H   0  0  0  0  0  0
   -2.2487   30.8139   10.8566 H   0  0  0  0  0  0
   -1.5072   33.1712   10.9152 H   0  0  0  0  0  0
   -3.2583   33.0657   10.8394 H   0  0  0  0  0  0
   -2.3410   33.4836    9.3975 H   0  0  0  0  0  0
   -3.4543   29.8236    8.9762 H   0  0  0  0  0  0
   -4.3911   31.1493    9.6328 H   0  0  0  0  0  0
   -3.5079   31.3675    8.1264 H   0  0  0  0  0  0
    3.2356   30.4597    7.2624 H   0  0  0  0  0  0
    5.2908   29.5072    7.5772 H   0  0  0  0  0  0
    4.6879   28.6609    8.9791 H   0  0  0  0  0  0
    4.4977   28.5867    5.2112 H   0  0  0  0  0  0
    4.4676   26.4862    3.9014 H   0  0  0  0  0  0
    4.4426   24.3111    5.0683 H   0  0  0  0  0  0
    4.4352   24.2144    7.5389 H   0  0  0  0  0  0
    4.4556   26.3064    8.8558 H   0  0  0  0  0  0
  1  2  1  0  0  0
  1 27  1  0  0  0
  2  3  1  0  0  0
  2 28  1  0  0  0
  2 29  1  0  0  0
  3  6  1  0  0  0
  3  4  1  0  0  0
  3 30  1  0  0  0
  4  5  1  0  0  0
  4 31  1  0  0  0
  4 32  1  0  0  0
  5 33  1  0  0  0
  5 34  1  0  0  0
  5 35  1  0  0  0
  6  7  1  0  0  0
  6 36  1  0  0  0
  7  8  1  0  0  0
  7 18  2  0  0  0
  8  9  2  0  0  0
  9 19  1  0  0  0
  9 10  1  0  0  0
 10 11  1  0  0  0
 10 17  1  0  0  0
 11 12  2  0  0  0
 12 13  1  0  0  0
 12 37  1  0  0  0
 13 17  2  0  0  0
 13 14  1  0  0  0
 14 16  1  0  0  0
 14 15  1  0  0  0
 14 38  1  0  0  0
 15 39  1  0  0  0
 15 40  1  0  0  0
 15 41  1  0  0  0
 16 42  1  0  0  0
 16 43  1  0  0  0
 16 44  1  0  0  0
 17 18  1  0  0  0
 19 20  1  0  0  0
 19 45  1  0  0  0
 20 21  1  0  0  0
 20 46  1  0  0  0
 20 47  1  0  0  0
 21 22  2  0  0  0
 21 26  1  0  0  0
 22 23  1  0  0  0
 22 48  1  0  0  0
 23 24  2  0  0  0
 23 49  1  0  0  0
 24 25  1  0  0  0
 24 50  1  0  0  0
 25 26  2  0  0  0
 25 51  1  0  0  0
 26 52  1  0  0  0
M  END
> <s_m_entry_id>
32800

> <s_m_entry_name>
dock_pv.201

> <s_m_Source_Path>
/home/csk/Desktop/cluster/DUD-E-result/cdk2

> <s_m_Source_File>
dock_pv.maegz

> <i_m_Source_File_Index>
201

> <chembl_id>
CHEMBL482193

> <chembl_pref_name>
None

> <i_lp_mmshare_version>
53161

> <i_f3d_flags>
0

> <r_lp_tautomer_probability>
1

> <s_lp_Force_Field>
OPLS_2005

> <r_lp_Energy>
16.998513

> <b_lp_Chiralities_Consistent>
1

> <s_lp_Variant>
CHEMBL301_lig658-1

> <s_i_glide_gridfile>
glide-grid_1h00

> <i_i_glide_lignum>
903

> <i_i_glide_rotatable_bonds>
9

> <r_i_docking_score>
-7.76204961441885

> <r_i_glide_ligand_efficiency>
-0.29854036978534

> <r_i_glide_ligand_efficiency_sa>
-0.884424670789439

> <r_i_glide_ligand_efficiency_ln>
-1.82289188258411

> <r_i_glide_gscore>
-7.76204961441885

> <r_i_glide_lipo>
-3.2912903407107

> <r_i_glide_hbond>
-0.234869249211497

> <r_i_glide_metal>
0

> <r_i_glide_rewards>
-2.25070431258072

> <r_i_glide_evdw>
-43.8745956420898

> <r_i_glide_ecoul>
-4.59807348251343

> <r_i_glide_erotb>
0.912594160958804

> <r_i_glide_esite>
-0.0143390683932217

> <r_i_glide_emodel>
-68.381286179069

> <r_i_glide_energy>
-48.4726691246033

> <r_i_glide_einternal>
4.60395193099976

> <i_i_glide_confnum>
94

> <i_i_glide_posenum>
305

> <r_i_glide_eff_state_penalty>
0

> <s_user_duplicate_titles>
CHEMBL301_lig658,474128

> <s_m_subgroup_title>
dock_pv

> <s_m_subgroupid>
dock_pv

> <b_m_subgroup_collapsed>
1

$$$$
CHEMBL301_lig1478
                    3D
 Schrodinger Suite 2021-1.
 50 53  0  0  1  0            999 V2000
    6.0927   24.7054    3.1223 C   0  0  0  0  0  0
    4.7534   25.6176    4.0673 S   0  0  1  0  0  0
    3.9612   26.3313    2.9761 N   0  0  0  0  0  0
    4.1633   24.7397    5.0821 O   0  0  0  0  0  0
    5.6576   27.0402    4.8778 C   0  0  0  0  0  0
    4.8917   27.5896    6.0567 C   0  0  0  0  0  0
    5.0938   27.0401    7.3200 C   0  0  0  0  0  0
    4.4077   27.5559    8.4102 C   0  0  0  0  0  0
    3.5200   28.6152    8.2544 C   0  0  0  0  0  0
    3.2840   29.1437    6.9849 C   0  0  0  0  0  0
    2.4579   30.2547    6.7854 N   0  0  0  0  0  0
    1.3505   30.7153    7.5084 C   0  0  0  0  0  0
    1.0512   32.0302    7.3763 N   0  0  0  0  0  0
    0.0532   32.4970    8.1759 C   0  0  0  0  0  0
   -0.6704   31.6782    9.0477 C   0  0  0  0  0  0
   -1.6147   32.2395    9.8370 F   0  0  0  0  0  0
   -0.3135   30.3119    9.1127 C   0  0  0  0  0  0
    0.6921   29.8520    8.3208 N   0  0  0  0  0  0
   -0.9326   29.3068   10.0606 C   0  0  0  0  0  0
   -2.2451   29.5225   10.5008 C   0  0  0  0  0  0
   -2.8733   28.6520   11.3760 C   0  0  0  0  0  0
   -2.2134   27.5327   11.8528 C   0  0  0  0  0  0
   -0.9145   27.2521   11.4443 C   0  0  0  0  0  0
   -0.1919   26.0246   11.9750 C   0  0  0  0  0  0
    0.8160   25.5378   10.9386 C   0  0  0  0  0  0
    1.7029   26.7192   10.5331 C   0  0  0  0  0  0
    0.9619   27.8217    9.9981 O   0  0  0  0  0  0
   -0.2809   28.1304   10.5343 C   0  0  0  0  0  0
    3.9820   28.6334    5.8897 C   0  0  0  0  0  0
    6.5730   25.3934    2.4278 H   0  0  0  0  0  0
    5.6392   23.8799    2.5766 H   0  0  0  0  0  0
    6.8201   24.3205    3.8336 H   0  0  0  0  0  0
    4.0577   25.8520    2.0764 H   0  0  0  0  0  0
    6.6220   26.6534    5.2059 H   0  0  0  0  0  0
    5.8562   27.8011    4.1247 H   0  0  0  0  0  0
    5.7808   26.2188    7.4620 H   0  0  0  0  0  0
    4.5641   27.1203    9.3760 H   0  0  0  0  0  0
    3.0284   29.0231    9.1239 H   0  0  0  0  0  0
    2.9301   30.9690    6.2427 H   0  0  0  0  0  0
   -0.1673   33.5521    8.1051 H   0  0  0  0  0  0
   -2.8272   30.3619   10.1568 H   0  0  0  0  0  0
   -3.8817   28.8552   11.7024 H   0  0  0  0  0  0
   -2.7208   26.8808   12.5492 H   0  0  0  0  0  0
    0.3296   26.2950   12.8948 H   0  0  0  0  0  0
   -0.8946   25.2302   12.2301 H   0  0  0  0  0  0
    0.3032   25.1413   10.0608 H   0  0  0  0  0  0
    1.4222   24.7273   11.3443 H   0  0  0  0  0  0
    2.4012   26.3759    9.7732 H   0  0  0  0  0  0
    2.2975   27.0665   11.3759 H   0  0  0  0  0  0
    3.8329   29.0569    4.9106 H   0  0  0  0  0  0
  1  2  1  0  0  0
  1 30  1  0  0  0
  1 31  1  0  0  0
  1 32  1  0  0  0
  2  3  2  0  0  0
  2  4  2  0  0  0
  2  5  1  0  0  0
  3 33  1  0  0  0
  5  6  1  0  0  0
  5 34  1  0  0  0
  5 35  1  0  0  0
  6  7  2  0  0  0
  6 29  1  0  0  0
  7  8  1  0  0  0
  7 36  1  0  0  0
  8  9  2  0  0  0
  8 37  1  0  0  0
  9 10  1  0  0  0
  9 38  1  0  0  0
 10 11  1  0  0  0
 10 29  2  0  0  0
 11 12  1  0  0  0
 11 39  1  0  0  0
 12 13  2  0  0  0
 12 18  1  0  0  0
 13 14  1  0  0  0
 14 15  2  0  0  0
 14 40  1  0  0  0
 15 16  1  0  0  0
 15 17  1  0  0  0
 17 18  2  0  0  0
 17 19  1  0  0  0
 19 20  2  0  0  0
 19 28  1  0  0  0
 20 21  1  0  0  0
 20 41  1  0  0  0
 21 22  2  0  0  0
 21 42  1  0  0  0
 22 23  1  0  0  0
 22 43  1  0  0  0
 23 24  1  0  0  0
 23 28  2  0  0  0
 24 25  1  0  0  0
 24 44  1  0  0  0
 24 45  1  0  0  0
 25 26  1  0  0  0
 25 46  1  0  0  0
 25 47  1  0  0  0
 26 27  1  0  0  0
 26 48  1  0  0  0
 26 49  1  0  0  0
 27 28  1  0  0  0
 29 50  1  0  0  0
M  END
> <s_m_entry_id>
32801

> <s_m_entry_name>
dock_pv.202

> <s_m_Source_Path>
/home/csk/Desktop/cluster/DUD-E-result/cdk2

> <s_m_Source_File>
dock_pv.maegz

> <i_m_Source_File_Index>
202

> <chembl_id>
CHEMBL3978185

> <chembl_pref_name>
None

> <i_lp_mmshare_version>
53161

> <i_f3d_flags>
0

> <r_lp_tautomer_probability>
0.999999987636

> <s_lp_Force_Field>
OPLS_2005

> <r_lp_Energy>
10.986759

> <b_lp_Chiralities_Consistent>
1

> <s_lp_Variant>
CHEMBL301_lig1478-1

> <s_i_glide_gridfile>
glide-grid_1h00

> <i_i_glide_lignum>
1996

> <i_i_glide_rotatable_bonds>
5

> <r_i_docking_score>
-7.76177137873679

> <r_i_glide_ligand_efficiency>
-0.267647288921958

> <r_i_glide_ligand_efficiency_sa>
-0.822297268181161

> <r_i_glide_ligand_efficiency_ln>
-1.77724882419079

> <r_i_glide_gscore>
-7.76177137873679

> <r_i_glide_lipo>
-2.48963898106753

> <r_i_glide_hbond>
-0.375372121681524

> <r_i_glide_metal>
0

> <r_i_glide_rewards>
-2.18323422887007

> <r_i_glide_evdw>
-36.8220825195312

> <r_i_glide_ecoul>
-9.48074626922607

> <r_i_glide_erotb>
0.579500119085285

> <r_i_glide_esite>
-0.0298100998424734

> <r_i_glide_emodel>
-61.4726530720104

> <r_i_glide_energy>
-46.3028287887573

> <r_i_glide_einternal>
11.7738189697266

> <i_i_glide_confnum>
140

> <i_i_glide_posenum>
51

> <r_i_glide_eff_state_penalty>
0

> <s_user_duplicate_titles>
CHEMBL301_lig1478

> <s_m_subgroup_title>
dock_pv

> <s_m_subgroupid>
dock_pv

> <b_m_subgroup_collapsed>
1

$$$$
CHEMBL301_lig45
                    3D
 Schrodinger Suite 2021-1.
 55 58  0  0  1  0            999 V2000
    1.6579   31.0781    7.3762 N   0  0  0  0  0  0
    2.1654   29.9527    7.9307 C   0  0  0  0  0  0
    1.5588   29.2128    8.8901 N   0  0  0  0  0  0
    0.3215   29.6133    9.2986 C   0  0  0  0  0  0
   -0.2762   30.7893    8.7999 C   0  0  0  0  0  0
    0.4577   31.4932    7.8369 C   0  0  0  0  0  0
   -1.6241   31.3335    9.2823 C   0  0  0  0  0  0
   -1.7461   31.2194   10.6006 F   0  0  0  0  0  0
   -1.7689   32.6245    8.9769 F   0  0  0  0  0  0
   -2.6152   30.6568    8.7090 F   0  0  0  0  0  0
    3.3851   29.5619    7.3791 N   0  0  0  0  0  0
    4.0558   28.3418    7.2681 C   0  0  0  0  0  0
    3.9144   27.2805    8.1739 C   0  0  0  0  0  0
    5.2807   26.9113    5.7379 C   0  0  0  0  0  0
    4.7944   28.1670    6.0923 C   0  0  0  0  0  0
    5.0155   25.8379    6.5777 C   0  0  0  0  0  0
    4.3510   26.0136    7.7757 C   0  0  0  0  0  0
    4.1838   24.6742    8.4020 C   0  0  0  0  0  0
    4.8071   23.7255    7.3759 C   0  0  0  0  0  0
    5.2853   24.4945    6.3855 N   0  0  0  0  0  0
    4.8579   22.5007    7.4577 O   0  0  0  0  0  0
   -0.3586   28.8099   10.2272 N   0  0  0  0  0  0
   -0.0664   27.3797   10.3694 C   0  0  0  0  0  0
   -0.3978   26.8128   11.7589 C   0  0  0  0  0  0
   -1.3045   27.4744   12.6047 C   0  0  0  0  0  0
   -1.6532   26.9246   13.8329 C   0  0  0  0  0  0
   -1.1203   25.6909   14.1812 C   0  0  0  0  0  0
   -0.2509   25.0245   13.3886 N   0  0  0  0  0  0
    0.1473   25.5853   12.2123 C   0  0  0  0  0  0
    1.1246   24.8827   11.4697 N   0  0  0  0  0  0
    1.2407   23.0958   11.5385 S   0  0  0  0  0  0
    2.4433   25.5083   11.5753 C   0  0  0  0  0  0
   -0.5456   22.5127   11.4861 C   0  0  0  0  0  0
    1.8033   22.7415   12.8447 O   0  0  0  0  0  0
    1.9303   22.6666   10.3183 O   0  0  0  0  0  0
    0.0823   32.4128    7.4065 H   0  0  0  0  0  0
    3.7340   30.2660    6.7341 H   0  0  0  0  0  0
    3.3669   27.4055    9.0945 H   0  0  0  0  0  0
    5.8091   26.7855    4.8041 H   0  0  0  0  0  0
    4.9312   28.9898    5.4046 H   0  0  0  0  0  0
    4.7145   24.6520    9.3465 H   0  0  0  0  0  0
    3.1370   24.4135    8.5583 H   0  0  0  0  0  0
    5.7381   24.1127    5.5697 H   0  0  0  0  0  0
   -1.2823   29.1214   10.4903 H   0  0  0  0  0  0
    0.9664   27.1699   10.1071 H   0  0  0  0  0  0
   -0.6688   26.8392    9.6380 H   0  0  0  0  0  0
   -1.7596   28.4148   12.3296 H   0  0  0  0  0  0
   -2.3420   27.4493   14.4810 H   0  0  0  0  0  0
   -1.3840   25.2158   15.1130 H   0  0  0  0  0  0
    2.4455   26.5787   11.3765 H   0  0  0  0  0  0
    2.8533   25.3733   12.5765 H   0  0  0  0  0  0
    3.1373   25.0537   10.8733 H   0  0  0  0  0  0
   -0.5759   21.5426   10.9905 H   0  0  0  0  0  0
   -1.1414   23.2664   10.9754 H   0  0  0  0  0  0
   -0.8938   22.4112   12.5133 H   0  0  0  0  0  0
  1  2  2  0  0  0
  1  6  1  0  0  0
  2  3  1  0  0  0
  2 11  1  0  0  0
  3  4  2  0  0  0
  4  5  1  0  0  0
  4 22  1  0  0  0
  5  6  2  0  0  0
  5  7  1  0  0  0
  6 36  1  0  0  0
  7  8  1  0  0  0
  7  9  1  0  0  0
  7 10  1  0  0  0
 11 12  1  0  0  0
 11 37  1  0  0  0
 12 13  2  0  0  0
 12 15  1  0  0  0
 13 17  1  0  0  0
 13 38  1  0  0  0
 14 16  1  0  0  0
 14 15  2  0  0  0
 14 39  1  0  0  0
 15 40  1  0  0  0
 16 17  2  0  0  0
 16 20  1  0  0  0
 17 18  1  0  0  0
 18 19  1  0  0  0
 18 41  1  0  0  0
 18 42  1  0  0  0
 19 20  1  0  0  0
 19 21  2  0  0  0
 20 43  1  0  0  0
 22 23  1  0  0  0
 22 44  1  0  0  0
 23 24  1  0  0  0
 23 45  1  0  0  0
 23 46  1  0  0  0
 24 25  2  0  0  0
 24 29  1  0  0  0
 25 26  1  0  0  0
 25 47  1  0  0  0
 26 27  2  0  0  0
 26 48  1  0  0  0
 27 28  1  0  0  0
 27 49  1  0  0  0
 28 29  2  0  0  0
 29 30  1  0  0  0
 30 31  1  0  0  0
 30 32  1  0  0  0
 31 33  1  0  0  0
 31 34  2  0  0  0
 31 35  2  0  0  0
 32 50  1  0  0  0
 32 51  1  0  0  0
 32 52  1  0  0  0
 33 53  1  0  0  0
 33 54  1  0  0  0
 33 55  1  0  0  0
M  END
> <s_m_entry_id>
32802

> <s_m_entry_name>
dock_pv.203

> <s_m_Source_Path>
/home/csk/Desktop/cluster/DUD-E-result/cdk2

> <s_m_Source_File>
dock_pv.maegz

> <i_m_Source_File_Index>
203

> <chembl_id>
CHEMBL1084546

> <chembl_pref_name>
PF-00562271

> <i_lp_mmshare_version>
53161

> <i_f3d_flags>
0

> <r_lp_tautomer_probability>
0.999999624730965

> <s_lp_Force_Field>
OPLS_2005

> <r_lp_Energy>
24.991653

> <b_lp_Chiralities_Consistent>
1

> <s_lp_Variant>
CHEMBL301_lig45-1

> <s_i_glide_gridfile>
glide-grid_1h00

> <i_i_glide_lignum>
122

> <i_i_glide_rotatable_bonds>
8

> <r_i_docking_score>
-7.76174872830361

> <r_i_glide_ligand_efficiency>
-0.221764249380103

> <r_i_glide_ligand_efficiency_sa>
-0.725405564091827

> <r_i_glide_ligand_efficiency_ln>
-1.7038761085944

> <r_i_glide_gscore>
-7.76174872830361

> <r_i_glide_lipo>
-2.32481540683813

> <r_i_glide_hbond>
-0.32

> <r_i_glide_metal>
0

> <r_i_glide_rewards>
-2.42823069933542

> <r_i_glide_evdw>
-43.4027976989746

> <r_i_glide_ecoul>
-6.13954019546509

> <r_i_glide_erotb>
0.476816211142

> <r_i_glide_esite>
-0.074447919003559

> <r_i_glide_emodel>
-66.2898361681797

> <r_i_glide_energy>
-49.5423378944397

> <r_i_glide_einternal>
19.8406066894531

> <i_i_glide_confnum>
77

> <i_i_glide_posenum>
158

> <r_i_glide_eff_state_penalty>
0

> <s_user_duplicate_titles>
CHEMBL301_lig45

> <s_m_subgroup_title>
dock_pv

> <s_m_subgroupid>
dock_pv

> <b_m_subgroup_collapsed>
1

$$$$
CHEMBL301_lig826
                    3D
 Schrodinger Suite 2021-1.
 52 54  0  0  1  0            999 V2000
   -0.2871   28.6511   12.1730 C   0  0  0  0  0  0
   -0.7526   29.7873   11.7012 N   0  0  0  0  0  0
   -1.9022   29.4550   11.1607 C   0  0  0  0  0  0
   -2.2659   28.1655   11.3760 O   0  0  0  0  0  0
   -1.2066   27.6240   12.0245 C   0  0  0  0  0  0
   -2.7863   30.2889   10.2500 C   0  0  0  0  0  0
   -2.1712   31.9637    9.8592 S   0  0  0  0  0  0
   -0.7422   31.6651    8.8574 C   0  0  0  0  0  0
   -0.0019   32.6258    8.1756 C   0  0  0  0  0  0
    1.0425   32.2172    7.4736 N   0  0  0  0  0  0
    1.2738   30.9435    7.6666 C   0  0  0  0  0  0
    0.0334   30.1276    8.5759 S   0  0  0  0  0  0
    2.4198   30.3268    7.1694 N   0  0  0  0  0  0
    3.0309   29.2120    7.6365 C   0  0  0  0  0  0
    4.2099   28.6637    6.7756 C   0  0  2  0  0  0
    2.7000   28.6486    8.6786 O   0  0  0  0  0  0
   -1.2569   26.1374   12.3614 C   0  0  0  0  0  0
   -2.4513   25.8691   13.3027 C   0  0  0  0  0  0
    0.0515   25.7031   13.0608 C   0  0  0  0  0  0
   -1.4298   25.3186   11.0621 C   0  0  0  0  0  0
    3.8233   28.7209    5.2837 C   0  0  0  0  0  0
    4.7648   27.9272    4.3657 C   0  0  0  0  0  0
    5.0600   26.5305    4.9191 C   0  0  0  0  0  0
    5.6577   26.6557    6.2403 N   0  0  2  0  0  0
    4.7648   27.2698    7.2238 C   0  0  1  0  0  0
    5.4583   27.3664    8.5759 C   0  0  0  0  0  0
    0.7072   28.5812   12.5772 H   0  0  0  0  0  0
   -2.9522   29.7695    9.3097 H   0  0  0  0  0  0
   -3.7772   30.4011   10.6849 H   0  0  0  0  0  0
   -0.2553   33.6732    8.1760 H   0  0  0  0  0  0
    2.9434   30.8396    6.4711 H   0  0  0  0  0  0
    5.0114   29.3859    6.9377 H   0  0  0  0  0  0
   -2.5256   24.8150   13.5728 H   0  0  0  0  0  0
   -3.3966   26.1557   12.8389 H   0  0  0  0  0  0
   -2.3675   26.4460   14.2252 H   0  0  0  0  0  0
    0.9212   25.8756   12.4243 H   0  0  0  0  0  0
    0.2180   26.2617   13.9830 H   0  0  0  0  0  0
    0.0396   24.6432   13.3171 H   0  0  0  0  0  0
   -0.6086   25.4976   10.3661 H   0  0  0  0  0  0
   -1.4659   24.2472   11.2617 H   0  0  0  0  0  0
   -2.3504   25.5827   10.5396 H   0  0  0  0  0  0
    2.8557   28.2519    5.1377 H   0  0  0  0  0  0
    3.8237   29.7612    4.9760 H   0  0  0  0  0  0
    5.6916   28.4693    4.1823 H   0  0  0  0  0  0
    4.3027   27.8215    3.3834 H   0  0  0  0  0  0
    5.7468   25.9938    4.2630 H   0  0  0  0  0  0
    4.1460   25.9376    4.9895 H   0  0  0  0  0  0
    6.4979   27.2200    6.1719 H   0  0  0  0  0  0
    3.9401   26.5749    7.3861 H   0  0  0  0  0  0
    4.7302   27.4483    9.3760 H   0  0  0  0  0  0
    6.0998   26.5078    8.7736 H   0  0  0  0  0  0
    6.0581   28.2618    8.6213 H   0  0  0  0  0  0
  1  5  2  0  0  0
  1  2  1  0  0  0
  1 27  1  0  0  0
  2  3  2  0  0  0
  3  6  1  0  0  0
  3  4  1  0  0  0
  4  5  1  0  0  0
  5 17  1  0  0  0
  6  7  1  0  0  0
  6 28  1  0  0  0
  6 29  1  0  0  0
  7  8  1  0  0  0
  8  9  2  0  0  0
  8 12  1  0  0  0
  9 10  1  0  0  0
  9 30  1  0  0  0
 10 11  2  0  0  0
 11 13  1  0  0  0
 11 12  1  0  0  0
 13 14  1  0  0  0
 13 31  1  0  0  0
 14 15  1  0  0  0
 14 16  2  0  0  0
 15 21  1  0  0  0
 15 25  1  0  0  0
 15 32  1  0  0  0
 17 18  1  0  0  0
 17 19  1  0  0  0
 17 20  1  0  0  0
 18 33  1  0  0  0
 18 34  1  0  0  0
 18 35  1  0  0  0
 19 36  1  0  0  0
 19 37  1  0  0  0
 19 38  1  0  0  0
 20 39  1  0  0  0
 20 40  1  0  0  0
 20 41  1  0  0  0
 21 22  1  0  0  0
 21 42  1  0  0  0
 21 43  1  0  0  0
 22 23  1  0  0  0
 22 44  1  0  0  0
 22 45  1  0  0  0
 23 24  1  0  0  0
 23 46  1  0  0  0
 23 47  1  0  0  0
 24 25  1  0  0  0
 24 48  1  0  0  0
 25 26  1  0  0  0
 25 49  1  0  0  0
 26 50  1  0  0  0
 26 51  1  0  0  0
 26 52  1  0  0  0
M  END
> <s_m_entry_id>
32803

> <s_m_entry_name>
dock_pv.204

> <s_m_Source_Path>
/home/csk/Desktop/cluster/DUD-E-result/cdk2

> <s_m_Source_File>
dock_pv.maegz

> <i_m_Source_File_Index>
204

> <chembl_id>
CHEMBL508506

> <chembl_pref_name>
None

> <i_lp_mmshare_version>
53161

> <i_f3d_flags>
0

> <r_lp_tautomer_probability>
0.999000488399163

> <s_lp_Force_Field>
OPLS_2005

> <r_lp_Energy>
16.405582

> <b_lp_Chiralities_Consistent>
1

> <s_lp_Variant>
CHEMBL301_lig826-3

> <s_i_glide_gridfile>
glide-grid_1h00

> <i_i_glide_lignum>
1173

> <i_i_glide_rotatable_bonds>
7

> <r_i_docking_score>
-7.7536853423221

> <r_i_glide_ligand_efficiency>
-0.298218667012388

> <r_i_glide_ligand_efficiency_sa>
-0.883471627590409

> <r_i_glide_ligand_efficiency_ln>
-1.8209275607276

> <r_i_glide_gscore>
-7.7536853423221

> <r_i_glide_lipo>
-2.94959959103685

> <r_i_glide_hbond>
-0.470862102773209

> <r_i_glide_metal>
0

> <r_i_glide_rewards>
-2.08173334654058

> <r_i_glide_evdw>
-42.1925048828125

> <r_i_glide_ecoul>
-5.96804428100586

> <r_i_glide_erotb>
0.753341584320047

> <r_i_glide_esite>
0

> <r_i_glide_emodel>
-65.3890669845027

> <r_i_glide_energy>
-48.1605491638184

> <r_i_glide_einternal>
5.75237369537354

> <i_i_glide_confnum>
45

> <i_i_glide_posenum>
107

> <r_i_glide_eff_state_penalty>
0

> <s_user_duplicate_titles>
CHEMBL301_lig826,453191

> <s_m_subgroup_title>
dock_pv

> <s_m_subgroupid>
dock_pv

> <b_m_subgroup_collapsed>
1

$$$$
CHEMBL301_lig183
                    3D
 Schrodinger Suite 2021-1.
 37 39  0  0  1  0            999 V2000
   -2.3429   28.7218   11.4685 C   0  0  0  0  0  0
   -1.7210   29.6911   10.4808 C   0  0  0  0  0  0
   -2.3643   30.8985   10.1764 C   0  0  0  0  0  0
   -1.7925   31.7966    9.2728 C   0  0  0  0  0  0
   -0.5802   31.4603    8.6730 C   0  0  0  0  0  0
    0.1792   32.1724    7.7764 N   0  0  0  0  0  0
    1.2557   31.4859    7.3760 C   0  0  0  0  0  0
    2.0580   31.8520    6.5247 O   0  0  0  0  0  0
    1.2857   30.2522    8.1791 C   0  0  0  0  0  0
    0.0585   30.2683    8.9502 C   0  0  0  0  0  0
   -0.5062   29.3746    9.8624 C   0  0  0  0  0  0
    2.2072   29.3676    8.2149 N   0  0  0  0  0  0
    3.3292   29.4519    7.3794 N   0  0  0  0  0  0
    4.1399   28.3613    7.0809 C   0  0  0  0  0  0
    4.6392   27.5418    8.0934 C   0  0  0  0  0  0
    5.4932   26.4921    7.7761 C   0  0  0  0  0  0
    5.8320   26.2525    6.4464 C   0  0  0  0  0  0
    5.2958   27.0418    5.4260 C   0  0  0  0  0  0
    4.4619   28.1082    5.7485 C   0  0  0  0  0  0
    7.0103   24.9649    6.0763 S   0  0  0  0  0  0
    8.5403   25.6318    6.5733 N   0  0  0  0  0  0
    6.7223   23.8431    6.9758 O   0  0  0  0  0  0
    7.0617   24.7879    4.6228 O   0  0  0  0  0  0
   -3.4313   28.7558   11.4132 H   0  0  0  0  0  0
   -2.0429   28.9728   12.4862 H   0  0  0  0  0  0
   -2.0488   27.6933   11.2570 H   0  0  0  0  0  0
   -3.3016   31.1490   10.6526 H   0  0  0  0  0  0
   -2.2904   32.7308    9.0567 H   0  0  0  0  0  0
   -0.0471   33.0921    7.4234 H   0  0  0  0  0  0
   -0.0079   28.4447   10.0969 H   0  0  0  0  0  0
    3.2884   30.2238    6.7168 H   0  0  0  0  0  0
    4.3918   27.7335    9.1279 H   0  0  0  0  0  0
    5.9026   25.8829    8.5705 H   0  0  0  0  0  0
    5.5609   26.8628    4.3935 H   0  0  0  0  0  0
    4.0782   28.7440    4.9645 H   0  0  0  0  0  0
    9.1348   24.9469    7.0431 H   0  0  0  0  0  0
    9.0320   26.1126    5.8151 H   0  0  0  0  0  0
  1  2  1  0  0  0
  1 24  1  0  0  0
  1 25  1  0  0  0
  1 26  1  0  0  0
  2  3  2  0  0  0
  2 11  1  0  0  0
  3  4  1  0  0  0
  3 27  1  0  0  0
  4  5  2  0  0  0
  4 28  1  0  0  0
  5  6  1  0  0  0
  5 10  1  0  0  0
  6  7  1  0  0  0
  6 29  1  0  0  0
  7  8  2  0  0  0
  7  9  1  0  0  0
  9 10  1  0  0  0
  9 12  2  0  0  0
 10 11  2  0  0  0
 11 30  1  0  0  0
 12 13  1  0  0  0
 13 14  1  0  0  0
 13 31  1  0  0  0
 14 15  2  0  0  0
 14 19  1  0  0  0
 15 16  1  0  0  0
 15 32  1  0  0  0
 16 17  2  0  0  0
 16 33  1  0  0  0
 17 18  1  0  0  0
 17 20  1  0  0  0
 18 19  2  0  0  0
 18 34  1  0  0  0
 19 35  1  0  0  0
 20 21  1  0  0  0
 20 22  2  0  0  0
 20 23  2  0  0  0
 21 36  1  0  0  0
 21 37  1  0  0  0
M  END
> <s_m_entry_id>
32804

> <s_m_entry_name>
dock_pv.205

> <s_m_Source_Path>
/home/csk/Desktop/cluster/DUD-E-result/cdk2

> <s_m_Source_File>
dock_pv.maegz

> <i_m_Source_File_Index>
205

> <chembl_id>
CHEMBL271843

> <chembl_pref_name>
GW275944X

> <i_lp_mmshare_version>
53161

> <i_f3d_flags>
0

> <r_lp_tautomer_probability>
1

> <s_lp_Force_Field>
OPLS_2005

> <r_lp_Energy>
44.565999

> <b_lp_Chiralities_Consistent>
1

> <s_lp_Variant>
CHEMBL301_lig183-1

> <s_i_glide_gridfile>
glide-grid_1h00

> <i_i_glide_lignum>
324

> <i_i_glide_rotatable_bonds>
3

> <r_i_docking_score>
-7.75032936285537

> <r_i_glide_ligand_efficiency>
-0.336970841863277

> <r_i_glide_ligand_efficiency_sa>
-0.958300249346175

> <r_i_glide_ligand_efficiency_ln>
-1.87409991603967

> <r_i_glide_gscore>
-7.75032936285537

> <r_i_glide_lipo>
-1.97118086497819

> <r_i_glide_hbond>
-0.507386519090887

> <r_i_glide_metal>
0

> <r_i_glide_rewards>
-2.82288818174772

> <r_i_glide_evdw>
-35.8857421875

> <r_i_glide_ecoul>
-6.62638330459595

> <r_i_glide_erotb>
0.344643857506831

> <r_i_glide_esite>
-0.0052730494810161

> <r_i_glide_emodel>
-61.0693443880541

> <r_i_glide_energy>
-42.5121254920959

> <r_i_glide_einternal>
3.45990800857544

> <i_i_glide_confnum>
1

> <i_i_glide_posenum>
102

> <r_i_glide_eff_state_penalty>
0

> <s_user_duplicate_titles>
CHEMBL301_lig183,441087,136982

> <s_m_subgroup_title>
dock_pv

> <s_m_subgroupid>
dock_pv

> <b_m_subgroup_collapsed>
1

$$$$
CHEMBL301_lig1459
                    3D
 Schrodinger Suite 2021-1.
 51 52  0  0  1  0            999 V2000
   -2.3421   26.5659   11.7766 C   0  0  0  0  0  0
   -1.1736   27.3916   12.3329 C   0  0  1  0  0  0
   -0.0173   26.5670   12.3544 O   0  0  0  0  0  0
   -0.9322   28.7181   11.5630 C   0  0  1  0  0  0
    0.1906   29.5484   12.2073 C   0  0  0  0  0  0
   -0.7000   28.4256   10.1772 O   0  0  0  0  0  0
   -0.1066   29.3858    9.3880 C   0  0  0  0  0  0
    1.1463   29.0521    8.9796 N   0  0  0  0  0  0
    1.7837   29.9177    8.1566 C   0  0  0  0  0  0
    3.0458   29.6085    7.6276 N   0  0  0  0  0  0
    3.7768   28.4112    7.5401 C   0  0  0  0  0  0
    4.6075   28.2565    6.4284 C   0  0  0  0  0  0
    5.2582   27.0527    6.1863 C   0  0  0  0  0  0
    5.0536   25.9753    7.0452 C   0  0  0  0  0  0
    4.2519   26.1295    8.1762 C   0  0  0  0  0  0
    3.6581   27.3606    8.4542 C   0  0  0  0  0  0
    5.7958   24.3849    6.6817 S   0  0  0  0  0  0
    7.2279   24.5259    6.9726 O   0  0  0  0  0  0
    5.0015   23.3631    7.3760 O   0  0  0  0  0  0
    5.5757   24.1248    4.8096 C   0  0  0  0  0  0
    4.0820   24.1873    4.4474 C   0  0  0  0  0  0
    6.2166   22.7837    4.4156 C   0  0  0  0  0  0
    1.2590   31.0890    7.7207 N   0  0  0  0  0  0
    0.0299   31.4239    8.1760 C   0  0  0  0  0  0
   -0.7238   30.5910    9.0131 C   0  0  0  0  0  0
   -2.1313   30.9987    9.4449 C   0  0  0  0  0  0
   -2.6763   31.8502    8.5760 F   0  0  0  0  0  0
   -2.9558   29.9571    9.5572 F   0  0  0  0  0  0
   -2.0506   31.6117   10.6194 F   0  0  0  0  0  0
   -3.2689   27.1418   11.7796 H   0  0  0  0  0  0
   -2.5147   25.6670   12.3699 H   0  0  0  0  0  0
   -2.1537   26.2512   10.7494 H   0  0  0  0  0  0
   -1.4082   27.6360   13.3718 H   0  0  0  0  0  0
    0.7496   27.0967   12.6014 H   0  0  0  0  0  0
   -1.8488   29.2999   11.6405 H   0  0  0  0  0  0
   -0.0158   29.7131   13.2648 H   0  0  0  0  0  0
    1.1583   29.0513   12.1295 H   0  0  0  0  0  0
    0.2873   30.5372   11.7606 H   0  0  0  0  0  0
    3.4021   30.3377    7.0234 H   0  0  0  0  0  0
    4.7261   29.0517    5.7123 H   0  0  0  0  0  0
    5.8907   26.9579    5.3165 H   0  0  0  0  0  0
    4.0792   25.2977    8.8470 H   0  0  0  0  0  0
    3.0462   27.4539    9.3356 H   0  0  0  0  0  0
    6.1137   24.9351    4.3147 H   0  0  0  0  0  0
    3.9285   24.0360    3.3771 H   0  0  0  0  0  0
    3.5094   23.4269    4.9794 H   0  0  0  0  0  0
    3.6559   25.1575    4.7016 H   0  0  0  0  0  0
    6.1217   22.6045    3.3438 H   0  0  0  0  0  0
    7.2788   22.7678    4.6576 H   0  0  0  0  0  0
    5.7464   21.9501    4.9363 H   0  0  0  0  0  0
   -0.3417   32.3861    7.8506 H   0  0  0  0  0  0
  1  2  1  0  0  0
  1 30  1  0  0  0
  1 31  1  0  0  0
  1 32  1  0  0  0
  2  3  1  0  0  0
  2  4  1  0  0  0
  2 33  1  0  0  0
  3 34  1  0  0  0
  4  5  1  0  0  0
  4  6  1  0  0  0
  4 35  1  0  0  0
  5 36  1  0  0  0
  5 37  1  0  0  0
  5 38  1  0  0  0
  6  7  1  0  0  0
  7  8  2  0  0  0
  7 25  1  0  0  0
  8  9  1  0  0  0
  9 10  1  0  0  0
  9 23  2  0  0  0
 10 11  1  0  0  0
 10 39  1  0  0  0
 11 12  2  0  0  0
 11 16  1  0  0  0
 12 13  1  0  0  0
 12 40  1  0  0  0
 13 14  2  0  0  0
 13 41  1  0  0  0
 14 15  1  0  0  0
 14 17  1  0  0  0
 15 16  2  0  0  0
 15 42  1  0  0  0
 16 43  1  0  0  0
 17 18  2  0  0  0
 17 19  2  0  0  0
 17 20  1  0  0  0
 20 21  1  0  0  0
 20 22  1  0  0  0
 20 44  1  0  0  0
 21 45  1  0  0  0
 21 46  1  0  0  0
 21 47  1  0  0  0
 22 48  1  0  0  0
 22 49  1  0  0  0
 22 50  1  0  0  0
 23 24  1  0  0  0
 24 25  2  0  0  0
 24 51  1  0  0  0
 25 26  1  0  0  0
 26 27  1  0  0  0
 26 28  1  0  0  0
 26 29  1  0  0  0
M  END
> <s_m_entry_id>
32805

> <s_m_entry_name>
dock_pv.206

> <s_m_Source_Path>
/home/csk/Desktop/cluster/DUD-E-result/cdk2

> <s_m_Source_File>
dock_pv.maegz

> <i_m_Source_File_Index>
206

> <chembl_id>
CHEMBL3644024

> <chembl_pref_name>
None

> <i_lp_mmshare_version>
53161

> <i_f3d_flags>
0

> <r_lp_tautomer_probability>
0.999999917912647

> <s_lp_Force_Field>
OPLS_2005

> <r_lp_Energy>
4.818818

> <b_lp_Chiralities_Consistent>
1

> <s_lp_Variant>
CHEMBL301_lig1459-1

> <s_i_glide_gridfile>
glide-grid_1h00

> <i_i_glide_lignum>
1972

> <i_i_glide_rotatable_bonds>
9

> <r_i_docking_score>
-7.74899950166996

> <r_i_glide_ligand_efficiency>
-0.26720687936793

> <r_i_glide_ligand_efficiency_sa>
-0.820944190499645

> <r_i_glide_ligand_efficiency_ln>
-1.77432438820934

> <r_i_glide_gscore>
-7.74899950166996

> <r_i_glide_lipo>
-2.60421477288955

> <r_i_glide_hbond>
-0.309055806174469

> <r_i_glide_metal>
0

> <r_i_glide_rewards>
-2.26661552377262

> <r_i_glide_evdw>
-39.7884140014648

> <r_i_glide_ecoul>
-7.97489309310913

> <r_i_glide_erotb>
0.635757553939476

> <r_i_glide_esite>
-0.0192162887331889

> <r_i_glide_emodel>
-61.6920044617897

> <r_i_glide_energy>
-47.763307094574

> <r_i_glide_einternal>
17.738037109375

> <i_i_glide_confnum>
42

> <i_i_glide_posenum>
237

> <r_i_glide_eff_state_penalty>
0

> <s_user_duplicate_titles>
CHEMBL301_lig1459

> <s_m_subgroup_title>
dock_pv

> <s_m_subgroupid>
dock_pv

> <b_m_subgroup_collapsed>
1

$$$$
CHEMBL301_lig138
                    3D
 Schrodinger Suite 2021-1.
 50 54  0  0  1  0            999 V2000
    1.2507   30.3253    8.1965 C   0  0  0  0  0  0
    6.9221   24.7966    6.1431 S   0  0  0  0  0  0
    0.0241   30.3778    8.9755 C   0  0  0  0  0  0
    1.2580   31.5227    7.3760 C   0  0  0  0  0  0
    0.2031   32.2485    7.7761 N   0  0  0  0  0  0
   -0.5882   31.5791    8.6866 C   0  0  0  0  0  0
    2.2325   29.4044    8.1636 C   0  0  0  0  0  0
   -0.5897   29.5249    9.9047 C   0  0  0  0  0  0
   -2.3353   28.9821   11.3735 N   0  0  0  0  0  0
    8.4749   25.3171    6.7751 N   0  0  2  0  0  0
   -0.0947   27.9543   10.5341 S   0  0  0  0  0  0
   -1.5495   27.9517   11.4929 C   0  0  0  0  0  0
    5.8160   26.1516    6.4897 C   0  0  0  0  0  0
   -1.8273   29.8941   10.5024 C   0  0  0  0  0  0
    6.4870   23.6687    6.9757 O   0  0  0  0  0  0
    7.0365   24.6607    4.6880 O   0  0  0  0  0  0
    3.3591   29.3994    7.3759 N   0  0  0  0  0  0
    2.0580   31.8520    6.5084 O   0  0  0  0  0  0
   -1.7943   31.9674    9.2657 C   0  0  0  0  0  0
   -2.4344   31.1221   10.1761 C   0  0  0  0  0  0
    5.4432   27.0449    5.4843 C   0  0  0  0  0  0
    5.3549   26.3203    7.7919 C   0  0  0  0  0  0
    4.1728   28.3002    7.1027 C   0  0  0  0  0  0
    9.3655   26.1813    5.9729 C   0  0  0  0  0  0
    4.5259   27.3911    8.1011 C   0  0  0  0  0  0
    4.6340   28.1322    5.7980 C   0  0  0  0  0  0
   10.5552   25.3809    5.4564 C   0  0  0  0  0  0
   10.8568   25.4005    4.0924 C   0  0  0  0  0  0
   11.3409   24.6202    6.3293 C   0  0  0  0  0  0
   12.3915   23.8525    5.8338 C   0  0  0  0  0  0
   11.9048   24.6311    3.5967 C   0  0  0  0  0  0
   12.6635   23.8529    4.4673 C   0  0  0  0  0  0
    0.0110   33.1693    7.4049 H   0  0  0  0  0  0
    2.1736   28.5371    8.8045 H   0  0  0  0  0  0
    8.9001   24.7415    7.5049 H   0  0  0  0  0  0
   -1.7744   27.1262   12.1525 H   0  0  0  0  0  0
    3.4438   30.1435    6.6880 H   0  0  0  0  0  0
   -2.2426   32.9188    9.0199 H   0  0  0  0  0  0
   -3.3673   31.4104   10.6390 H   0  0  0  0  0  0
    5.8090   26.9190    4.4748 H   0  0  0  0  0  0
    5.6457   25.6324    8.5731 H   0  0  0  0  0  0
    8.7990   26.5510    5.1150 H   0  0  0  0  0  0
    9.6750   27.0505    6.5577 H   0  0  0  0  0  0
    4.1904   27.5157    9.1201 H   0  0  0  0  0  0
    4.3699   28.8386    5.0238 H   0  0  0  0  0  0
   10.2687   25.9925    3.4065 H   0  0  0  0  0  0
   11.1341   24.6144    7.3880 H   0  0  0  0  0  0
   12.9893   23.2610    6.5082 H   0  0  0  0  0  0
   12.1285   24.6495    2.5393 H   0  0  0  0  0  0
   13.4761   23.2618    4.0754 H   0  0  0  0  0  0
  1  3  1  0  0  0
  1  4  1  0  0  0
  1  7  2  0  0  0
  2 13  1  0  0  0
  2 10  1  0  0  0
  2 15  2  0  0  0
  2 16  2  0  0  0
  3  6  2  0  0  0
  3  8  1  0  0  0
  4  5  1  0  0  0
  4 18  2  0  0  0
  5  6  1  0  0  0
  5 33  1  0  0  0
  6 19  1  0  0  0
  7 17  1  0  0  0
  7 34  1  0  0  0
  8 11  1  0  0  0
  8 14  2  0  0  0
  9 14  1  0  0  0
  9 12  2  0  0  0
 10 24  1  0  0  0
 10 35  1  0  0  0
 11 12  1  0  0  0
 12 36  1  0  0  0
 13 21  2  0  0  0
 13 22  1  0  0  0
 14 20  1  0  0  0
 17 23  1  0  0  0
 17 37  1  0  0  0
 19 20  2  0  0  0
 19 38  1  0  0  0
 20 39  1  0  0  0
 21 26  1  0  0  0
 21 40  1  0  0  0
 22 25  2  0  0  0
 22 41  1  0  0  0
 23 25  1  0  0  0
 23 26  2  0  0  0
 24 27  1  0  0  0
 24 42  1  0  0  0
 24 43  1  0  0  0
 25 44  1  0  0  0
 26 45  1  0  0  0
 27 28  2  0  0  0
 27 29  1  0  0  0
 28 31  1  0  0  0
 28 46  1  0  0  0
 29 30  2  0  0  0
 29 47  1  0  0  0
 30 32  1  0  0  0
 30 48  1  0  0  0
 31 32  2  0  0  0
 31 49  1  0  0  0
 32 50  1  0  0  0
M  END
> <s_m_entry_id>
32806

> <s_m_entry_name>
dock_pv.207

> <s_m_Source_Path>
/home/csk/Desktop/cluster/DUD-E-result/cdk2

> <s_m_Source_File>
dock_pv.maegz

> <i_m_Source_File_Index>
207

> <chembl_id>
CHEMBL1964242

> <chembl_pref_name>
None

> <i_lp_mmshare_version>
53161

> <i_f3d_flags>
0

> <r_lp_tautomer_probability>
0.499999999999422

> <s_lp_Force_Field>
OPLS_2005

> <r_lp_Energy>
40.74226

> <b_lp_Chiralities_Consistent>
1

> <s_lp_Variant>
CHEMBL301_lig138-1

> <s_i_glide_gridfile>
glide-grid_1h00

> <i_i_glide_lignum>
277

> <i_i_glide_rotatable_bonds>
6

> <r_i_docking_score>
-7.74775746235259

> <r_i_glide_ligand_efficiency>
-0.242117420698518

> <r_i_glide_ligand_efficiency_sa>
-0.768674895745302

> <r_i_glide_ligand_efficiency_ln>
-1.73493409171269

> <r_i_glide_gscore>
-7.74775746235259

> <r_i_glide_lipo>
-2.57889269712898

> <r_i_glide_hbond>
-0.578048752011981

> <r_i_glide_metal>
0

> <r_i_glide_rewards>
-1.56645433065929

> <r_i_glide_evdw>
-47.4077186584473

> <r_i_glide_ecoul>
-6.50117158889771

> <r_i_glide_erotb>
0.329549854253611

> <r_i_glide_esite>
-0.0083498655489297

> <r_i_glide_emodel>
-74.2452274479027

> <r_i_glide_energy>
-53.908890247345

> <r_i_glide_einternal>
9.2386999130249

> <i_i_glide_confnum>
20

> <i_i_glide_posenum>
377

> <r_i_glide_eff_state_penalty>
0

> <s_user_duplicate_titles>
CHEMBL301_lig138,136652

> <s_m_subgroup_title>
dock_pv

> <s_m_subgroupid>
dock_pv

> <b_m_subgroup_collapsed>
1

$$$$
CHEMBL301_lig156
                    3D
 Schrodinger Suite 2021-1.
 42 45  0  0  1  0            999 V2000
    6.4954   24.5742    5.7784 S   0  0  0  0  0  0
    1.2581   30.3145    8.1984 C   0  0  0  0  0  0
    0.0278   30.3606    8.9755 C   0  0  0  0  0  0
    1.2579   31.5117    7.3760 C   0  0  0  0  0  0
    0.1976   32.2301    7.7761 N   0  0  0  0  0  0
    7.9569   25.2161    5.0496 N   0  0  0  0  0  0
   -0.5904   31.5571    8.6856 C   0  0  0  0  0  0
    2.2484   29.4004    8.1754 C   0  0  0  0  0  0
   -0.5850   29.5057    9.9049 C   0  0  0  0  0  0
   -2.3298   28.9592   11.3760 N   0  0  0  0  0  0
    5.5763   26.0153    6.3020 C   0  0  0  0  0  0
   -0.0854   27.9372   10.5363 S   0  0  0  0  0  0
   -1.5429   27.9299   11.4943 C   0  0  0  0  0  0
    9.0203   25.8172    5.7503 C   0  0  0  0  0  0
   -1.8245   29.8706   10.5034 C   0  0  0  0  0  0
    5.7171   23.9599    4.6995 O   0  0  0  0  0  0
    6.8565   23.8065    6.9760 O   0  0  0  0  0  0
    3.3890   29.3942    7.4060 N   0  0  0  0  0  0
    2.0578   31.8519    6.5123 O   0  0  0  0  0  0
   -1.7981   31.9417    9.2647 C   0  0  0  0  0  0
    9.0997   25.8520    6.9757 O   0  0  0  0  0  0
   -2.4350   31.0953   10.1760 C   0  0  0  0  0  0
    5.2578   26.9923    5.3573 C   0  0  0  0  0  0
    5.1858   26.1640    7.6339 C   0  0  0  0  0  0
    4.1398   28.2658    7.0703 C   0  0  0  0  0  0
    4.5528   28.1261    5.7467 C   0  0  0  0  0  0
    4.4595   27.2876    8.0164 C   0  0  0  0  0  0
   10.0637   26.4732    4.8521 C   0  0  0  0  0  0
    0.0001   33.1501    7.4076 H   0  0  0  0  0  0
    7.9531   25.2270    4.0283 H   0  0  0  0  0  0
    2.1893   28.5378    8.8224 H   0  0  0  0  0  0
   -1.7678   27.1037   12.1528 H   0  0  0  0  0  0
    3.4907   30.1546    6.7386 H   0  0  0  0  0  0
   -2.2527   32.8905    9.0167 H   0  0  0  0  0  0
   -3.3680   31.3826   10.6402 H   0  0  0  0  0  0
    5.5652   26.8796    4.3273 H   0  0  0  0  0  0
    5.4394   25.4206    8.3765 H   0  0  0  0  0  0
    4.3151   28.8841    5.0138 H   0  0  0  0  0  0
    4.1644   27.3947    9.0506 H   0  0  0  0  0  0
   10.3008   25.8484    3.9912 H   0  0  0  0  0  0
   10.9901   26.6512    5.3965 H   0  0  0  0  0  0
    9.6952   27.4344    4.4951 H   0  0  0  0  0  0
  1  6  1  0  0  0
  1 11  1  0  0  0
  1 16  2  0  0  0
  1 17  2  0  0  0
  2  8  2  0  0  0
  2  3  1  0  0  0
  2  4  1  0  0  0
  3  7  2  0  0  0
  3  9  1  0  0  0
  4  5  1  0  0  0
  4 19  2  0  0  0
  5  7  1  0  0  0
  5 29  1  0  0  0
  6 14  1  0  0  0
  6 30  1  0  0  0
  7 20  1  0  0  0
  8 18  1  0  0  0
  8 31  1  0  0  0
  9 12  1  0  0  0
  9 15  2  0  0  0
 10 15  1  0  0  0
 10 13  2  0  0  0
 11 23  2  0  0  0
 11 24  1  0  0  0
 12 13  1  0  0  0
 13 32  1  0  0  0
 14 21  2  0  0  0
 14 28  1  0  0  0
 15 22  1  0  0  0
 18 25  1  0  0  0
 18 33  1  0  0  0
 20 22  2  0  0  0
 20 34  1  0  0  0
 22 35  1  0  0  0
 23 26  1  0  0  0
 23 36  1  0  0  0
 24 27  2  0  0  0
 24 37  1  0  0  0
 25 27  1  0  0  0
 25 26  2  0  0  0
 26 38  1  0  0  0
 27 39  1  0  0  0
 28 40  1  0  0  0
 28 41  1  0  0  0
 28 42  1  0  0  0
M  END
> <s_m_entry_id>
32807

> <s_m_entry_name>
dock_pv.208

> <s_m_Source_Path>
/home/csk/Desktop/cluster/DUD-E-result/cdk2

> <s_m_Source_File>
dock_pv.maegz

> <i_m_Source_File_Index>
208

> <chembl_id>
CHEMBL1964243

> <chembl_pref_name>
None

> <i_lp_mmshare_version>
53161

> <i_f3d_flags>
0

> <r_lp_tautomer_probability>
0.499999999999422

> <s_lp_Force_Field>
OPLS_2005

> <r_lp_Energy>
35.408168

> <b_lp_Chiralities_Consistent>
1

> <s_lp_Variant>
CHEMBL301_lig156-1

> <s_i_glide_gridfile>
glide-grid_1h00

> <i_i_glide_lignum>
296

> <i_i_glide_rotatable_bonds>
5

> <r_i_docking_score>
-7.74740515764632

> <r_i_glide_ligand_efficiency>
-0.276693041344511

> <r_i_glide_ligand_efficiency_sa>
-0.840203037008237

> <r_i_glide_ligand_efficiency_ln>
-1.78832858408455

> <r_i_glide_gscore>
-7.74740515764632

> <r_i_glide_lipo>
-2.84327976560913

> <r_i_glide_hbond>
-0.58166254656475

> <r_i_glide_metal>
0

> <r_i_glide_rewards>
-1.08151503287687

> <r_i_glide_evdw>
-44.4868431091309

> <r_i_glide_ecoul>
-9.69884490966797

> <r_i_glide_erotb>
0.459612188125292

> <r_i_glide_esite>
-0.0213911088141222

> <r_i_glide_emodel>
-71.3060953980176

> <r_i_glide_energy>
-54.1856880187988

> <r_i_glide_einternal>
9.39698600769043

> <i_i_glide_confnum>
41

> <i_i_glide_posenum>
80

> <r_i_glide_eff_state_penalty>
0

> <s_user_duplicate_titles>
CHEMBL301_lig156,136686

> <s_m_subgroup_title>
dock_pv

> <s_m_subgroupid>
dock_pv

> <b_m_subgroup_collapsed>
1

$$$$
CHEMBL301_lig606
                    3D
 Schrodinger Suite 2021-1.
 47 50  0  0  1  0            999 V2000
   -0.8102   27.9935   11.2396 C   0  0  0  0  0  0
   -1.8659   28.8954   11.3956 C   0  0  0  0  0  0
   -1.9042   30.0767   10.6643 C   0  0  0  0  0  0
    0.2141   28.2920   10.3283 C   0  0  0  0  0  0
    0.2067   29.4873    9.5871 C   0  0  0  0  0  0
   -0.8774   30.3682    9.7629 C   0  0  0  0  0  0
   -0.9451   31.6691    8.9993 C   0  0  0  0  0  0
    0.0569   31.8321    8.1124 N   0  0  0  0  0  0
    1.0849   31.0294    7.7723 C   0  0  0  0  0  0
    1.3097   29.8565    8.6325 C   0  0  0  0  0  0
    1.7699   31.3722    6.8104 O   0  0  0  0  0  0
   -1.8070   32.5369    9.1276 O   0  0  0  0  0  0
    2.5021   29.2038    8.5746 C   0  0  0  0  0  0
    3.6068   29.4519    7.7841 N   0  0  0  0  0  0
    4.8666   28.7268    7.8095 C   0  0  0  0  0  0
    4.7274   27.4030    7.0806 C   0  0  0  0  0  0
    4.5206   26.2282    7.8058 C   0  0  0  0  0  0
    4.3223   25.0189    7.1465 C   0  0  0  0  0  0
    4.3286   24.9597    5.7462 C   0  0  0  0  0  0
    4.5788   26.1387    5.0204 C   0  0  0  0  0  0
    4.7789   27.3503    5.6850 C   0  0  0  0  0  0
    4.0580   23.8962    7.8856 O   0  0  0  0  0  0
    4.0672   23.7314    5.1630 O   0  0  0  0  0  0
    3.9380   23.6512    3.7455 C   0  0  0  0  0  0
   -0.7871   26.7391   12.0526 C   0  0  0  0  0  0
   -1.5353   26.4569   13.1974 C   0  0  0  0  0  0
   -1.2678   25.2142   13.6732 O   0  0  0  0  0  0
   -0.3421   24.6763   12.8429 C   0  0  0  0  0  0
   -0.0173   25.5830   11.8471 C   0  0  0  0  0  0
   -2.6651   28.6997   12.0948 H   0  0  0  0  0  0
   -2.7335   30.7570   10.8176 H   0  0  0  0  0  0
    1.0232   27.5851   10.2204 H   0  0  0  0  0  0
   -0.0114   32.6748    7.5624 H   0  0  0  0  0  0
    2.7006   28.3635    9.2223 H   0  0  0  0  0  0
    3.5429   30.1508    7.0496 H   0  0  0  0  0  0
    5.1489   28.5245    8.8456 H   0  0  0  0  0  0
    5.6582   29.3392    7.3812 H   0  0  0  0  0  0
    4.4684   26.2587    8.8849 H   0  0  0  0  0  0
    4.6124   26.1346    3.9433 H   0  0  0  0  0  0
    4.9598   28.2520    5.1158 H   0  0  0  0  0  0
    3.5171   23.2890    7.3709 H   0  0  0  0  0  0
    3.6669   22.6331    3.4625 H   0  0  0  0  0  0
    4.8785   23.8931    3.2479 H   0  0  0  0  0  0
    3.1556   24.3142    3.3749 H   0  0  0  0  0  0
   -2.2668   27.0266   13.7542 H   0  0  0  0  0  0
   -0.0126   23.6753   13.0749 H   0  0  0  0  0  0
    0.6994   25.4213   11.0543 H   0  0  0  0  0  0
  1  2  2  0  0  0
  1  4  1  0  0  0
  1 25  1  0  0  0
  2  3  1  0  0  0
  2 30  1  0  0  0
  3  6  2  0  0  0
  3 31  1  0  0  0
  4  5  2  0  0  0
  4 32  1  0  0  0
  5 10  1  0  0  0
  5  6  1  0  0  0
  6  7  1  0  0  0
  7  8  1  0  0  0
  7 12  2  0  0  0
  8  9  1  0  0  0
  8 33  1  0  0  0
  9 10  1  0  0  0
  9 11  2  0  0  0
 10 13  2  0  0  0
 13 14  1  0  0  0
 13 34  1  0  0  0
 14 15  1  0  0  0
 14 35  1  0  0  0
 15 16  1  0  0  0
 15 36  1  0  0  0
 15 37  1  0  0  0
 16 17  2  0  0  0
 16 21  1  0  0  0
 17 18  1  0  0  0
 17 38  1  0  0  0
 18 19  2  0  0  0
 18 22  1  0  0  0
 19 20  1  0  0  0
 19 23  1  0  0  0
 20 21  2  0  0  0
 20 39  1  0  0  0
 21 40  1  0  0  0
 22 41  1  0  0  0
 23 24  1  0  0  0
 24 42  1  0  0  0
 24 43  1  0  0  0
 24 44  1  0  0  0
 25 26  2  0  0  0
 25 29  1  0  0  0
 26 27  1  0  0  0
 26 45  1  0  0  0
 27 28  1  0  0  0
 28 29  2  0  0  0
 28 46  1  0  0  0
 29 47  1  0  0  0
M  END
> <s_m_entry_id>
32808

> <s_m_entry_name>
dock_pv.209

> <s_m_Source_Path>
/home/csk/Desktop/cluster/DUD-E-result/cdk2

> <s_m_Source_File>
dock_pv.maegz

> <i_m_Source_File_Index>
209

> <chembl_id>
CHEMBL489853

> <chembl_pref_name>
None

> <i_lp_mmshare_version>
53161

> <i_f3d_flags>
0

> <r_lp_tautomer_probability>
0.49999999999931

> <s_lp_Force_Field>
OPLS_2005

> <r_lp_Energy>
30.681387

> <b_lp_Chiralities_Consistent>
1

> <s_lp_Variant>
CHEMBL301_lig606-1

> <s_i_glide_gridfile>
glide-grid_1h00

> <i_i_glide_lignum>
847

> <i_i_glide_rotatable_bonds>
6

> <r_i_docking_score>
-7.74667293761008

> <r_i_glide_ligand_efficiency>
-0.267126653021037

> <r_i_glide_ligand_efficiency_sa>
-0.820697709744501

> <r_i_glide_ligand_efficiency_ln>
-1.7737916640362

> <r_i_glide_gscore>
-7.74667293761008

> <r_i_glide_lipo>
-2.82464689493799

> <r_i_glide_hbond>
-0.270876672782187

> <r_i_glide_metal>
0

> <r_i_glide_rewards>
-1.77663131050083

> <r_i_glide_evdw>
-45.5324020385742

> <r_i_glide_ecoul>
-7.39867830276489

> <r_i_glide_erotb>
0.511903787954373

> <r_i_glide_esite>
0

> <r_i_glide_emodel>
-74.9724447774245

> <r_i_glide_energy>
-52.9310803413391

> <r_i_glide_einternal>
6.19986534118652

> <i_i_glide_confnum>
23

> <i_i_glide_posenum>
89

> <r_i_glide_eff_state_penalty>
0

> <s_user_duplicate_titles>
CHEMBL301_lig606

> <s_m_subgroup_title>
dock_pv

> <s_m_subgroupid>
dock_pv

> <b_m_subgroup_collapsed>
1

$$$$
CHEMBL301_lig1389
                    3D
 Schrodinger Suite 2021-1.
 50 51  0  0  1  0            999 V2000
    0.7463   27.6358   10.6847 C   0  0  0  0  0  0
   -0.7227   28.1340   10.6257 C   0  0  2  0  0  0
   -0.8537   29.5856   10.4197 N   0  0  0  0  0  0
   -0.3015   30.3466    9.3766 C   0  0  0  0  0  0
    0.7301   29.8524    8.6392 N   0  0  0  0  0  0
    1.2880   30.6772    7.7166 C   0  0  0  0  0  0
    2.3878   30.2520    6.9687 N   0  0  0  0  0  0
    3.2581   29.1619    7.0896 C   0  0  0  0  0  0
    3.6511   28.6428    8.3179 C   0  0  0  0  0  0
    4.5631   27.5926    8.3649 C   0  0  0  0  0  0
    5.0891   27.0215    7.1951 C   0  0  0  0  0  0
    4.6632   27.5313    5.9519 C   0  0  0  0  0  0
    5.0576   26.9167    4.6193 C   0  0  0  0  0  0
    3.7845   28.6182    5.9218 C   0  0  0  0  0  0
    6.2098   25.6025    7.3682 S   0  0  1  0  0  0
    7.0745   25.9590    8.5760 N   0  0  0  0  0  0
    5.4319   24.3651    7.2658 O   0  0  0  0  0  0
    7.5391   25.6363    6.0351 C   0  0  0  0  0  0
    0.8731   31.9379    7.4416 N   0  0  0  0  0  0
   -0.1635   32.4104    8.1760 C   0  0  0  0  0  0
   -0.7931   31.6445    9.1583 C   0  0  0  0  0  0
   -2.2310   32.3939   10.1670 Br  0  0  0  0  0  0
   -1.5718   27.6585   11.8569 C   0  0  0  0  0  0
   -1.7897   26.1305   11.8816 C   0  0  0  0  0  0
   -0.9979   28.1544   13.2008 C   0  0  0  0  0  0
   -2.8730   28.2094   11.7760 O   0  0  0  0  0  0
    0.8217   26.6111   11.0431 H   0  0  0  0  0  0
    1.2211   27.6323    9.7059 H   0  0  0  0  0  0
    1.3530   28.2523   11.3489 H   0  0  0  0  0  0
   -1.1695   27.6821    9.7384 H   0  0  0  0  0  0
   -1.6782   29.9844   10.8495 H   0  0  0  0  0  0
    2.7389   30.9594    6.3388 H   0  0  0  0  0  0
    3.2610   29.0515    9.2376 H   0  0  0  0  0  0
    4.8439   27.2252    9.3372 H   0  0  0  0  0  0
    5.0163   25.8289    4.6727 H   0  0  0  0  0  0
    4.3659   27.1977    3.8237 H   0  0  0  0  0  0
    6.0591   27.2311    4.3275 H   0  0  0  0  0  0
    3.4788   29.0298    4.9759 H   0  0  0  0  0  0
    6.5432   25.9234    9.4497 H   0  0  0  0  0  0
    7.9057   26.6520    5.9174 H   0  0  0  0  0  0
    8.3564   24.9944    6.3596 H   0  0  0  0  0  0
    7.1414   25.2510    5.1001 H   0  0  0  0  0  0
   -0.4800   33.4236    7.9681 H   0  0  0  0  0  0
   -0.8658   25.5865   12.0730 H   0  0  0  0  0  0
   -2.1972   25.7708   10.9355 H   0  0  0  0  0  0
   -2.4933   25.8374   12.6625 H   0  0  0  0  0  0
    0.0023   27.7567   13.3754 H   0  0  0  0  0  0
   -0.9250   29.2429   13.2314 H   0  0  0  0  0  0
   -1.6176   27.8483   14.0446 H   0  0  0  0  0  0
   -3.1423   28.4652   12.6742 H   0  0  0  0  0  0
  1  2  1  0  0  0
  1 27  1  0  0  0
  1 28  1  0  0  0
  1 29  1  0  0  0
  2  3  1  0  0  0
  2 23  1  0  0  0
  2 30  1  0  0  0
  3  4  1  0  0  0
  3 31  1  0  0  0
  4  5  2  0  0  0
  4 21  1  0  0  0
  5  6  1  0  0  0
  6  7  1  0  0  0
  6 19  2  0  0  0
  7  8  1  0  0  0
  7 32  1  0  0  0
  8  9  2  0  0  0
  8 14  1  0  0  0
  9 10  1  0  0  0
  9 33  1  0  0  0
 10 11  2  0  0  0
 10 34  1  0  0  0
 11 12  1  0  0  0
 11 15  1  0  0  0
 12 13  1  0  0  0
 12 14  2  0  0  0
 13 35  1  0  0  0
 13 36  1  0  0  0
 13 37  1  0  0  0
 14 38  1  0  0  0
 15 16  2  0  0  0
 15 17  2  0  0  0
 15 18  1  0  0  0
 16 39  1  0  0  0
 18 40  1  0  0  0
 18 41  1  0  0  0
 18 42  1  0  0  0
 19 20  1  0  0  0
 20 21  2  0  0  0
 20 43  1  0  0  0
 21 22  1  0  0  0
 23 24  1  0  0  0
 23 25  1  0  0  0
 23 26  1  0  0  0
 24 44  1  0  0  0
 24 45  1  0  0  0
 24 46  1  0  0  0
 25 47  1  0  0  0
 25 48  1  0  0  0
 25 49  1  0  0  0
 26 50  1  0  0  0
M  END
> <s_m_entry_id>
32809

> <s_m_entry_name>
dock_pv.210

> <s_m_Source_Path>
/home/csk/Desktop/cluster/DUD-E-result/cdk2

> <s_m_Source_File>
dock_pv.maegz

> <i_m_Source_File_Index>
210

> <chembl_id>
CHEMBL3648125

> <chembl_pref_name>
None

> <i_lp_mmshare_version>
53161

> <i_f3d_flags>
0

> <r_lp_tautomer_probability>
0.999999624730965

> <s_lp_Force_Field>
OPLS_2005

> <r_lp_Energy>
11.731513

> <b_lp_Chiralities_Consistent>
1

> <s_lp_Variant>
CHEMBL301_lig1389-2

> <s_i_glide_gridfile>
glide-grid_1h00

> <i_i_glide_lignum>
1877

> <i_i_glide_rotatable_bonds>
7

> <r_i_docking_score>
-7.74229435406489

> <r_i_glide_ligand_efficiency>
-0.297780552079419

> <r_i_glide_ligand_efficiency_sa>
-0.882173713825386

> <r_i_glide_ligand_efficiency_ln>
-1.81825242451228

> <r_i_glide_gscore>
-7.74229435406489

> <r_i_glide_lipo>
-2.8076488695163

> <r_i_glide_hbond>
-0.452458047457976

> <r_i_glide_metal>
0

> <r_i_glide_rewards>
-1.25984297654135

> <r_i_glide_evdw>
-39.4726676940918

> <r_i_glide_ecoul>
-11.7284698486328

> <r_i_glide_erotb>
0.510559401450253

> <r_i_glide_esite>
0

> <r_i_glide_emodel>
-68.3633118167455

> <r_i_glide_energy>
-51.2011375427246

> <r_i_glide_einternal>
14.9430332183838

> <i_i_glide_confnum>
34

> <i_i_glide_posenum>
380

> <r_i_glide_eff_state_penalty>
0

> <s_user_duplicate_titles>
CHEMBL301_lig1389

> <s_m_subgroup_title>
dock_pv

> <s_m_subgroupid>
dock_pv

> <b_m_subgroup_collapsed>
1

$$$$
CHEMBL301_lig168
                    3D
 Schrodinger Suite 2021-1.
 37 40  0  0  1  0            999 V2000
   -0.2926   28.6152   10.3805 C   0  0  0  0  0  0
   -1.5303   28.5633   11.2333 C   0  0  0  0  0  0
   -0.3416   29.8003    9.6923 C   0  0  0  0  0  0
    0.8086   27.7700   10.1932 C   0  0  0  0  0  0
   -2.1612   29.7339   10.9759 N   0  0  0  0  0  0
   -1.4697   30.5005   10.0454 C   0  0  0  0  0  0
    0.6368   30.2522    8.7902 C   0  0  0  0  0  0
    1.8061   29.4485    8.6607 C   0  0  0  0  0  0
    1.8608   28.2263    9.3761 C   0  0  0  0  0  0
    0.8907   26.4010   10.7898 C   0  0  0  0  0  0
    2.0556   25.8515   11.2749 N   0  0  0  0  0  0
    0.3823   31.5194    8.1761 C   0  0  0  0  0  0
   -1.9097   27.6912   12.0098 O   0  0  0  0  0  0
   -1.6810   31.7615    9.4945 C   0  0  0  0  0  0
   -0.0890   25.4240   10.9656 C   0  0  0  0  0  0
    1.8218   24.5953   11.7726 C   0  0  0  0  0  0
    0.4845   24.3068   11.5788 C   0  0  0  0  0  0
   -0.7464   32.2627    8.5759 C   0  0  0  0  0  0
    2.8188   29.8869    7.8295 O   0  0  0  0  0  0
    1.2564   32.0570    7.2919 F   0  0  0  0  0  0
    4.2761   28.6520    5.5978 N   0  0  0  0  0  0
    4.4049   28.2043    6.9738 C   0  0  0  0  0  0
    4.1399   29.3549    7.9610 C   0  0  0  0  0  0
   -2.9798   30.0374   11.4931 H   0  0  0  0  0  0
    2.7107   27.5755    9.2464 H   0  0  0  0  0  0
    2.9497   26.3259   11.3018 H   0  0  0  0  0  0
   -2.5410   32.3562    9.7691 H   0  0  0  0  0  0
   -1.1272   25.5200   10.6826 H   0  0  0  0  0  0
    2.6197   24.0311   12.2257 H   0  0  0  0  0  0
   -0.0259   23.3952   11.8552 H   0  0  0  0  0  0
   -0.8991   33.2460    8.1541 H   0  0  0  0  0  0
    4.4589   29.6527    5.5640 H   0  0  0  0  0  0
    4.9840   28.2109    5.0260 H   0  0  0  0  0  0
    5.4136   27.8169    7.1268 H   0  0  0  0  0  0
    3.7128   27.3812    7.1471 H   0  0  0  0  0  0
    4.8415   30.1672    7.7760 H   0  0  0  0  0  0
    4.3628   29.0327    8.9761 H   0  0  0  0  0  0
  1  2  1  0  0  0
  1  3  1  0  0  0
  1  4  2  0  0  0
  2  5  1  0  0  0
  2 13  2  0  0  0
  3  6  1  0  0  0
  3  7  2  0  0  0
  4  9  1  0  0  0
  4 10  1  0  0  0
  5  6  1  0  0  0
  5 24  1  0  0  0
  6 14  2  0  0  0
  7 12  1  0  0  0
  7  8  1  0  0  0
  8  9  2  0  0  0
  8 19  1  0  0  0
  9 25  1  0  0  0
 10 11  1  0  0  0
 10 15  2  0  0  0
 11 16  1  0  0  0
 11 26  1  0  0  0
 12 18  2  0  0  0
 12 20  1  0  0  0
 14 18  1  0  0  0
 14 27  1  0  0  0
 15 17  1  0  0  0
 15 28  1  0  0  0
 16 17  2  0  0  0
 16 29  1  0  0  0
 17 30  1  0  0  0
 18 31  1  0  0  0
 19 23  1  0  0  0
 21 22  1  0  0  0
 21 32  1  0  0  0
 21 33  1  0  0  0
 22 23  1  0  0  0
 22 34  1  0  0  0
 22 35  1  0  0  0
 23 36  1  0  0  0
 23 37  1  0  0  0
M  END
> <s_m_entry_id>
32810

> <s_m_entry_name>
dock_pv.211

> <s_m_Source_Path>
/home/csk/Desktop/cluster/DUD-E-result/cdk2

> <s_m_Source_File>
dock_pv.maegz

> <i_m_Source_File_Index>
211

> <chembl_id>
CHEMBL311992

> <chembl_pref_name>
None

> <i_lp_mmshare_version>
53161

> <i_f3d_flags>
0

> <r_lp_tautomer_probability>
1

> <s_lp_Force_Field>
OPLS_2005

> <r_lp_Energy>
59.672446

> <b_lp_Chiralities_Consistent>
1

> <s_lp_Variant>
CHEMBL301_lig168-1

> <s_i_glide_gridfile>
glide-grid_1h00

> <i_i_glide_lignum>
309

> <i_i_glide_rotatable_bonds>
4

> <r_i_docking_score>
-7.74050882704779

> <r_i_glide_ligand_efficiency>
-0.336543862045556

> <r_i_glide_ligand_efficiency_sa>
-0.957085975542765

> <r_i_glide_ligand_efficiency_ln>
-1.8717252214337

> <r_i_glide_gscore>
-7.74050882704779

> <r_i_glide_lipo>
-3.09118286394776

> <r_i_glide_hbond>
-0.440434729567509

> <r_i_glide_metal>
0

> <r_i_glide_rewards>
-2.05714878078194

> <r_i_glide_evdw>
-35.0955085754395

> <r_i_glide_ecoul>
-5.80148363113403

> <r_i_glide_erotb>
0.574016147362997

> <r_i_glide_esite>
-0.100760626671498

> <r_i_glide_emodel>
-57.3955454823867

> <r_i_glide_energy>
-40.8969922065735

> <r_i_glide_einternal>
3.33026027679443

> <i_i_glide_confnum>
6

> <i_i_glide_posenum>
299

> <r_i_glide_eff_state_penalty>
0

> <s_user_duplicate_titles>
CHEMBL301_lig168,131720

> <s_m_subgroup_title>
dock_pv

> <s_m_subgroupid>
dock_pv

> <b_m_subgroup_collapsed>
1

$$$$
CHEMBL301_lig1346
                    3D
 Schrodinger Suite 2021-1.
 51 52  0  0  1  0            999 V2000
    2.7820   26.4746   10.7826 C   0  0  0  0  0  0
    3.2580   26.0335    9.5131 O   0  0  0  0  0  0
    3.6342   26.9731    8.5760 C   0  0  0  0  0  0
    3.0614   28.2520    8.5560 C   0  0  0  0  0  0
    3.1789   29.0622    7.4236 C   0  0  0  0  0  0
    2.4575   30.2541    7.2665 N   0  0  0  0  0  0
    1.2358   30.6889    7.8051 C   0  0  0  0  0  0
    0.8993   31.9770    7.5473 N   0  0  0  0  0  0
   -0.2061   32.4533    8.1761 C   0  0  0  0  0  0
   -0.9953   31.6691    9.0178 C   0  0  0  0  0  0
   -2.4926   32.4299    9.9202 Br  0  0  0  0  0  0
   -0.6136   30.3347    9.1862 C   0  0  0  0  0  0
   -1.3684   29.4943   10.0237 N   0  0  0  0  0  0
   -0.7769   28.3304   10.6968 C   0  0  2  0  0  0
   -0.9406   27.0652    9.8234 C   0  0  0  0  0  0
   -1.3071   28.1484   12.1617 C   0  0  0  0  0  0
   -0.6220   26.9797   12.8989 C   0  0  0  0  0  0
   -1.1413   29.4387   12.9904 C   0  0  0  0  0  0
   -2.6922   27.8520   12.1469 O   0  0  0  0  0  0
    0.5038   29.8498    8.5831 N   0  0  0  0  0  0
    3.9967   28.6520    6.3722 C   0  0  0  0  0  0
    4.6871   27.4550    6.4389 C   0  0  0  0  0  0
    4.4805   26.5967    7.5174 C   0  0  0  0  0  0
    5.3401   25.0381    7.5254 S   0  0  1  0  0  0
    6.6553   25.4520    8.1760 N   0  0  0  0  0  0
    4.4580   23.9776    8.0190 O   0  0  0  0  0  0
    5.8771   24.6345    5.7661 C   0  0  0  0  0  0
    2.8580   25.6605   11.5032 H   0  0  0  0  0  0
    3.3414   27.3216   11.1798 H   0  0  0  0  0  0
    1.7400   26.7672   10.7272 H   0  0  0  0  0  0
    2.4281   28.5626    9.3681 H   0  0  0  0  0  0
    2.9550   30.9505    6.7256 H   0  0  0  0  0  0
   -0.4536   33.4862    8.0096 H   0  0  0  0  0  0
   -2.1567   29.9169   10.4942 H   0  0  0  0  0  0
    0.2931   28.5225   10.7880 H   0  0  0  0  0  0
   -0.2676   26.2644   10.1200 H   0  0  0  0  0  0
   -1.9420   26.6506    9.8880 H   0  0  0  0  0  0
   -0.7426   27.2861    8.7764 H   0  0  0  0  0  0
    0.4575   27.1198   12.9438 H   0  0  0  0  0  0
   -0.8108   26.0228   12.4119 H   0  0  0  0  0  0
   -0.9807   26.8874   13.9248 H   0  0  0  0  0  0
   -0.0916   29.7202   13.0732 H   0  0  0  0  0  0
   -1.6647   30.2803   12.5399 H   0  0  0  0  0  0
   -1.5420   29.3291   13.9992 H   0  0  0  0  0  0
   -3.1026   28.2574   12.9281 H   0  0  0  0  0  0
    4.0959   29.2556    5.4830 H   0  0  0  0  0  0
    5.3403   27.1940    5.6214 H   0  0  0  0  0  0
    6.4947   25.7471    9.1359 H   0  0  0  0  0  0
    6.6104   25.3663    5.4301 H   0  0  0  0  0  0
    6.3306   23.6453    5.7721 H   0  0  0  0  0  0
    5.0005   24.6342    5.1198 H   0  0  0  0  0  0
  1  2  1  0  0  0
  1 28  1  0  0  0
  1 29  1  0  0  0
  1 30  1  0  0  0
  2  3  1  0  0  0
  3  4  2  0  0  0
  3 23  1  0  0  0
  4  5  1  0  0  0
  4 31  1  0  0  0
  5  6  1  0  0  0
  5 21  2  0  0  0
  6  7  1  0  0  0
  6 32  1  0  0  0
  7  8  2  0  0  0
  7 20  1  0  0  0
  8  9  1  0  0  0
  9 10  2  0  0  0
  9 33  1  0  0  0
 10 11  1  0  0  0
 10 12  1  0  0  0
 12 13  1  0  0  0
 12 20  2  0  0  0
 13 14  1  0  0  0
 13 34  1  0  0  0
 14 15  1  0  0  0
 14 16  1  0  0  0
 14 35  1  0  0  0
 15 36  1  0  0  0
 15 37  1  0  0  0
 15 38  1  0  0  0
 16 17  1  0  0  0
 16 18  1  0  0  0
 16 19  1  0  0  0
 17 39  1  0  0  0
 17 40  1  0  0  0
 17 41  1  0  0  0
 18 42  1  0  0  0
 18 43  1  0  0  0
 18 44  1  0  0  0
 19 45  1  0  0  0
 21 22  1  0  0  0
 21 46  1  0  0  0
 22 23  2  0  0  0
 22 47  1  0  0  0
 23 24  1  0  0  0
 24 25  2  0  0  0
 24 26  2  0  0  0
 24 27  1  0  0  0
 25 48  1  0  0  0
 27 49  1  0  0  0
 27 50  1  0  0  0
 27 51  1  0  0  0
M  END
> <s_m_entry_id>
32811

> <s_m_entry_name>
dock_pv.212

> <s_m_Source_Path>
/home/csk/Desktop/cluster/DUD-E-result/cdk2

> <s_m_Source_File>
dock_pv.maegz

> <i_m_Source_File_Index>
212

> <chembl_id>
CHEMBL3648115

> <chembl_pref_name>
None

> <i_lp_mmshare_version>
53161

> <i_f3d_flags>
0

> <r_lp_tautomer_probability>
0.999999624730965

> <s_lp_Force_Field>
OPLS_2005

> <r_lp_Energy>
15.886769

> <b_lp_Chiralities_Consistent>
1

> <s_lp_Variant>
CHEMBL301_lig1346-2

> <s_i_glide_gridfile>
glide-grid_1h00

> <i_i_glide_lignum>
1784

> <i_i_glide_rotatable_bonds>
8

> <r_i_docking_score>
-7.73966567635034

> <r_i_glide_ligand_efficiency>
-0.286654284309272

> <r_i_glide_ligand_efficiency_sa>
-0.85996285198305

> <r_i_glide_ligand_efficiency_ln>
-1.80166657109333

> <r_i_glide_gscore>
-7.73966567635034

> <r_i_glide_lipo>
-2.68326681514715

> <r_i_glide_hbond>
-0.543816209083299

> <r_i_glide_metal>
0

> <r_i_glide_rewards>
-1.72017444529549

> <r_i_glide_evdw>
-35.9139747619629

> <r_i_glide_ecoul>
-9.83552837371826

> <r_i_glide_erotb>
0.478619787331483

> <r_i_glide_esite>
0

> <r_i_glide_emodel>
-65.3774222060462

> <r_i_glide_energy>
-45.7495031356812

> <r_i_glide_einternal>
3.53491759300232

> <i_i_glide_confnum>
16

> <i_i_glide_posenum>
350

> <r_i_glide_eff_state_penalty>
0

> <s_user_duplicate_titles>
CHEMBL301_lig1346

> <s_m_subgroup_title>
dock_pv

> <s_m_subgroupid>
dock_pv

> <b_m_subgroup_collapsed>
1

$$$$
CHEMBL301_lig1377
                    3D
 Schrodinger Suite 2021-1.
 53 54  0  0  1  0            999 V2000
    5.4172   21.0255    7.2154 C   0  0  0  0  0  0
    3.9874   20.6968    7.6557 C   0  0  0  0  0  0
    3.6754   21.4523    8.8165 O   0  0  0  0  0  0
    2.4553   21.3818    9.3732 C   0  0  0  0  0  0
    1.5421   20.6544    8.9751 O   0  0  0  0  0  0
    2.4181   22.2533   10.4384 N   0  0  0  0  0  0
    1.0853   22.4215   11.2110 S   0  0  1  0  0  0
   -0.1488   21.6484   11.0240 O   0  0  0  0  0  0
    1.6706   22.2514   12.9761 C   0  0  0  0  0  0
    0.6946   24.1688   11.0472 C   0  0  0  0  0  0
   -0.6367   24.5701   11.1702 C   0  0  0  0  0  0
   -0.9818   25.9051   11.0053 C   0  0  0  0  0  0
    0.0006   26.8503   10.7180 C   0  0  0  0  0  0
   -0.4276   28.1671   10.5048 N   0  0  0  0  0  0
    0.0580   29.1763    9.6705 C   0  0  0  0  0  0
   -0.7760   30.2315    9.5169 N   0  0  0  0  0  0
   -0.3684   31.2036    8.6671 C   0  0  0  0  0  0
    0.8444   31.1350    7.9835 C   0  0  0  0  0  0
    1.4206   32.6338    6.9760 Br  0  0  0  0  0  0
    1.6421   30.0015    8.1799 C   0  0  0  0  0  0
    2.8581   29.8737    7.4869 N   0  0  0  0  0  0
    3.6600   28.6483    7.4212 C   0  0  2  0  0  0
    4.9972   28.8328    8.1641 C   0  0  0  0  0  0
    3.8404   28.1631    5.9535 C   0  0  2  0  0  0
    4.5093   26.7824    5.8214 C   0  0  0  0  0  0
    4.6055   29.0520    5.1680 O   0  0  0  0  0  0
    1.2516   29.0272    9.0394 N   0  0  0  0  0  0
    1.3425   26.4592   10.6480 C   0  0  0  0  0  0
    1.6899   25.1214   10.8083 C   0  0  0  0  0  0
    5.6859   20.4631    6.3207 H   0  0  0  0  0  0
    5.5231   22.0860    6.9846 H   0  0  0  0  0  0
    6.1384   20.7761    7.9940 H   0  0  0  0  0  0
    3.8952   19.6302    7.8678 H   0  0  0  0  0  0
    3.2862   20.9363    6.8532 H   0  0  0  0  0  0
    2.5230   22.9145   13.1016 H   0  0  0  0  0  0
    0.8557   22.5350   13.6403 H   0  0  0  0  0  0
    1.9529   21.2129   13.1449 H   0  0  0  0  0  0
   -1.4138   23.8515   11.3785 H   0  0  0  0  0  0
   -2.0208   26.1933   11.0774 H   0  0  0  0  0  0
   -1.3285   28.3908   10.8985 H   0  0  0  0  0  0
   -1.0093   32.0691    8.5765 H   0  0  0  0  0  0
    3.1607   30.6537    6.9187 H   0  0  0  0  0  0
    3.1354   27.8519    7.9487 H   0  0  0  0  0  0
    5.6102   27.9325    8.1284 H   0  0  0  0  0  0
    5.5830   29.6516    7.7460 H   0  0  0  0  0  0
    4.8344   29.0519    9.2162 H   0  0  0  0  0  0
    2.8580   28.1273    5.4822 H   0  0  0  0  0  0
    4.0580   26.0434    6.4820 H   0  0  0  0  0  0
    5.5716   26.8243    6.0665 H   0  0  0  0  0  0
    4.4276   26.4045    4.8014 H   0  0  0  0  0  0
    4.4785   29.9698    5.4614 H   0  0  0  0  0  0
    2.1291   27.1772   10.4724 H   0  0  0  0  0  0
    2.7292   24.8383   10.7300 H   0  0  0  0  0  0
  1  2  1  0  0  0
  1 30  1  0  0  0
  1 31  1  0  0  0
  1 32  1  0  0  0
  2  3  1  0  0  0
  2 33  1  0  0  0
  2 34  1  0  0  0
  3  4  1  0  0  0
  4  5  2  0  0  0
  4  6  1  0  0  0
  6  7  2  0  0  0
  7  8  2  0  0  0
  7  9  1  0  0  0
  7 10  1  0  0  0
  9 35  1  0  0  0
  9 36  1  0  0  0
  9 37  1  0  0  0
 10 11  2  0  0  0
 10 29  1  0  0  0
 11 12  1  0  0  0
 11 38  1  0  0  0
 12 13  2  0  0  0
 12 39  1  0  0  0
 13 14  1  0  0  0
 13 28  1  0  0  0
 14 15  1  0  0  0
 14 40  1  0  0  0
 15 16  2  0  0  0
 15 27  1  0  0  0
 16 17  1  0  0  0
 17 18  2  0  0  0
 17 41  1  0  0  0
 18 19  1  0  0  0
 18 20  1  0  0  0
 20 21  1  0  0  0
 20 27  2  0  0  0
 21 22  1  0  0  0
 21 42  1  0  0  0
 22 23  1  0  0  0
 22 24  1  0  0  0
 22 43  1  0  0  0
 23 44  1  0  0  0
 23 45  1  0  0  0
 23 46  1  0  0  0
 24 25  1  0  0  0
 24 26  1  0  0  0
 24 47  1  0  0  0
 25 48  1  0  0  0
 25 49  1  0  0  0
 25 50  1  0  0  0
 26 51  1  0  0  0
 28 29  2  0  0  0
 28 52  1  0  0  0
 29 53  1  0  0  0
M  END
> <s_m_entry_id>
32812

> <s_m_entry_name>
dock_pv.213

> <s_m_Source_Path>
/home/csk/Desktop/cluster/DUD-E-result/cdk2

> <s_m_Source_File>
dock_pv.maegz

> <i_m_Source_File_Index>
213

> <chembl_id>
CHEMBL3648085

> <chembl_pref_name>
None

> <i_lp_mmshare_version>
53161

> <i_f3d_flags>
0

> <r_lp_tautomer_probability>
0.999999624730965

> <s_lp_Force_Field>
OPLS_2005

> <r_lp_Energy>
5.785374

> <b_lp_Chiralities_Consistent>
1

> <s_lp_Variant>
CHEMBL301_lig1377-1

> <s_i_glide_gridfile>
glide-grid_1h00

> <i_i_glide_lignum>
1847

> <i_i_glide_rotatable_bonds>
10

> <r_i_docking_score>
-7.73837394966012

> <r_i_glide_ligand_efficiency>
-0.266840481022763

> <r_i_glide_ligand_efficiency_sa>
-0.819818498700148

> <r_i_glide_ligand_efficiency_ln>
-1.77189140623984

> <r_i_glide_gscore>
-7.73837394966012

> <r_i_glide_lipo>
-2.47535861783884

> <r_i_glide_hbond>
-0.954947374013353

> <r_i_glide_metal>
0

> <r_i_glide_rewards>
-1.44587827278712

> <r_i_glide_evdw>
-37.9832077026367

> <r_i_glide_ecoul>
-10.7587451934814

> <r_i_glide_erotb>
0.687217570642055

> <r_i_glide_esite>
-0.0364350915088067

> <r_i_glide_emodel>
-64.8072183663484

> <r_i_glide_energy>
-48.7419528961182

> <r_i_glide_einternal>
4.0558614730835

> <i_i_glide_confnum>
3

> <i_i_glide_posenum>
31

> <r_i_glide_eff_state_penalty>
0

> <s_user_duplicate_titles>
CHEMBL301_lig1377

> <s_m_subgroup_title>
dock_pv

> <s_m_subgroupid>
dock_pv

> <b_m_subgroup_collapsed>
1

$$$$
CHEMBL301_lig1354
                    3D
 Schrodinger Suite 2021-1.
 48 50  0  0  1  0            999 V2000
   -0.9434   29.0830   12.9764 C   0  0  0  0  0  0
   -0.8045   27.5518   13.0436 C   0  0  1  0  0  0
   -1.9419   27.0521   13.7188 O   0  0  0  0  0  0
   -0.7026   26.8510   11.6670 C   0  0  0  0  0  0
    0.5121   27.1519   10.8978 N   0  0  0  0  0  0
    0.6042   28.2321   10.0108 C   0  0  0  0  0  0
    1.8013   28.3685    9.3790 N   0  0  0  0  0  0
    1.9797   29.4519    8.5726 C   0  0  0  0  0  0
    3.2120   29.6818    7.9378 N   0  0  0  0  0  0
    4.4038   28.8747    8.1872 C   0  0  0  0  0  0
    4.4568   27.6734    7.2585 C   0  0  0  0  0  0
    4.4753   27.8335    5.8666 C   0  0  0  0  0  0
    4.4966   26.7051    5.0438 C   0  0  0  0  0  0
    4.5088   25.4441    5.6436 C   0  0  0  0  0  0
    4.5035   25.2659    6.9901 N   0  0  0  0  0  0
    4.4783   26.3738    7.7753 C   0  0  0  0  0  0
    0.9421   30.3894    8.4244 C   0  0  0  0  0  0
    0.8581   31.5850    7.7588 N   0  0  0  0  0  0
   -0.2709   32.1012    8.1763 C   0  0  0  0  0  0
   -0.9880   31.2933    9.0405 N   0  0  0  0  0  0
   -2.2455   31.5966    9.7326 C   0  0  0  0  0  0
   -3.4392   31.2431    8.8347 C   0  0  0  0  0  0
   -2.2746   33.0546   10.2289 C   0  0  0  0  0  0
   -0.2313   30.1458    9.1647 C   0  0  0  0  0  0
   -0.4631   29.0695    9.9105 N   0  0  0  0  0  0
   -0.0349   29.5458   12.5904 H   0  0  0  0  0  0
   -1.7690   29.3759   12.3270 H   0  0  0  0  0  0
   -1.1424   29.5245   13.9509 H   0  0  0  0  0  0
    0.0618   27.2858   13.6504 H   0  0  0  0  0  0
   -2.6059   27.7565   13.7767 H   0  0  0  0  0  0
   -1.5855   27.0899   11.0718 H   0  0  0  0  0  0
   -0.7348   25.7689   11.7988 H   0  0  0  0  0  0
    1.3757   26.6861   11.1341 H   0  0  0  0  0  0
    3.3267   30.5387    7.4126 H   0  0  0  0  0  0
    5.2773   29.5004    8.0005 H   0  0  0  0  0  0
    4.4546   28.5617    9.2319 H   0  0  0  0  0  0
    4.4666   28.8226    5.4299 H   0  0  0  0  0  0
    4.5065   26.8048    3.9682 H   0  0  0  0  0  0
    4.5252   24.5483    5.0397 H   0  0  0  0  0  0
    4.4574   26.2023    8.8423 H   0  0  0  0  0  0
   -0.6468   33.0780    7.9049 H   0  0  0  0  0  0
   -2.2898   30.9615   10.6200 H   0  0  0  0  0  0
   -4.3771   31.4481    9.3508 H   0  0  0  0  0  0
   -3.4422   30.1866    8.5778 H   0  0  0  0  0  0
   -3.4322   31.8146    7.9057 H   0  0  0  0  0  0
   -3.1706   33.2479   10.8194 H   0  0  0  0  0  0
   -1.4170   33.2813   10.8622 H   0  0  0  0  0  0
   -2.2668   33.7646    9.4055 H   0  0  0  0  0  0
  1  2  1  0  0  0
  1 26  1  0  0  0
  1 27  1  0  0  0
  1 28  1  0  0  0
  2  3  1  0  0  0
  2  4  1  0  0  0
  2 29  1  0  0  0
  3 30  1  0  0  0
  4  5  1  0  0  0
  4 31  1  0  0  0
  4 32  1  0  0  0
  5  6  1  0  0  0
  5 33  1  0  0  0
  6  7  2  0  0  0
  6 25  1  0  0  0
  7  8  1  0  0  0
  8  9  1  0  0  0
  8 17  2  0  0  0
  9 10  1  0  0  0
  9 34  1  0  0  0
 10 11  1  0  0  0
 10 35  1  0  0  0
 10 36  1  0  0  0
 11 12  2  0  0  0
 11 16  1  0  0  0
 12 13  1  0  0  0
 12 37  1  0  0  0
 13 14  2  0  0  0
 13 38  1  0  0  0
 14 15  1  0  0  0
 14 39  1  0  0  0
 15 16  2  0  0  0
 16 40  1  0  0  0
 17 18  1  0  0  0
 17 24  1  0  0  0
 18 19  2  0  0  0
 19 20  1  0  0  0
 19 41  1  0  0  0
 20 21  1  0  0  0
 20 24  1  0  0  0
 21 22  1  0  0  0
 21 23  1  0  0  0
 21 42  1  0  0  0
 22 43  1  0  0  0
 22 44  1  0  0  0
 22 45  1  0  0  0
 23 46  1  0  0  0
 23 47  1  0  0  0
 23 48  1  0  0  0
 24 25  2  0  0  0
M  END
> <s_m_entry_id>
32813

> <s_m_entry_name>
dock_pv.214

> <s_m_Source_Path>
/home/csk/Desktop/cluster/DUD-E-result/cdk2

> <s_m_Source_File>
dock_pv.maegz

> <i_m_Source_File_Index>
214

> <chembl_id>
CHEMBL3655775

> <chembl_pref_name>
None

> <i_lp_mmshare_version>
53161

> <i_f3d_flags>
0

> <r_lp_tautomer_probability>
1

> <s_lp_Force_Field>
OPLS_2005

> <r_lp_Energy>
20.538574

> <b_lp_Chiralities_Consistent>
1

> <s_lp_Variant>
CHEMBL301_lig1354-1

> <s_i_glide_gridfile>
glide-grid_1h00

> <i_i_glide_lignum>
1805

> <i_i_glide_rotatable_bonds>
8

> <r_i_docking_score>
-7.73713149865407

> <r_i_glide_ligand_efficiency>
-0.309485259946163

> <r_i_glide_ligand_efficiency_sa>
-0.904940388827036

> <r_i_glide_ligand_efficiency_ln>
-1.83393202830182

> <r_i_glide_gscore>
-7.73713149865407

> <r_i_glide_lipo>
-2.93452124443601

> <r_i_glide_hbond>
-0.326300993703514

> <r_i_glide_metal>
0

> <r_i_glide_rewards>
-2.53683000454861

> <r_i_glide_evdw>
-40.7344017028809

> <r_i_glide_ecoul>
-5.85460901260376

> <r_i_glide_erotb>
0.975432181068671

> <r_i_glide_esite>
0

> <r_i_glide_emodel>
-66.1254893846337

> <r_i_glide_energy>
-46.5890107154846

> <r_i_glide_einternal>
7.28630971908569

> <i_i_glide_confnum>
102

> <i_i_glide_posenum>
173

> <r_i_glide_eff_state_penalty>
0

> <s_user_duplicate_titles>
CHEMBL301_lig1354

> <s_m_subgroup_title>
dock_pv

> <s_m_subgroupid>
dock_pv

> <b_m_subgroup_collapsed>
1

$$$$
CHEMBL301_lig1324
                    3D
 Schrodinger Suite 2021-1.
 43 44  0  0  1  0            999 V2000
   -1.3775   25.8385   10.9760 C   0  0  0  0  0  0
   -0.2762   26.6922   11.6349 C   0  0  0  0  0  0
   -0.6923   27.1378   13.0493 C   0  0  0  0  0  0
    0.8570   25.8556   11.7791 O   0  0  0  0  0  0
    0.1518   27.8820   10.7442 C   0  0  0  0  0  0
   -1.0749   29.2025   10.4412 S   0  0  0  0  0  0
   -0.3417   30.3141    9.2696 C   0  0  0  0  0  0
    0.7281   29.8519    8.5757 N   0  0  0  0  0  0
    1.3133   30.6937    7.6888 C   0  0  0  0  0  0
    2.4077   30.2487    6.9404 N   0  0  0  0  0  0
    3.2583   29.1416    7.0798 C   0  0  0  0  0  0
    3.5545   28.5866    8.3239 C   0  0  0  0  0  0
    4.4884   27.5619    8.4143 C   0  0  0  0  0  0
    5.1422   27.0924    7.2754 C   0  0  0  0  0  0
    4.8330   27.6299    6.0264 C   0  0  0  0  0  0
    3.8935   28.6521    5.9360 C   0  0  0  0  0  0
    6.3754   25.8035    7.4537 S   0  0  2  0  0  0
    5.5250   24.5379    7.3753 N   0  0  0  0  0  0
    7.2582   26.1391    8.5759 O   0  0  0  0  0  0
    7.3716   25.6994    5.8616 C   0  0  0  0  0  0
    0.9163   31.9688    7.4475 N   0  0  0  0  0  0
   -0.1372   32.4239    8.1761 C   0  0  0  0  0  0
   -0.8186   31.6229    9.0970 C   0  0  0  0  0  0
   -2.3015   32.3323   10.0655 Br  0  0  0  0  0  0
   -2.3118   26.3930   10.8927 H   0  0  0  0  0  0
   -1.5905   24.9405   11.5565 H   0  0  0  0  0  0
   -1.0932   25.5161    9.9730 H   0  0  0  0  0  0
   -1.6109   27.7268   13.0261 H   0  0  0  0  0  0
   -0.8717   26.2838   13.7027 H   0  0  0  0  0  0
    0.0734   27.7559   13.5169 H   0  0  0  0  0  0
    1.5387   26.3559   12.2438 H   0  0  0  0  0  0
    1.0311   28.3665   11.1731 H   0  0  0  0  0  0
    0.4723   27.4942    9.7762 H   0  0  0  0  0  0
    2.7823   30.9490    6.3166 H   0  0  0  0  0  0
    3.0912   28.9591    9.2246 H   0  0  0  0  0  0
    4.7134   27.1414    9.3760 H   0  0  0  0  0  0
    5.3260   27.2861    5.1302 H   0  0  0  0  0  0
    3.6842   29.0926    4.9760 H   0  0  0  0  0  0
    6.0834   23.7127    7.2253 H   0  0  0  0  0  0
    6.7111   25.4648    5.0274 H   0  0  0  0  0  0
    7.8706   26.6520    5.6954 H   0  0  0  0  0  0
    8.1192   24.9159    5.9726 H   0  0  0  0  0  0
   -0.4378   33.4475    7.9960 H   0  0  0  0  0  0
  1  2  1  0  0  0
  1 25  1  0  0  0
  1 26  1  0  0  0
  1 27  1  0  0  0
  2  3  1  0  0  0
  2  4  1  0  0  0
  2  5  1  0  0  0
  3 28  1  0  0  0
  3 29  1  0  0  0
  3 30  1  0  0  0
  4 31  1  0  0  0
  5  6  1  0  0  0
  5 32  1  0  0  0
  5 33  1  0  0  0
  6  7  1  0  0  0
  7  8  2  0  0  0
  7 23  1  0  0  0
  8  9  1  0  0  0
  9 10  1  0  0  0
  9 21  2  0  0  0
 10 11  1  0  0  0
 10 34  1  0  0  0
 11 12  2  0  0  0
 11 16  1  0  0  0
 12 13  1  0  0  0
 12 35  1  0  0  0
 13 14  2  0  0  0
 13 36  1  0  0  0
 14 15  1  0  0  0
 14 17  1  0  0  0
 15 16  2  0  0  0
 15 37  1  0  0  0
 16 38  1  0  0  0
 17 18  2  0  0  0
 17 19  2  0  0  0
 17 20  1  0  0  0
 18 39  1  0  0  0
 20 40  1  0  0  0
 20 41  1  0  0  0
 20 42  1  0  0  0
 21 22  1  0  0  0
 22 23  2  0  0  0
 22 43  1  0  0  0
 23 24  1  0  0  0
M  END
> <s_m_entry_id>
32814

> <s_m_entry_name>
dock_pv.215

> <s_m_Source_Path>
/home/csk/Desktop/cluster/DUD-E-result/cdk2

> <s_m_Source_File>
dock_pv.maegz

> <i_m_Source_File_Index>
215

> <chembl_id>
CHEMBL3648128

> <chembl_pref_name>
None

> <i_lp_mmshare_version>
53161

> <i_f3d_flags>
0

> <r_lp_tautomer_probability>
0.999999987636

> <s_lp_Force_Field>
OPLS_2005

> <r_lp_Energy>
2.426322

> <b_lp_Chiralities_Consistent>
1

> <s_lp_Variant>
CHEMBL301_lig1324-1

> <s_i_glide_gridfile>
glide-grid_1h00

> <i_i_glide_lignum>
1744

> <i_i_glide_rotatable_bonds>
7

> <r_i_docking_score>
-7.72807729973066

> <r_i_glide_ligand_efficiency>
-0.322003220822111

> <r_i_glide_ligand_efficiency_sa>
-0.928818012752637

> <r_i_glide_ligand_efficiency_ln>
-1.84968351618559

> <r_i_glide_gscore>
-7.72807729973066

> <r_i_glide_lipo>
-2.85299905741871

> <r_i_glide_hbond>
-0.574970898022663

> <r_i_glide_metal>
0

> <r_i_glide_rewards>
-1.49045062696262

> <r_i_glide_evdw>
-41.2741394042969

> <r_i_glide_ecoul>
-8.53580665588379

> <r_i_glide_erotb>
0.534421251270742

> <r_i_glide_esite>
0

> <r_i_glide_emodel>
-70.6996099786114

> <r_i_glide_energy>
-49.8099460601807

> <r_i_glide_einternal>
4.29132032394409

> <i_i_glide_confnum>
23

> <i_i_glide_posenum>
173

> <r_i_glide_eff_state_penalty>
0

> <s_user_duplicate_titles>
CHEMBL301_lig1324

> <s_m_subgroup_title>
dock_pv

> <s_m_subgroupid>
dock_pv

> <b_m_subgroup_collapsed>
1

$$$$
CHEMBL301_lig826
                    3D
 Schrodinger Suite 2021-1.
 52 54  0  0  1  0            999 V2000
    0.2355   28.3601   11.6283 C   0  0  0  0  0  0
   -0.1068   29.6305   11.5835 N   0  0  0  0  0  0
   -1.3445   29.5982   11.1520 C   0  0  0  0  0  0
   -1.8853   28.3472   11.0991 O   0  0  0  0  0  0
   -0.8583   27.5279   11.4515 C   0  0  0  0  0  0
   -2.1772   30.7920   10.7156 C   0  0  0  0  0  0
   -2.0342   31.3957    8.9810 S   0  0  0  0  0  0
   -0.3401   31.2428    8.4781 C   0  0  0  0  0  0
    0.4580   32.1509    7.7761 C   0  0  0  0  0  0
    1.6279   31.7259    7.3166 N   0  0  0  0  0  0
    1.8835   30.4975    7.6901 C   0  0  0  0  0  0
    0.5752   29.7881    8.5762 S   0  0  0  0  0  0
    3.0871   29.8521    7.3761 N   0  0  0  0  0  0
    3.5769   28.6815    7.8593 C   0  0  0  0  0  0
    4.9331   28.1707    7.2672 C   0  0  1  0  0  0
    3.0330   28.0596    8.7734 O   0  0  0  0  0  0
   -1.0928   26.0182   11.5746 C   0  0  0  0  0  0
   -1.6419   25.4087   10.2641 C   0  0  0  0  0  0
   -2.0906   25.7565   12.7228 C   0  0  0  0  0  0
    0.2468   25.3224   11.9126 C   0  0  0  0  0  0
    5.5993   27.1301    8.2021 C   0  0  0  0  0  0
    4.9704   25.7364    8.0972 C   0  0  0  0  0  0
    4.9674   25.2368    6.6467 C   0  0  0  0  0  0
    4.3467   26.1930    5.7331 N   0  0  1  0  0  0
    4.8397   27.5715    5.8166 C   0  0  1  0  0  0
    4.1512   28.4618    4.7809 C   0  0  0  0  0  0
    1.2569   28.0519   11.7763 H   0  0  0  0  0  0
   -3.2275   30.5404   10.8496 H   0  0  0  0  0  0
   -2.0154   31.6396   11.3750 H   0  0  0  0  0  0
    0.1450   33.1527    7.5346 H   0  0  0  0  0  0
    3.7050   30.3791    6.7624 H   0  0  0  0  0  0
    5.5636   29.0599    7.2631 H   0  0  0  0  0  0
   -1.5682   24.3156   10.2602 H   0  0  0  0  0  0
   -1.0959   25.7707    9.3910 H   0  0  0  0  0  0
   -2.6944   25.6550   10.1281 H   0  0  0  0  0  0
   -1.7322   26.1741   13.6646 H   0  0  0  0  0  0
   -3.0580   26.2230   12.5227 H   0  0  0  0  0  0
   -2.2658   24.6904   12.8737 H   0  0  0  0  0  0
    0.6835   25.7229   12.8290 H   0  0  0  0  0  0
    0.1250   24.2481   12.0557 H   0  0  0  0  0  0
    0.9846   25.4659   11.1211 H   0  0  0  0  0  0
    6.6545   27.0526    7.9492 H   0  0  0  0  0  0
    5.6661   27.5076    9.2216 H   0  0  0  0  0  0
    3.9659   25.6941    8.5181 H   0  0  0  0  0  0
    5.5590   25.0501    8.6990 H   0  0  0  0  0  0
    4.4136   24.2993    6.5820 H   0  0  0  0  0  0
    5.9871   25.0343    6.3117 H   0  0  0  0  0  0
    4.4394   25.8524    4.7852 H   0  0  0  0  0  0
    5.8648   27.4950    5.4514 H   0  0  0  0  0  0
    4.6059   29.4512    4.7665 H   0  0  0  0  0  0
    4.2417   28.0397    3.7796 H   0  0  0  0  0  0
    3.0882   28.5701    4.9869 H   0  0  0  0  0  0
  1  5  2  0  0  0
  1  2  1  0  0  0
  1 27  1  0  0  0
  2  3  2  0  0  0
  3  6  1  0  0  0
  3  4  1  0  0  0
  4  5  1  0  0  0
  5 17  1  0  0  0
  6  7  1  0  0  0
  6 28  1  0  0  0
  6 29  1  0  0  0
  7  8  1  0  0  0
  8  9  2  0  0  0
  8 12  1  0  0  0
  9 10  1  0  0  0
  9 30  1  0  0  0
 10 11  2  0  0  0
 11 13  1  0  0  0
 11 12  1  0  0  0
 13 14  1  0  0  0
 13 31  1  0  0  0
 14 15  1  0  0  0
 14 16  2  0  0  0
 15 21  1  0  0  0
 15 25  1  0  0  0
 15 32  1  0  0  0
 17 18  1  0  0  0
 17 19  1  0  0  0
 17 20  1  0  0  0
 18 33  1  0  0  0
 18 34  1  0  0  0
 18 35  1  0  0  0
 19 36  1  0  0  0
 19 37  1  0  0  0
 19 38  1  0  0  0
 20 39  1  0  0  0
 20 40  1  0  0  0
 20 41  1  0  0  0
 21 22  1  0  0  0
 21 42  1  0  0  0
 21 43  1  0  0  0
 22 23  1  0  0  0
 22 44  1  0  0  0
 22 45  1  0  0  0
 23 24  1  0  0  0
 23 46  1  0  0  0
 23 47  1  0  0  0
 24 25  1  0  0  0
 24 48  1  0  0  0
 25 26  1  0  0  0
 25 49  1  0  0  0
 26 50  1  0  0  0
 26 51  1  0  0  0
 26 52  1  0  0  0
M  END
> <s_m_entry_id>
32815

> <s_m_entry_name>
dock_pv.216

> <s_m_Source_Path>
/home/csk/Desktop/cluster/DUD-E-result/cdk2

> <s_m_Source_File>
dock_pv.maegz

> <i_m_Source_File_Index>
216

> <chembl_id>
CHEMBL508506

> <chembl_pref_name>
None

> <i_lp_mmshare_version>
53161

> <i_f3d_flags>
0

> <r_lp_tautomer_probability>
0.999000488399163

> <s_lp_Force_Field>
OPLS_2005

> <r_lp_Energy>
11.473976

> <b_lp_Chiralities_Consistent>
1

> <s_lp_Variant>
CHEMBL301_lig826-4

> <s_i_glide_gridfile>
glide-grid_1h00

> <i_i_glide_lignum>
1174

> <i_i_glide_rotatable_bonds>
7

> <r_i_docking_score>
-7.72333288477267

> <r_i_glide_ligand_efficiency>
-0.297051264798949

> <r_i_glide_ligand_efficiency_sa>
-0.8800132031266

> <r_i_glide_ligand_efficiency_ln>
-1.81379938566665

> <r_i_glide_gscore>
-7.72333288477267

> <r_i_glide_lipo>
-2.85318957593981

> <r_i_glide_hbond>
-0.334199669422586

> <r_i_glide_metal>
0

> <r_i_glide_rewards>
-2.35055364871811

> <r_i_glide_evdw>
-36.9510345458984

> <r_i_glide_ecoul>
-7.27453231811523

> <r_i_glide_erotb>
0.753341584320047

> <r_i_glide_esite>
0

> <r_i_glide_emodel>
-59.3757945126844

> <r_i_glide_energy>
-44.2255668640137

> <r_i_glide_einternal>
4.76337242126465

> <i_i_glide_confnum>
21

> <i_i_glide_posenum>
360

> <r_i_glide_eff_state_penalty>
0

> <s_user_duplicate_titles>
CHEMBL301_lig826

> <s_m_subgroup_title>
dock_pv

> <s_m_subgroupid>
dock_pv

> <b_m_subgroup_collapsed>
1

$$$$
CHEMBL301_lig664
                    3D
 Schrodinger Suite 2021-1.
 30 32  0  0  1  0            999 V2000
   -0.3421   31.7747    8.5031 C   0  0  0  0  0  0
   -1.5884   32.1211    9.2883 C   0  0  0  0  0  0
    0.3390   30.5918    8.2835 C   0  0  0  0  0  0
    0.3795   32.6875    7.7760 N   0  0  0  0  0  0
   -2.7685   31.1778    9.2703 C   0  0  0  0  0  0
   -1.9416   31.3330   10.5267 C   0  0  0  0  0  0
    1.4417   30.9072    7.4734 C   0  0  0  0  0  0
    1.4178   32.1670    7.1118 N   0  0  0  0  0  0
    2.4581   30.0790    7.0536 N   0  0  0  0  0  0
    2.9959   29.0946    7.8092 C   0  0  0  0  0  0
    4.0580   28.2437    7.1470 C   0  0  0  0  0  0
    2.6611   28.8623    8.9747 O   0  0  0  0  0  0
    4.1499   28.1456    5.7482 C   0  0  0  0  0  0
    4.9020   27.4525    7.9395 C   0  0  0  0  0  0
    5.0402   27.2503    5.1622 C   0  0  0  0  0  0
    5.7984   26.5650    7.3535 C   0  0  0  0  0  0
    5.8567   26.4606    5.9670 C   0  0  0  0  0  0
   -1.8190   33.1874    9.3120 H   0  0  0  0  0  0
    0.0972   29.6237    8.6964 H   0  0  0  0  0  0
   -3.7758   31.5918    9.2539 H   0  0  0  0  0  0
   -2.6951   30.2522    8.7013 H   0  0  0  0  0  0
   -1.2885   30.5177   10.8400 H   0  0  0  0  0  0
   -2.3744   31.8614   11.3759 H   0  0  0  0  0  0
    0.1369   33.6671    7.6856 H   0  0  0  0  0  0
    3.0410   30.4304    6.3055 H   0  0  0  0  0  0
    3.5100   28.7246    5.0991 H   0  0  0  0  0  0
    4.8518   27.4957    9.0188 H   0  0  0  0  0  0
    5.0983   27.1655    4.0868 H   0  0  0  0  0  0
    6.4351   25.9527    7.9751 H   0  0  0  0  0  0
    6.5498   25.7701    5.5095 H   0  0  0  0  0  0
  1  4  1  0  0  0
  1  2  1  0  0  0
  1  3  2  0  0  0
  2  5  1  0  0  0
  2  6  1  0  0  0
  2 18  1  0  0  0
  3  7  1  0  0  0
  3 19  1  0  0  0
  4  8  1  0  0  0
  4 24  1  0  0  0
  5  6  1  0  0  0
  5 20  1  0  0  0
  5 21  1  0  0  0
  6 22  1  0  0  0
  6 23  1  0  0  0
  7  9  1  0  0  0
  7  8  2  0  0  0
  9 10  1  0  0  0
  9 25  1  0  0  0
 10 11  1  0  0  0
 10 12  2  0  0  0
 11 13  2  0  0  0
 11 14  1  0  0  0
 13 15  1  0  0  0
 13 26  1  0  0  0
 14 16  2  0  0  0
 14 27  1  0  0  0
 15 17  2  0  0  0
 15 28  1  0  0  0
 16 17  1  0  0  0
 16 29  1  0  0  0
 17 30  1  0  0  0
M  END
> <s_m_entry_id>
32816

> <s_m_entry_name>
dock_pv.217

> <s_m_Source_Path>
/home/csk/Desktop/cluster/DUD-E-result/cdk2

> <s_m_Source_File>
dock_pv.maegz

> <i_m_Source_File_Index>
217

> <chembl_id>
CHEMBL324942

> <chembl_pref_name>
None

> <i_lp_mmshare_version>
53161

> <i_f3d_flags>
0

> <r_lp_tautomer_probability>
0.5

> <s_lp_Force_Field>
OPLS_2005

> <r_lp_Energy>
16.398439

> <b_lp_Chiralities_Consistent>
1

> <s_lp_Variant>
CHEMBL301_lig664-2

> <s_i_glide_gridfile>
glide-grid_1h00

> <i_i_glide_lignum>
913

> <i_i_glide_rotatable_bonds>
4

> <r_i_docking_score>
-7.72317559109528

> <r_i_glide_ligand_efficiency>
-0.454304446535017

> <r_i_glide_ligand_efficiency_sa>
-1.16814465882647

> <r_i_glide_ligand_efficiency_ln>
-2.01480452505229

> <r_i_glide_gscore>
-7.72317559109528

> <r_i_glide_lipo>
-2.39859283454344

> <r_i_glide_hbond>
-0.700112305923442

> <r_i_glide_metal>
0

> <r_i_glide_rewards>
-3.34775042017536

> <r_i_glide_evdw>
-30.0990123748779

> <r_i_glide_ecoul>
-4.62755537033081

> <r_i_glide_erotb>
0.922363893840476

> <r_i_glide_esite>
0

> <r_i_glide_emodel>
-47.6213238554863

> <r_i_glide_energy>
-34.7265677452087

> <r_i_glide_einternal>
3.3654203414917

> <i_i_glide_confnum>
4

> <i_i_glide_posenum>
51

> <r_i_glide_eff_state_penalty>
0

> <s_user_duplicate_titles>
CHEMBL301_lig664,186670

> <s_m_subgroup_title>
dock_pv

> <s_m_subgroupid>
dock_pv

> <b_m_subgroup_collapsed>
1

$$$$
CHEMBL301_lig201
                    3D
 Schrodinger Suite 2021-1.
 38 41  0  0  1  0            999 V2000
    4.3856   28.6519    5.5340 N   0  0  0  0  0  0
    4.5453   28.1788    6.8985 C   0  0  0  0  0  0
    4.2398   29.2885    7.9207 C   0  0  0  0  0  0
    2.8907   29.8519    7.8447 N   0  0  0  0  0  0
    1.8212   29.4465    8.6612 C   0  0  0  0  0  0
    1.8729   28.2278    9.3760 C   0  0  0  0  0  0
    0.8173   27.7697   10.1876 C   0  0  0  0  0  0
    0.8960   26.4013   10.7845 C   0  0  0  0  0  0
   -0.0848   25.4248   10.9570 C   0  0  0  0  0  0
    0.4865   24.3071   11.5727 C   0  0  0  0  0  0
    1.8235   24.5951   11.7695 C   0  0  0  0  0  0
    2.0582   25.8520   11.2748 N   0  0  0  0  0  0
   -0.2844   28.6141   10.3741 C   0  0  0  0  0  0
   -1.5209   28.5621   11.2291 C   0  0  0  0  0  0
   -1.8976   27.6892   12.0061 O   0  0  0  0  0  0
   -2.1502   29.7336   10.9762 N   0  0  0  0  0  0
   -1.4608   30.4985   10.0426 C   0  0  0  0  0  0
   -1.6756   31.7593    9.4939 C   0  0  0  0  0  0
   -0.7437   32.2636    8.5760 C   0  0  0  0  0  0
    0.3864   31.5244    8.1760 C   0  0  0  0  0  0
    1.2555   32.0702    7.2909 F   0  0  0  0  0  0
    0.6472   30.2520    8.7825 C   0  0  0  0  0  0
   -0.3329   29.7987    9.6848 C   0  0  0  0  0  0
    4.6814   29.6227    5.4882 H   0  0  0  0  0  0
    5.0014   28.1344    4.9224 H   0  0  0  0  0  0
    5.5771   27.8501    7.0308 H   0  0  0  0  0  0
    3.9164   27.3054    7.0652 H   0  0  0  0  0  0
    4.9466   30.1074    7.7793 H   0  0  0  0  0  0
    4.4429   28.9251    8.9285 H   0  0  0  0  0  0
    2.7175   30.5480    7.1319 H   0  0  0  0  0  0
    2.7276   27.5816    9.2493 H   0  0  0  0  0  0
   -1.1223   25.5220   10.6713 H   0  0  0  0  0  0
   -0.0240   23.3962   11.8499 H   0  0  0  0  0  0
    2.6198   24.0303   12.2257 H   0  0  0  0  0  0
    2.9524   26.3257   11.3029 H   0  0  0  0  0  0
   -2.9665   30.0391   11.4957 H   0  0  0  0  0  0
   -2.5361   32.3521    9.7698 H   0  0  0  0  0  0
   -0.8991   33.2461    8.1547 H   0  0  0  0  0  0
  1  2  1  0  0  0
  1 24  1  0  0  0
  1 25  1  0  0  0
  2  3  1  0  0  0
  2 26  1  0  0  0
  2 27  1  0  0  0
  3  4  1  0  0  0
  3 28  1  0  0  0
  3 29  1  0  0  0
  4  5  1  0  0  0
  4 30  1  0  0  0
  5  6  2  0  0  0
  5 22  1  0  0  0
  6  7  1  0  0  0
  6 31  1  0  0  0
  7  8  1  0  0  0
  7 13  2  0  0  0
  8  9  2  0  0  0
  8 12  1  0  0  0
  9 10  1  0  0  0
  9 32  1  0  0  0
 10 11  2  0  0  0
 10 33  1  0  0  0
 11 12  1  0  0  0
 11 34  1  0  0  0
 12 35  1  0  0  0
 13 14  1  0  0  0
 13 23  1  0  0  0
 14 15  2  0  0  0
 14 16  1  0  0  0
 16 17  1  0  0  0
 16 36  1  0  0  0
 17 18  2  0  0  0
 17 23  1  0  0  0
 18 19  1  0  0  0
 18 37  1  0  0  0
 19 20  2  0  0  0
 19 38  1  0  0  0
 20 21  1  0  0  0
 20 22  1  0  0  0
 22 23  2  0  0  0
M  END
> <s_m_entry_id>
32817

> <s_m_entry_name>
dock_pv.218

> <s_m_Source_Path>
/home/csk/Desktop/cluster/DUD-E-result/cdk2

> <s_m_Source_File>
dock_pv.maegz

> <i_m_Source_File_Index>
218

> <chembl_id>
CHEMBL82767

> <chembl_pref_name>
None

> <i_lp_mmshare_version>
53161

> <i_f3d_flags>
0

> <r_lp_tautomer_probability>
1

> <s_lp_Force_Field>
OPLS_2005

> <r_lp_Energy>
60.494723

> <b_lp_Chiralities_Consistent>
1

> <s_lp_Variant>
CHEMBL301_lig201-1

> <s_i_glide_gridfile>
glide-grid_1h00

> <i_i_glide_lignum>
343

> <i_i_glide_rotatable_bonds>
4

> <r_i_docking_score>
-7.72309176750406

> <r_i_glide_ligand_efficiency>
-0.335786598587133

> <r_i_glide_ligand_efficiency_sa>
-0.954932419000559

> <r_i_glide_ligand_efficiency_ln>
-1.86751361850687

> <r_i_glide_gscore>
-7.72309176750406

> <r_i_glide_lipo>
-3.0815112446874

> <r_i_glide_hbond>
-0.439059521719286

> <r_i_glide_metal>
0

> <r_i_glide_rewards>
-2.0570661311437

> <r_i_glide_evdw>
-35.747875213623

> <r_i_glide_ecoul>
-5.56619262695312

> <r_i_glide_erotb>
0.577219660098909

> <r_i_glide_esite>
-0.100351875328468

> <r_i_glide_emodel>
-59.1253827682509

> <r_i_glide_energy>
-41.3140678405762

> <r_i_glide_einternal>
2.8704469203949

> <i_i_glide_confnum>
13

> <i_i_glide_posenum>
368

> <r_i_glide_eff_state_penalty>
0

> <s_user_duplicate_titles>
CHEMBL301_lig201,131428

> <s_m_subgroup_title>
dock_pv

> <s_m_subgroupid>
dock_pv

> <b_m_subgroup_collapsed>
1

$$$$
CHEMBL301_lig1360
                    3D
 Schrodinger Suite 2021-1.
 57 59  0  0  1  0            999 V2000
   -3.5994   26.8655   12.1772 C   0  0  0  0  0  0
   -2.4434   26.5434   13.1389 C   0  0  0  0  0  0
   -1.0557   26.9849   12.6280 C   0  0  1  0  0  0
   -0.1017   26.6514   13.6202 O   0  0  0  0  0  0
   -0.6489   26.4309   11.2265 C   0  0  2  0  0  0
   -0.6939   24.8873   11.0740 C   0  0  0  0  0  0
    0.3606   24.0871   11.8607 C   0  0  0  0  0  0
    0.6215   26.9786   10.7416 N   0  0  0  0  0  0
    0.6982   28.1816   10.0318 C   0  0  0  0  0  0
    1.8716   28.3591    9.3759 N   0  0  0  0  0  0
    1.9996   29.4523    8.5761 C   0  0  0  0  0  0
    3.2033   29.7032    7.8962 N   0  0  0  0  0  0
    4.4177   28.9240    8.1245 C   0  0  0  0  0  0
    4.4574   27.6990    7.2280 C   0  0  0  0  0  0
    4.4785   27.8262    5.8335 C   0  0  0  0  0  0
    4.5065   26.6792    5.0377 C   0  0  0  0  0  0
    4.5173   25.4324    5.6667 C   0  0  0  0  0  0
    4.5067   25.2860    7.0171 N   0  0  0  0  0  0
    4.4800   26.4121    7.7761 C   0  0  0  0  0  0
    0.9361   30.3661    8.4679 C   0  0  0  0  0  0
    0.7997   31.5427    7.7760 N   0  0  0  0  0  0
   -0.3397   32.0265    8.2083 C   0  0  0  0  0  0
   -1.0216   31.2133    9.0979 N   0  0  0  0  0  0
   -2.3514   31.4505    9.6861 C   0  0  0  0  0  0
   -3.4217   31.2363    8.6098 C   0  0  0  0  0  0
   -2.4904   32.8532   10.3141 C   0  0  0  0  0  0
   -0.2037   30.1060    9.2629 C   0  0  0  0  0  0
   -0.3753   29.0238   10.0281 N   0  0  0  0  0  0
   -4.5612   26.6558   12.6443 H   0  0  0  0  0  0
   -3.5936   27.9155   11.8813 H   0  0  0  0  0  0
   -3.5398   26.2563   11.2763 H   0  0  0  0  0  0
   -2.4454   25.4754   13.3602 H   0  0  0  0  0  0
   -2.6376   27.0447   14.0887 H   0  0  0  0  0  0
   -1.0533   28.0750   12.5779 H   0  0  0  0  0  0
    0.7504   27.0147   13.3498 H   0  0  0  0  0  0
   -1.4174   26.7865   10.5379 H   0  0  0  0  0  0
   -1.6858   24.5194   11.3369 H   0  0  0  0  0  0
   -0.5781   24.6527   10.0154 H   0  0  0  0  0  0
    0.3173   23.0301   11.5974 H   0  0  0  0  0  0
    1.3718   24.4356   11.6504 H   0  0  0  0  0  0
    0.1960   24.1563   12.9359 H   0  0  0  0  0  0
    1.4167   26.3632   10.6683 H   0  0  0  0  0  0
    3.2884   30.5605    7.3663 H   0  0  0  0  0  0
    5.2732   29.5588    7.8904 H   0  0  0  0  0  0
    4.5116   28.6408    9.1745 H   0  0  0  0  0  0
    4.4714   28.8053    5.3752 H   0  0  0  0  0  0
    4.5215   26.7534    3.9603 H   0  0  0  0  0  0
    4.5363   24.5235    5.0826 H   0  0  0  0  0  0
    4.4579   26.2656    8.8470 H   0  0  0  0  0  0
   -0.7676   32.9694    7.9008 H   0  0  0  0  0  0
   -2.5003   30.7127   10.4785 H   0  0  0  0  0  0
   -4.4218   31.3220    9.0331 H   0  0  0  0  0  0
   -3.3447   30.2520    8.1769 H   0  0  0  0  0  0
   -3.3291   31.9516    7.7933 H   0  0  0  0  0  0
   -3.5307   33.0511   10.5779 H   0  0  0  0  0  0
   -1.9418   32.9505   11.2430 H   0  0  0  0  0  0
   -2.1711   33.6505    9.6445 H   0  0  0  0  0  0
  1  2  1  0  0  0
  1 29  1  0  0  0
  1 30  1  0  0  0
  1 31  1  0  0  0
  2  3  1  0  0  0
  2 32  1  0  0  0
  2 33  1  0  0  0
  3  4  1  0  0  0
  3  5  1  0  0  0
  3 34  1  0  0  0
  4 35  1  0  0  0
  5  6  1  0  0  0
  5  8  1  0  0  0
  5 36  1  0  0  0
  6  7  1  0  0  0
  6 37  1  0  0  0
  6 38  1  0  0  0
  7 39  1  0  0  0
  7 40  1  0  0  0
  7 41  1  0  0  0
  8  9  1  0  0  0
  8 42  1  0  0  0
  9 10  2  0  0  0
  9 28  1  0  0  0
 10 11  1  0  0  0
 11 12  1  0  0  0
 11 20  2  0  0  0
 12 13  1  0  0  0
 12 43  1  0  0  0
 13 14  1  0  0  0
 13 44  1  0  0  0
 13 45  1  0  0  0
 14 15  2  0  0  0
 14 19  1  0  0  0
 15 16  1  0  0  0
 15 46  1  0  0  0
 16 17  2  0  0  0
 16 47  1  0  0  0
 17 18  1  0  0  0
 17 48  1  0  0  0
 18 19  2  0  0  0
 19 49  1  0  0  0
 20 21  1  0  0  0
 20 27  1  0  0  0
 21 22  2  0  0  0
 22 23  1  0  0  0
 22 50  1  0  0  0
 23 24  1  0  0  0
 23 27  1  0  0  0
 24 25  1  0  0  0
 24 26  1  0  0  0
 24 51  1  0  0  0
 25 52  1  0  0  0
 25 53  1  0  0  0
 25 54  1  0  0  0
 26 55  1  0  0  0
 26 56  1  0  0  0
 26 57  1  0  0  0
 27 28  2  0  0  0
M  END
> <s_m_entry_id>
32818

> <s_m_entry_name>
dock_pv.219

> <s_m_Source_Path>
/home/csk/Desktop/cluster/DUD-E-result/cdk2

> <s_m_Source_File>
dock_pv.maegz

> <i_m_Source_File_Index>
219

> <chembl_id>
CHEMBL1922209

> <chembl_pref_name>
None

> <i_lp_mmshare_version>
53161

> <i_f3d_flags>
0

> <r_lp_tautomer_probability>
1

> <s_lp_Force_Field>
OPLS_2005

> <r_lp_Energy>
26.26194

> <b_lp_Chiralities_Consistent>
1

> <s_lp_Variant>
CHEMBL301_lig1360-2

> <s_i_glide_gridfile>
glide-grid_1h00

> <i_i_glide_lignum>
1817

> <i_i_glide_rotatable_bonds>
10

> <r_i_docking_score>
-7.71376476896658

> <r_i_glide_ligand_efficiency>
-0.275491598891663

> <r_i_glide_ligand_efficiency_sa>
-0.836554750109628

> <r_i_glide_ligand_efficiency_ln>
-1.78056339465253

> <r_i_glide_gscore>
-7.71376476896658

> <r_i_glide_lipo>
-2.88788855806269

> <r_i_glide_hbond>
-0.479664610855629

> <r_i_glide_metal>
0

> <r_i_glide_rewards>
-2.21434120178954

> <r_i_glide_evdw>
-42.3257102966309

> <r_i_glide_ecoul>
-5.3893666267395

> <r_i_glide_erotb>
0.792820110583749

> <r_i_glide_esite>
0

> <r_i_glide_emodel>
-62.1296143814995

> <r_i_glide_energy>
-47.7150769233704

> <r_i_glide_einternal>
7.51411056518555

> <i_i_glide_confnum>
30

> <i_i_glide_posenum>
136

> <r_i_glide_eff_state_penalty>
0

> <s_user_duplicate_titles>
CHEMBL301_lig1360

> <s_m_subgroup_title>
dock_pv

> <s_m_subgroupid>
dock_pv

> <b_m_subgroup_collapsed>
1

$$$$
CHEMBL301_lig139
                    3D
 Schrodinger Suite 2021-1.
 44 47  0  0  1  0            999 V2000
    1.3438   30.2283    8.1754 C   0  0  0  0  0  0
    0.1611   30.2226    9.0233 C   0  0  0  0  0  0
    7.1328   24.7705    6.1297 S   0  0  0  0  0  0
    1.2578   31.4410    7.3761 C   0  0  0  0  0  0
    0.1682   32.0899    7.8170 N   0  0  0  0  0  0
   -0.5290   31.3874    8.7757 C   0  0  0  0  0  0
    2.3530   29.3359    8.0945 C   0  0  0  0  0  0
   -0.3459   29.3409    9.9891 C   0  0  0  0  0  0
   -1.9423   28.7276   11.5971 N   0  0  0  0  0  0
    0.2599   27.7914   10.5767 S   0  0  0  0  0  0
   -1.1162   27.7245   11.6447 C   0  0  0  0  0  0
    5.9918   26.1072    6.4617 C   0  0  0  0  0  0
   -1.5450   29.6574   10.6881 C   0  0  0  0  0  0
    6.7281   23.6441    6.9761 O   0  0  0  0  0  0
    7.2557   24.6194    4.6759 O   0  0  0  0  0  0
    8.6675   25.3570    6.7524 N   0  0  3  0  0  0
    3.4517   29.3342    7.2667 N   0  0  0  0  0  0
    2.0233   31.8519    6.5115 O   0  0  0  0  0  0
   -1.7056   31.7224    9.4485 C   0  0  0  0  0  0
   -2.2236   30.8587   10.4194 C   0  0  0  0  0  0
    5.5973   26.3561    7.7758 C   0  0  0  0  0  0
    5.5297   26.9173    5.4224 C   0  0  0  0  0  0
    4.3005   28.2500    7.0194 C   0  0  0  0  0  0
    9.5203   26.2587    5.9478 C   0  0  0  0  0  0
    4.7009   27.9995    5.7062 C   0  0  0  0  0  0
    4.7425   27.4190    8.0532 C   0  0  0  0  0  0
   11.6026   25.0517    6.1901 O   0  0  0  0  0  0
   10.6622   25.5127    5.2400 C   0  0  0  0  0  0
   -0.0958   32.9954    7.4606 H   0  0  0  0  0  0
    2.3414   28.4695    8.7407 H   0  0  0  0  0  0
   -1.2579   26.8865   12.3110 H   0  0  0  0  0  0
    9.0712   24.8985    7.5727 H   0  0  0  0  0  0
    3.5227   30.0816    6.5805 H   0  0  0  0  0  0
   -2.2151   32.6526    9.2379 H   0  0  0  0  0  0
   -3.1179   31.1121   10.9741 H   0  0  0  0  0  0
    5.9558   25.7278    8.5760 H   0  0  0  0  0  0
    5.8426   26.7363    4.4037 H   0  0  0  0  0  0
    8.8807   26.7410    5.2082 H   0  0  0  0  0  0
    9.9180   27.0518    6.5774 H   0  0  0  0  0  0
    4.3666   28.6388    4.9010 H   0  0  0  0  0  0
    4.4566   27.6023    9.0802 H   0  0  0  0  0  0
   12.0584   25.8190    6.5570 H   0  0  0  0  0  0
   10.2758   24.6719    4.6626 H   0  0  0  0  0  0
   11.1665   26.1758    4.5342 H   0  0  0  0  0  0
  1  2  1  0  0  0
  1  4  1  0  0  0
  1  7  2  0  0  0
  2  6  2  0  0  0
  2  8  1  0  0  0
  3 12  1  0  0  0
  3 14  2  0  0  0
  3 15  2  0  0  0
  3 16  1  0  0  0
  4  5  1  0  0  0
  4 18  2  0  0  0
  5  6  1  0  0  0
  5 29  1  0  0  0
  6 19  1  0  0  0
  7 17  1  0  0  0
  7 30  1  0  0  0
  8 10  1  0  0  0
  8 13  2  0  0  0
  9 13  1  0  0  0
  9 11  2  0  0  0
 10 11  1  0  0  0
 11 31  1  0  0  0
 12 21  2  0  0  0
 12 22  1  0  0  0
 13 20  1  0  0  0
 16 24  1  0  0  0
 16 32  1  0  0  0
 17 23  1  0  0  0
 17 33  1  0  0  0
 19 20  2  0  0  0
 19 34  1  0  0  0
 20 35  1  0  0  0
 21 26  1  0  0  0
 21 36  1  0  0  0
 22 25  2  0  0  0
 22 37  1  0  0  0
 23 25  1  0  0  0
 23 26  2  0  0  0
 24 28  1  0  0  0
 24 38  1  0  0  0
 24 39  1  0  0  0
 25 40  1  0  0  0
 26 41  1  0  0  0
 27 28  1  0  0  0
 27 42  1  0  0  0
 28 43  1  0  0  0
 28 44  1  0  0  0
M  END
> <s_m_entry_id>
32819

> <s_m_entry_name>
dock_pv.220

> <s_m_Source_Path>
/home/csk/Desktop/cluster/DUD-E-result/cdk2

> <s_m_Source_File>
dock_pv.maegz

> <i_m_Source_File_Index>
220

> <chembl_id>
CHEMBL1964246

> <chembl_pref_name>
None

> <i_lp_mmshare_version>
53161

> <i_f3d_flags>
0

> <r_lp_tautomer_probability>
0.499999999999422

> <s_lp_Force_Field>
OPLS_2005

> <r_lp_Energy>
42.5744

> <b_lp_Chiralities_Consistent>
1

> <s_lp_Variant>
CHEMBL301_lig139-1

> <s_i_glide_gridfile>
glide-grid_1h00

> <i_i_glide_lignum>
278

> <i_i_glide_rotatable_bonds>
7

> <r_i_docking_score>
-7.70954601477533

> <r_i_glide_ligand_efficiency>
-0.275340929099119

> <r_i_glide_ligand_efficiency_sa>
-0.836097227879701

> <r_i_glide_ligand_efficiency_ln>
-1.77958958231719

> <r_i_glide_gscore>
-7.70954601477533

> <r_i_glide_lipo>
-2.53141604528579

> <r_i_glide_hbond>
-0.818198314298874

> <r_i_glide_metal>
0

> <r_i_glide_rewards>
-1.36497810413644

> <r_i_glide_evdw>
-42.1842002868652

> <r_i_glide_ecoul>
-10.4110240936279

> <r_i_glide_erotb>
0.683403399099667

> <r_i_glide_esite>
-0.00749332176644278

> <r_i_glide_emodel>
-70.8465692401812

> <r_i_glide_energy>
-52.5952243804932

> <r_i_glide_einternal>
10.3301067352295

> <i_i_glide_confnum>
64

> <i_i_glide_posenum>
131

> <r_i_glide_eff_state_penalty>
0

> <s_user_duplicate_titles>
CHEMBL301_lig139,137254

> <s_m_subgroup_title>
dock_pv

> <s_m_subgroupid>
dock_pv

> <b_m_subgroup_collapsed>
1

$$$$
CHEMBL301_lig499
                    3D
 Schrodinger Suite 2021-1.
 51 54  0  0  1  0            999 V2000
    0.4562   31.9732    7.7764 C   0  0  0  0  0  0
   -0.3493   31.2804    8.6840 C   0  0  0  0  0  0
    0.1122   30.0351    9.1357 C   0  0  0  0  0  0
    1.2855   29.5182    8.6859 N   0  0  0  0  0  0
    1.9897   30.2534    7.7834 C   0  0  0  0  0  0
    1.6172   31.4652    7.2998 N   0  0  0  0  0  0
    3.2527   29.8320    7.3758 N   0  0  0  0  0  0
    3.7073   28.4538    7.4484 C   0  0  0  0  0  0
    4.0973   27.9969    6.0287 C   0  0  0  0  0  0
    4.7502   26.5964    6.0205 C   0  0  0  0  0  0
    5.9075   26.6367    6.9501 N   0  0  0  0  0  0
    5.5760   26.9920    8.3441 C   0  0  0  0  0  0
    4.9325   28.3933    8.3573 C   0  0  0  0  0  0
    7.1171   26.0646    6.6826 C   0  0  0  0  0  0
    7.9616   25.8469    7.5582 O   0  0  0  0  0  0
    7.3866   25.8513    5.3804 N   0  0  0  0  0  0
    8.6698   25.4013    4.8412 C   0  0  0  0  0  0
    9.7309   26.5123    4.8014 C   0  0  0  0  0  0
   -0.5997   29.2424   10.1904 C   0  0  0  0  0  0
   -2.1130   28.6845   11.7756 N   0  0  0  0  0  0
   -1.7503   29.6308   10.8558 C   0  0  0  0  0  0
   -1.2277   27.6367   11.7474 C   0  0  0  0  0  0
   -0.2396   27.9591   10.7622 C   0  0  0  0  0  0
    0.8079   27.0391   10.5608 C   0  0  0  0  0  0
    0.8405   25.8601   11.3036 C   0  0  0  0  0  0
   -0.1407   25.5766   12.2482 C   0  0  0  0  0  0
   -1.1945   26.4548   12.4965 C   0  0  0  0  0  0
    0.1827   32.9588    7.4286 H   0  0  0  0  0  0
   -1.2669   31.7174    9.0474 H   0  0  0  0  0  0
    3.7961   30.4678    6.7924 H   0  0  0  0  0  0
    2.9141   27.8333    7.8606 H   0  0  0  0  0  0
    4.7844   28.7120    5.5703 H   0  0  0  0  0  0
    3.2224   27.9839    5.3809 H   0  0  0  0  0  0
    5.0204   26.3541    4.9940 H   0  0  0  0  0  0
    4.0519   25.8462    6.3925 H   0  0  0  0  0  0
    4.8709   26.2531    8.7257 H   0  0  0  0  0  0
    6.4577   27.0201    8.9821 H   0  0  0  0  0  0
    4.6358   28.6391    9.3756 H   0  0  0  0  0  0
    5.6590   29.1539    8.0691 H   0  0  0  0  0  0
    6.6892   26.1204    4.7044 H   0  0  0  0  0  0
    8.4926   25.0365    3.8291 H   0  0  0  0  0  0
    9.0375   24.5426    5.4057 H   0  0  0  0  0  0
   10.6682   26.1388    4.3922 H   0  0  0  0  0  0
    9.9435   26.9004    5.7964 H   0  0  0  0  0  0
    9.4113   27.3428    4.1738 H   0  0  0  0  0  0
   -2.9026   28.8091   12.4042 H   0  0  0  0  0  0
   -2.3444   30.5304   10.7736 H   0  0  0  0  0  0
    1.5895   27.2363    9.8429 H   0  0  0  0  0  0
    1.6505   25.1613   11.1507 H   0  0  0  0  0  0
   -0.0769   24.6536   12.8072 H   0  0  0  0  0  0
   -1.9481   26.2307   13.2368 H   0  0  0  0  0  0
  1  2  2  0  0  0
  1  6  1  0  0  0
  1 28  1  0  0  0
  2  3  1  0  0  0
  2 29  1  0  0  0
  3  4  2  0  0  0
  3 19  1  0  0  0
  4  5  1  0  0  0
  5  7  1  0  0  0
  5  6  2  0  0  0
  7  8  1  0  0  0
  7 30  1  0  0  0
  8  9  1  0  0  0
  8 13  1  0  0  0
  8 31  1  0  0  0
  9 10  1  0  0  0
  9 32  1  0  0  0
  9 33  1  0  0  0
 10 11  1  0  0  0
 10 34  1  0  0  0
 10 35  1  0  0  0
 11 14  1  0  0  0
 11 12  1  0  0  0
 12 13  1  0  0  0
 12 36  1  0  0  0
 12 37  1  0  0  0
 13 38  1  0  0  0
 13 39  1  0  0  0
 14 15  2  0  0  0
 14 16  1  0  0  0
 16 17  1  0  0  0
 16 40  1  0  0  0
 17 18  1  0  0  0
 17 41  1  0  0  0
 17 42  1  0  0  0
 18 43  1  0  0  0
 18 44  1  0  0  0
 18 45  1  0  0  0
 19 23  1  0  0  0
 19 21  2  0  0  0
 20 22  1  0  0  0
 20 21  1  0  0  0
 20 46  1  0  0  0
 21 47  1  0  0  0
 22 23  2  0  0  0
 22 27  1  0  0  0
 23 24  1  0  0  0
 24 25  2  0  0  0
 24 48  1  0  0  0
 25 26  1  0  0  0
 25 49  1  0  0  0
 26 27  2  0  0  0
 26 50  1  0  0  0
 27 51  1  0  0  0
M  END
> <s_m_entry_id>
32820

> <s_m_entry_name>
dock_pv.221

> <s_m_Source_Path>
/home/csk/Desktop/cluster/DUD-E-result/cdk2

> <s_m_Source_File>
dock_pv.maegz

> <i_m_Source_File_Index>
221

> <chembl_id>
CHEMBL245725

> <chembl_pref_name>
None

> <i_lp_mmshare_version>
53161

> <i_f3d_flags>
0

> <r_lp_tautomer_probability>
0.999999987636

> <s_lp_Force_Field>
OPLS_2005

> <r_lp_Energy>
29.794266

> <b_lp_Chiralities_Consistent>
1

> <s_lp_Variant>
CHEMBL301_lig499-1

> <s_i_glide_gridfile>
glide-grid_1h00

> <i_i_glide_lignum>
691

> <i_i_glide_rotatable_bonds>
6

> <r_i_docking_score>
-7.70551406424905

> <r_i_glide_ligand_efficiency>
-0.285389409787002

> <r_i_glide_ligand_efficiency_sa>
-0.856168228420409

> <r_i_glide_ligand_efficiency_ln>
-1.79371663882948

> <r_i_glide_gscore>
-7.70551406424905

> <r_i_glide_lipo>
-2.54395101887337

> <r_i_glide_hbond>
-0.419319179548765

> <r_i_glide_metal>
0

> <r_i_glide_rewards>
-2.24324249203088

> <r_i_glide_evdw>
-38.4601173400879

> <r_i_glide_ecoul>
-8.12169361114502

> <r_i_glide_erotb>
0.723721687284291

> <r_i_glide_esite>
-0.0814631524041741

> <r_i_glide_emodel>
-66.0212170090031

> <r_i_glide_energy>
-46.5818109512329

> <r_i_glide_einternal>
4.26421403884888

> <i_i_glide_confnum>
22

> <i_i_glide_posenum>
323

> <r_i_glide_eff_state_penalty>
0

> <s_user_duplicate_titles>
CHEMBL301_lig499

> <s_m_subgroup_title>
dock_pv

> <s_m_subgroupid>
dock_pv

> <b_m_subgroup_collapsed>
1

$$$$
CHEMBL301_lig5
                    3D
 Schrodinger Suite 2021-1.
 42 44  0  0  1  0            999 V2000
    0.5452   30.6875    8.2917 C   0  0  0  0  0  0
    0.0579   31.9846    8.1754 C   0  0  0  0  0  0
    0.9436   32.6333    7.3759 N   0  0  0  0  0  0
    1.9073   31.8262    6.9111 N   0  0  0  0  0  0
    1.7088   30.6511    7.4846 C   0  0  0  0  0  0
    2.6278   29.5299    7.4447 C   0  0  0  0  0  0
    2.7329   28.7865    8.4145 O   0  0  0  0  0  0
    3.2580   29.3051    6.2796 N   0  0  0  0  0  0
    4.0584   28.1087    5.9538 C   0  0  0  0  0  0
    0.0629   29.6523    9.0777 N   0  0  0  0  0  0
   -0.6371   29.8419   10.2086 C   0  0  0  0  0  0
   -1.0168   30.9481   10.5907 O   0  0  0  0  0  0
   -0.9887   28.5990   10.9937 C   0  0  0  0  0  0
   -0.0144   27.6515   11.3809 C   0  0  0  0  0  0
   -0.3805   26.5257   12.1194 C   0  0  0  0  0  0
   -1.7075   26.3148   12.4765 C   0  0  0  0  0  0
   -2.6757   27.2364   12.0970 C   0  0  0  0  0  0
   -2.3260   28.3761   11.3717 C   0  0  0  0  0  0
   -3.5952   29.4468   10.8686 Cl  0  0  0  0  0  0
    1.6600   27.7980   10.9760 Cl  0  0  0  0  0  0
    4.7198   28.0950    4.5727 C   0  0  0  0  0  0
    5.4304   26.7644    4.2394 C   0  0  0  0  0  0
    6.3975   26.4256    5.2770 N   0  0  2  0  0  0
    5.7282   26.2144    6.5550 C   0  0  0  0  0  0
    4.9984   27.4891    7.0289 C   0  0  0  0  0  0
   -0.7869   32.4989    8.6110 H   0  0  0  0  0  0
    0.8668   33.6106    7.1100 H   0  0  0  0  0  0
    3.5182   30.1423    5.7726 H   0  0  0  0  0  0
    3.2922   27.3635    5.7757 H   0  0  0  0  0  0
    0.4839   28.7455    8.9316 H   0  0  0  0  0  0
    0.3739   25.8115   12.4150 H   0  0  0  0  0  0
   -1.9884   25.4389   13.0423 H   0  0  0  0  0  0
   -3.7068   27.0720   12.3733 H   0  0  0  0  0  0
    5.4377   28.9096    4.4843 H   0  0  0  0  0  0
    3.9646   28.2515    3.8036 H   0  0  0  0  0  0
    5.9581   26.8461    3.2880 H   0  0  0  0  0  0
    4.7076   25.9529    4.1328 H   0  0  0  0  0  0
    7.0062   27.2393    5.3785 H   0  0  0  0  0  0
    6.4788   25.9202    7.2900 H   0  0  0  0  0  0
    5.0277   25.3819    6.4657 H   0  0  0  0  0  0
    4.4418   27.1890    7.9148 H   0  0  0  0  0  0
    5.7326   28.2212    7.3650 H   0  0  0  0  0  0
  1 10  1  0  0  0
  1  5  1  0  0  0
  1  2  2  0  0  0
  2  3  1  0  0  0
  2 26  1  0  0  0
  3  4  1  0  0  0
  3 27  1  0  0  0
  4  5  2  0  0  0
  5  6  1  0  0  0
  6  7  2  0  0  0
  6  8  1  0  0  0
  8  9  1  0  0  0
  8 28  1  0  0  0
  9 21  1  0  0  0
  9 25  1  0  0  0
  9 29  1  0  0  0
 10 11  1  0  0  0
 10 30  1  0  0  0
 11 13  1  0  0  0
 11 12  2  0  0  0
 13 14  2  0  0  0
 13 18  1  0  0  0
 14 15  1  0  0  0
 14 20  1  0  0  0
 15 16  2  0  0  0
 15 31  1  0  0  0
 16 17  1  0  0  0
 16 32  1  0  0  0
 17 18  2  0  0  0
 17 33  1  0  0  0
 18 19  1  0  0  0
 21 22  1  0  0  0
 21 34  1  0  0  0
 21 35  1  0  0  0
 22 23  1  0  0  0
 22 36  1  0  0  0
 22 37  1  0  0  0
 23 24  1  0  0  0
 23 38  1  0  0  0
 24 25  1  0  0  0
 24 39  1  0  0  0
 24 40  1  0  0  0
 25 41  1  0  0  0
 25 42  1  0  0  0
M  END
> <s_m_entry_id>
32821

> <s_m_entry_name>
dock_pv.222

> <s_m_Source_Path>
/home/csk/Desktop/cluster/DUD-E-result/cdk2

> <s_m_Source_File>
dock_pv.maegz

> <i_m_Source_File_Index>
222

> <chembl_id>
CHEMBL445813

> <chembl_pref_name>
AT-7519

> <i_lp_mmshare_version>
53161

> <i_f3d_flags>
0

> <r_lp_tautomer_probability>
0.5

> <s_lp_Force_Field>
OPLS_2005

> <r_lp_Energy>
36.392786

> <b_lp_Chiralities_Consistent>
1

> <s_lp_Variant>
CHEMBL301_lig5-1

> <s_i_glide_gridfile>
glide-grid_1h00

> <i_i_glide_lignum>
5

> <i_i_glide_rotatable_bonds>
6

> <r_i_docking_score>
-7.69871385826591

> <r_i_glide_ligand_efficiency>
-0.307948554330637

> <r_i_glide_ligand_efficiency_sa>
-0.900447034353647

> <r_i_glide_ligand_efficiency_ln>
-1.82482589624605

> <r_i_glide_gscore>
-7.69871385826591

> <r_i_glide_lipo>
-2.01370740872887

> <r_i_glide_hbond>
-1.18976096674334

> <r_i_glide_metal>
0

> <r_i_glide_rewards>
-2.42611185225655

> <r_i_glide_evdw>
-30.9614009857178

> <r_i_glide_ecoul>
-7.03436470031738

> <r_i_glide_erotb>
0.558223491946846

> <r_i_glide_esite>
-0.024132368150506

> <r_i_glide_emodel>
-52.878836385599

> <r_i_glide_energy>
-37.9957656860352

> <r_i_glide_einternal>
5.3129243850708

> <i_i_glide_confnum>
255

> <i_i_glide_posenum>
50

> <r_i_glide_eff_state_penalty>
0

> <s_user_duplicate_titles>
CHEMBL301_lig5,511261

> <s_m_subgroup_title>
dock_pv

> <s_m_subgroupid>
dock_pv

> <b_m_subgroup_collapsed>
1

$$$$
CHEMBL301_lig88
                    3D
 Schrodinger Suite 2021-1.
 56 58  0  0  1  0            999 V2000
    0.5958   30.0239    8.5758 N   0  0  0  0  0  0
   -0.4450   30.6156    9.2194 C   0  0  0  0  0  0
    1.3182   30.7806    7.7093 C   0  0  0  0  0  0
   -0.7720   31.9609    8.9789 C   0  0  0  0  0  0
    1.0665   32.0749    7.4021 N   0  0  0  0  0  0
   -1.1613   29.8976   10.1942 N   0  0  0  0  0  0
    2.4580   30.2520    7.0992 N   0  0  0  0  0  0
    0.0408   32.6532    8.0763 C   0  0  0  0  0  0
    3.1796   29.0672    7.2988 C   0  0  0  0  0  0
    5.0471   25.3543    7.6274 O   0  0  0  0  0  0
    7.3938   25.9611    7.1847 C   0  0  1  0  0  0
    9.5974   24.6926    6.6212 N   0  0  0  0  0  0
    8.6896   25.8181    6.3374 C   0  0  0  0  0  0
   -0.9819   28.6363   10.7882 C   0  0  0  0  0  0
    4.4839   26.6067    7.4849 C   0  0  0  0  0  0
    6.2152   25.0081    6.8739 C   0  0  0  0  0  0
    3.9221   28.5905    6.2201 C   0  0  0  0  0  0
    3.1560   28.3543    8.5013 C   0  0  0  0  0  0
    3.7794   27.1145    8.5762 C   0  0  0  0  0  0
    4.5649   27.3610    6.3057 C   0  0  0  0  0  0
    7.6580   25.9054    8.5758 O   0  0  0  0  0  0
   -1.9325   32.6703    9.6687 C   0  0  0  0  0  0
    9.0561   23.3831    6.2670 C   0  0  0  0  0  0
   10.8497   24.9000    5.8954 C   0  0  0  0  0  0
   -1.5420   28.4403   12.0517 C   0  0  0  0  0  0
   -0.2937   27.5839   10.1746 C   0  0  0  0  0  0
   -0.1552   26.3587   10.8219 C   0  0  0  0  0  0
   -1.4083   27.2173   12.7031 C   0  0  0  0  0  0
   -0.7123   26.1806   12.0860 C   0  0  0  0  0  0
   -1.8454   30.4665   10.6699 H   0  0  0  0  0  0
    2.9690   30.9202    6.5349 H   0  0  0  0  0  0
   -0.1534   33.6902    7.8498 H   0  0  0  0  0  0
    7.0513   26.9735    6.9767 H   0  0  0  0  0  0
    9.2421   26.7543    6.4467 H   0  0  0  0  0  0
    8.4111   25.7831    5.2823 H   0  0  0  0  0  0
    5.9961   24.9837    5.8058 H   0  0  0  0  0  0
    6.4522   23.9841    7.1493 H   0  0  0  0  0  0
    3.9697   29.1514    5.2981 H   0  0  0  0  0  0
    2.6184   28.7212    9.3619 H   0  0  0  0  0  0
    3.6987   26.5379    9.4849 H   0  0  0  0  0  0
    5.0988   26.9957    5.4421 H   0  0  0  0  0  0
    6.8151   25.8560    9.0475 H   0  0  0  0  0  0
   -1.8805   32.5379   10.7498 H   0  0  0  0  0  0
   -1.9345   33.7436    9.4735 H   0  0  0  0  0  0
   -2.8826   32.2515    9.3342 H   0  0  0  0  0  0
    8.2902   23.0747    6.9734 H   0  0  0  0  0  0
    9.8288   22.6140    6.3172 H   0  0  0  0  0  0
    8.6366   23.3732    5.2596 H   0  0  0  0  0  0
   11.3065   25.8500    6.1740 H   0  0  0  0  0  0
   11.5735   24.1193    6.1329 H   0  0  0  0  0  0
   10.6962   24.9052    4.8144 H   0  0  0  0  0  0
   -2.0822   29.2375   12.5424 H   0  0  0  0  0  0
    0.1268   27.6942    9.1898 H   0  0  0  0  0  0
    0.3789   25.5516   10.3425 H   0  0  0  0  0  0
   -1.8466   27.0808   13.6814 H   0  0  0  0  0  0
   -0.6059   25.2314   12.5897 H   0  0  0  0  0  0
  1  2  2  0  0  0
  1  3  1  0  0  0
  2  4  1  0  0  0
  2  6  1  0  0  0
  3  5  2  0  0  0
  3  7  1  0  0  0
  4 22  1  0  0  0
  4  8  2  0  0  0
  5  8  1  0  0  0
  6 14  1  0  0  0
  6 30  1  0  0  0
  7  9  1  0  0  0
  7 31  1  0  0  0
  8 32  1  0  0  0
  9 17  1  0  0  0
  9 18  2  0  0  0
 10 15  1  0  0  0
 10 16  1  0  0  0
 11 16  1  0  0  0
 11 13  1  0  0  0
 11 21  1  0  0  0
 11 33  1  0  0  0
 12 13  1  0  0  0
 12 23  1  0  0  0
 12 24  1  0  0  0
 13 34  1  0  0  0
 13 35  1  0  0  0
 14 25  2  0  0  0
 14 26  1  0  0  0
 15 19  2  0  0  0
 15 20  1  0  0  0
 16 36  1  0  0  0
 16 37  1  0  0  0
 17 20  2  0  0  0
 17 38  1  0  0  0
 18 19  1  0  0  0
 18 39  1  0  0  0
 19 40  1  0  0  0
 20 41  1  0  0  0
 21 42  1  0  0  0
 22 43  1  0  0  0
 22 44  1  0  0  0
 22 45  1  0  0  0
 23 46  1  0  0  0
 23 47  1  0  0  0
 23 48  1  0  0  0
 24 49  1  0  0  0
 24 50  1  0  0  0
 24 51  1  0  0  0
 25 28  1  0  0  0
 25 52  1  0  0  0
 26 27  2  0  0  0
 26 53  1  0  0  0
 27 29  1  0  0  0
 27 54  1  0  0  0
 28 29  2  0  0  0
 28 55  1  0  0  0
 29 56  1  0  0  0
M  END
> <s_m_entry_id>
32822

> <s_m_entry_name>
dock_pv.223

> <s_m_Source_Path>
/home/csk/Desktop/cluster/DUD-E-result/cdk2

> <s_m_Source_File>
dock_pv.maegz

> <i_m_Source_File_Index>
223

> <chembl_id>
CHEMBL101473

> <chembl_pref_name>
None

> <i_lp_mmshare_version>
53161

> <i_f3d_flags>
0

> <r_lp_tautomer_probability>
0.999999624730965

> <s_lp_Force_Field>
OPLS_2005

> <r_lp_Energy>
25.665377

> <b_lp_Chiralities_Consistent>
1

> <s_lp_Variant>
CHEMBL301_lig88-1

> <s_i_glide_gridfile>
glide-grid_1h00

> <i_i_glide_lignum>
189

> <i_i_glide_rotatable_bonds>
10

> <r_i_docking_score>
-7.69684828324743

> <r_i_glide_ligand_efficiency>
-0.265408561491291

> <r_i_glide_ligand_efficiency_sa>
-0.815419188235517

> <r_i_glide_ligand_efficiency_ln>
-1.76238308163138

> <r_i_glide_gscore>
-7.69684828324743

> <r_i_glide_lipo>
-2.98504860989035

> <r_i_glide_hbond>
-0.287939179248899

> <r_i_glide_metal>
0

> <r_i_glide_rewards>
-2.02777127777205

> <r_i_glide_evdw>
-40.6773719787598

> <r_i_glide_ecoul>
-9.14408206939697

> <r_i_glide_erotb>
1.0093916930114

> <r_i_glide_esite>
0

> <r_i_glide_emodel>
-69.0818779435217

> <r_i_glide_energy>
-49.8214540481567

> <r_i_glide_einternal>
7.25487422943115

> <i_i_glide_confnum>
32

> <i_i_glide_posenum>
112

> <r_i_glide_eff_state_penalty>
0

> <s_user_duplicate_titles>
CHEMBL301_lig88

> <s_m_subgroup_title>
dock_pv

> <s_m_subgroupid>
dock_pv

> <b_m_subgroup_collapsed>
1

$$$$
CHEMBL301_lig1460
                    3D
 Schrodinger Suite 2021-1.
 50 51  0  0  1  0            999 V2000
   -0.0169   26.7447   10.1763 C   0  0  0  0  0  0
   -0.2430   28.0009   11.0391 C   0  0  1  0  0  0
   -0.8889   29.0219   10.2575 O   0  0  0  0  0  0
   -0.1749   29.8592    9.4215 C   0  0  0  0  0  0
    1.0450   29.4507    8.9761 N   0  0  0  0  0  0
    1.7014   30.2519    8.0989 C   0  0  0  0  0  0
    2.9325   29.8520    7.5552 N   0  0  0  0  0  0
    3.6313   28.6313    7.5773 C   0  0  0  0  0  0
    3.4563   27.6679    8.5761 C   0  0  0  0  0  0
    3.9530   26.3792    8.3969 C   0  0  0  0  0  0
    4.7142   26.0744    7.2665 C   0  0  0  0  0  0
    5.0197   27.0738    6.3457 C   0  0  0  0  0  0
    4.4574   28.3368    6.4898 C   0  0  0  0  0  0
    5.2378   24.3888    6.9565 S   0  0  0  0  0  0
    4.4580   23.5257    7.8491 O   0  0  0  0  0  0
    6.7029   24.3793    7.0150 O   0  0  0  0  0  0
    4.6701   23.9975    5.1919 C   0  0  0  0  0  0
    5.5348   24.5034    4.1143 C   0  0  0  0  0  0
    6.2280   24.9162    3.1974 C   0  0  0  0  0  0
    1.2401   31.4474    7.6581 N   0  0  0  0  0  0
    0.0580   31.8727    8.1752 C   0  0  0  0  0  0
   -0.7190   31.0947    9.0380 C   0  0  0  0  0  0
   -2.0464   31.6244    9.5669 C   0  0  0  0  0  0
   -3.0246   31.2534    8.7392 F   0  0  0  0  0  0
   -2.3186   31.1695   10.7861 F   0  0  0  0  0  0
   -2.0178   32.9579    9.6325 F   0  0  0  0  0  0
   -1.1281   27.7393   12.2976 C   0  0  0  0  0  0
   -2.5885   27.3984   11.9381 C   0  0  0  0  0  0
   -0.5647   26.6631   13.2472 C   0  0  0  0  0  0
   -1.1421   28.9328   13.0538 O   0  0  0  0  0  0
    0.4082   25.9216   10.7487 H   0  0  0  0  0  0
   -0.9403   26.3984    9.7125 H   0  0  0  0  0  0
    0.6898   26.9579    9.3803 H   0  0  0  0  0  0
    0.7280   28.3623   11.3852 H   0  0  0  0  0  0
    3.3370   30.5313    6.9226 H   0  0  0  0  0  0
    2.8691   27.8694    9.4565 H   0  0  0  0  0  0
    3.6814   25.6161    9.1134 H   0  0  0  0  0  0
    5.6342   26.8701    5.4821 H   0  0  0  0  0  0
    4.6238   29.0521    5.7016 H   0  0  0  0  0  0
    3.6581   24.3754    5.0727 H   0  0  0  0  0  0
    4.6415   22.9122    5.1083 H   0  0  0  0  0  0
    6.8088   25.2656    2.3730 H   0  0  0  0  0  0
   -0.2666   32.8536    7.8537 H   0  0  0  0  0  0
   -2.6535   26.4924   11.3362 H   0  0  0  0  0  0
   -3.1892   27.2209   12.8290 H   0  0  0  0  0  0
   -3.0694   28.2049   11.3827 H   0  0  0  0  0  0
   -0.5706   25.6728   12.7919 H   0  0  0  0  0  0
    0.4581   26.8926   13.5388 H   0  0  0  0  0  0
   -1.1508   26.5969   14.1652 H   0  0  0  0  0  0
   -2.0399   29.0521   13.3926 H   0  0  0  0  0  0
  1  2  1  0  0  0
  1 31  1  0  0  0
  1 32  1  0  0  0
  1 33  1  0  0  0
  2  3  1  0  0  0
  2 27  1  0  0  0
  2 34  1  0  0  0
  3  4  1  0  0  0
  4  5  2  0  0  0
  4 22  1  0  0  0
  5  6  1  0  0  0
  6  7  1  0  0  0
  6 20  2  0  0  0
  7  8  1  0  0  0
  7 35  1  0  0  0
  8  9  2  0  0  0
  8 13  1  0  0  0
  9 10  1  0  0  0
  9 36  1  0  0  0
 10 11  2  0  0  0
 10 37  1  0  0  0
 11 12  1  0  0  0
 11 14  1  0  0  0
 12 13  2  0  0  0
 12 38  1  0  0  0
 13 39  1  0  0  0
 14 15  2  0  0  0
 14 16  2  0  0  0
 14 17  1  0  0  0
 17 18  1  0  0  0
 17 40  1  0  0  0
 17 41  1  0  0  0
 18 19  3  0  0  0
 19 42  1  0  0  0
 20 21  1  0  0  0
 21 22  2  0  0  0
 21 43  1  0  0  0
 22 23  1  0  0  0
 23 24  1  0  0  0
 23 25  1  0  0  0
 23 26  1  0  0  0
 27 28  1  0  0  0
 27 29  1  0  0  0
 27 30  1  0  0  0
 28 44  1  0  0  0
 28 45  1  0  0  0
 28 46  1  0  0  0
 29 47  1  0  0  0
 29 48  1  0  0  0
 29 49  1  0  0  0
 30 50  1  0  0  0
M  END
> <s_m_entry_id>
32823

> <s_m_entry_name>
dock_pv.224

> <s_m_Source_Path>
/home/csk/Desktop/cluster/DUD-E-result/cdk2

> <s_m_Source_File>
dock_pv.maegz

> <i_m_Source_File_Index>
224

> <chembl_id>
CHEMBL3644025

> <chembl_pref_name>
None

> <i_lp_mmshare_version>
53161

> <i_f3d_flags>
0

> <r_lp_tautomer_probability>
0.999999917912647

> <s_lp_Force_Field>
OPLS_2005

> <r_lp_Energy>
6.720678

> <b_lp_Chiralities_Consistent>
1

> <s_lp_Variant>
CHEMBL301_lig1460-1

> <s_i_glide_gridfile>
glide-grid_1h00

> <i_i_glide_lignum>
1973

> <i_i_glide_rotatable_bonds>
10

> <r_i_docking_score>
-7.6962906514184

> <r_i_glide_ligand_efficiency>
-0.256543021713946

> <r_i_glide_ligand_efficiency_sa>
-0.797138815341459

> <r_i_glide_ligand_efficiency_ln>
-1.74868109380539

> <r_i_glide_gscore>
-7.6962906514184

> <r_i_glide_lipo>
-2.63676590990778

> <r_i_glide_hbond>
-0.306686193951968

> <r_i_glide_metal>
0

> <r_i_glide_rewards>
-2.35489339119004

> <r_i_glide_evdw>
-40.0906181335449

> <r_i_glide_ecoul>
-7.45287942886353

> <r_i_glide_erotb>
0.8133319063431

> <r_i_glide_esite>
-0.0888142417049371

> <r_i_glide_emodel>
-66.0357437353961

> <r_i_glide_energy>
-47.5434975624084

> <r_i_glide_einternal>
7.61704921722412

> <i_i_glide_confnum>
119

> <i_i_glide_posenum>
392

> <r_i_glide_eff_state_penalty>
0

> <s_user_duplicate_titles>
CHEMBL301_lig1460

> <s_m_subgroup_title>
dock_pv

> <s_m_subgroupid>
dock_pv

> <b_m_subgroup_collapsed>
1

$$$$
CHEMBL301_lig623
                    3D
 Schrodinger Suite 2021-1.
 55 57  0  0  1  0            999 V2000
    1.2359   28.7173    9.3760 N   0  0  0  0  0  0
   -2.7348   32.1393    9.6631 C   0  0  0  0  0  0
   -1.4130   31.7818    9.1541 N   0  0  0  0  0  0
   -0.6587   30.6416    9.3712 C   0  0  0  0  0  0
   -0.8895   29.5758   10.1487 N   0  0  0  0  0  0
    0.0974   28.6418   10.1062 C   0  0  0  0  0  0
    1.4301   29.7954    8.5760 C   0  0  0  0  0  0
    0.4763   30.8182    8.5503 C   0  0  0  0  0  0
    0.4580   32.0209    7.8959 N   0  0  0  0  0  0
   -0.6343   32.5837    8.3407 C   0  0  0  0  0  0
    2.5395   29.8520    7.7176 N   0  0  0  0  0  0
    3.5398   28.9021    7.4626 C   0  0  0  0  0  0
    4.1651   28.1891    8.4830 C   0  0  0  0  0  0
    5.1219   27.2250    8.1760 C   0  0  0  0  0  0
    5.4809   26.9561    6.8528 C   0  0  0  0  0  0
    4.8580   27.6820    5.8215 C   0  0  0  0  0  0
    5.2149   27.4210    4.1464 Cl  0  0  0  0  0  0
    3.9068   28.6520    6.1397 C   0  0  0  0  0  0
    6.4679   25.8536    6.5894 C   0  0  0  0  0  0
    7.5835   26.2520    5.9182 O   0  0  0  0  0  0
    6.2905   24.7099    7.0038 O   0  0  0  0  0  0
   -0.1597   27.5117   10.8946 N   0  0  0  0  0  0
    0.5282   26.2011   10.9398 C   0  0  2  0  0  0
    0.0549   25.4466   12.2383 C   0  0  0  0  0  0
    0.5331   23.9783   12.3417 C   0  0  0  0  0  0
   -1.4887   25.4385   12.3974 C   0  0  0  0  0  0
    2.0769   26.3130   10.7541 C   0  0  0  0  0  0
    2.8580   25.1530   10.9305 O   0  0  0  0  0  0
   -2.6508   32.6519   11.1026 C   0  0  0  0  0  0
   -3.7422   30.9878    9.4861 C   0  0  0  0  0  0
   -3.0725   32.9638    9.0469 H   0  0  0  0  0  0
   -0.9841   33.5661    8.0562 H   0  0  0  0  0  0
    2.5460   30.6521    7.1027 H   0  0  0  0  0  0
    3.9031   28.3699    9.5142 H   0  0  0  0  0  0
    5.5850   26.6732    8.9760 H   0  0  0  0  0  0
    3.4344   29.2108    5.3477 H   0  0  0  0  0  0
    7.5746   27.2013    5.7247 H   0  0  0  0  0  0
   -1.0434   27.5540   11.3772 H   0  0  0  0  0  0
    0.1586   25.6357   10.0829 H   0  0  0  0  0  0
    0.4580   25.9841   13.0990 H   0  0  0  0  0  0
    0.3497   23.4328   11.4153 H   0  0  0  0  0  0
    1.5922   23.8995   12.5760 H   0  0  0  0  0  0
    0.0235   23.4418   13.1430 H   0  0  0  0  0  0
   -1.9693   24.9878   11.5285 H   0  0  0  0  0  0
   -1.8024   24.8750   13.2768 H   0  0  0  0  0  0
   -1.9001   26.4404   12.5219 H   0  0  0  0  0  0
    2.2965   26.5830    9.7252 H   0  0  0  0  0  0
    2.4916   27.1038   11.3760 H   0  0  0  0  0  0
    3.7868   25.4520   10.9344 H   0  0  0  0  0  0
   -3.6195   33.0174   11.4449 H   0  0  0  0  0  0
   -1.9420   33.4755   11.1951 H   0  0  0  0  0  0
   -2.3420   31.8522   11.7760 H   0  0  0  0  0  0
   -4.7420   31.3108    9.7705 H   0  0  0  0  0  0
   -3.7868   30.6520    8.4496 H   0  0  0  0  0  0
   -3.4992   30.1285   10.1114 H   0  0  0  0  0  0
  1  6  1  0  0  0
  1  7  2  0  0  0
  2  3  1  0  0  0
  2 29  1  0  0  0
  2 30  1  0  0  0
  2 31  1  0  0  0
  3  4  1  0  0  0
  3 10  1  0  0  0
  4  5  1  0  0  0
  4  8  2  0  0  0
  5  6  2  0  0  0
  6 22  1  0  0  0
  7  8  1  0  0  0
  7 11  1  0  0  0
  8  9  1  0  0  0
  9 10  2  0  0  0
 10 32  1  0  0  0
 11 12  1  0  0  0
 11 33  1  0  0  0
 12 13  2  0  0  0
 12 18  1  0  0  0
 13 14  1  0  0  0
 13 34  1  0  0  0
 14 15  2  0  0  0
 14 35  1  0  0  0
 15 16  1  0  0  0
 15 19  1  0  0  0
 16 17  1  0  0  0
 16 18  2  0  0  0
 18 36  1  0  0  0
 19 20  1  0  0  0
 19 21  2  0  0  0
 20 37  1  0  0  0
 22 23  1  0  0  0
 22 38  1  0  0  0
 23 24  1  0  0  0
 23 27  1  0  0  0
 23 39  1  0  0  0
 24 25  1  0  0  0
 24 26  1  0  0  0
 24 40  1  0  0  0
 25 41  1  0  0  0
 25 42  1  0  0  0
 25 43  1  0  0  0
 26 44  1  0  0  0
 26 45  1  0  0  0
 26 46  1  0  0  0
 27 28  1  0  0  0
 27 47  1  0  0  0
 27 48  1  0  0  0
 28 49  1  0  0  0
 29 50  1  0  0  0
 29 51  1  0  0  0
 29 52  1  0  0  0
 30 53  1  0  0  0
 30 54  1  0  0  0
 30 55  1  0  0  0
M  END
> <s_m_entry_id>
32824

> <s_m_entry_name>
dock_pv.225

> <s_m_Source_Path>
/home/csk/Desktop/cluster/DUD-E-result/cdk2

> <s_m_Source_File>
dock_pv.maegz

> <i_m_Source_File_Index>
225

> <chembl_id>
CHEMBL23254

> <chembl_pref_name>
PURVALANOL B

> <i_lp_mmshare_version>
53161

> <i_f3d_flags>
0

> <r_lp_tautomer_probability>
1

> <s_lp_Force_Field>
OPLS_2005

> <r_lp_Energy>
35.663522

> <b_lp_Chiralities_Consistent>
1

> <s_lp_Variant>
CHEMBL301_lig623-1

> <s_i_glide_gridfile>
glide-grid_1h00

> <i_i_glide_lignum>
864

> <i_i_glide_rotatable_bonds>
10

> <r_i_docking_score>
-7.69471923139304

> <r_i_glide_ligand_efficiency>
-0.256490641046435

> <r_i_glide_ligand_efficiency_sa>
-0.796976056428867

> <r_i_glide_ligand_efficiency_ln>
-1.74832405005364

> <r_i_glide_gscore>
-7.69471923139304

> <r_i_glide_lipo>
-2.37001994032409

> <r_i_glide_hbond>
-0.152

> <r_i_glide_metal>
0

> <r_i_glide_rewards>
-2.04292936253871

> <r_i_glide_evdw>
-41.2300987243652

> <r_i_glide_ecoul>
-11.3697834014893

> <r_i_glide_erotb>
0.63720251791141

> <r_i_glide_esite>
0

> <r_i_glide_emodel>
-75.2043110788243

> <r_i_glide_energy>
-52.5998821258545

> <r_i_glide_einternal>
7.09871387481689

> <i_i_glide_confnum>
66

> <i_i_glide_posenum>
146

> <r_i_glide_eff_state_penalty>
0

> <s_user_duplicate_titles>
CHEMBL301_lig623,31152

> <s_m_subgroup_title>
dock_pv

> <s_m_subgroupid>
dock_pv

> <b_m_subgroup_collapsed>
1

$$$$
CHEMBL301_lig293
                    3D
 Schrodinger Suite 2021-1.
 55 58  0  0  1  0            999 V2000
    6.1257   24.2893    4.3080 S   0  0  0  0  0  0
    2.1665   28.9326    8.9760 C   0  0  0  0  0  0
    1.6089   30.6079    7.5973 N   0  0  0  0  0  0
    3.2559   29.1508    8.1685 C   0  0  0  0  0  0
    1.1739   29.8520    8.5846 C   0  0  0  0  0  0
   -4.5133   23.0675   15.7258 C   0  0  0  0  0  0
   -2.0069   27.0663   11.9485 C   0  0  0  0  0  0
    2.8579   30.1889    7.3759 N   0  0  0  0  0  0
   -2.2210   25.3576   13.6985 C   0  0  0  0  0  0
   -2.3402   26.6577   13.1870 N   0  0  0  0  0  0
   -3.2867   23.5825   14.9760 C   0  0  0  0  0  0
    5.7022   25.6352    5.4067 C   0  0  0  0  0  0
   -3.3094   24.8692   14.4250 C   0  0  0  0  0  0
   -2.3143   28.3677   11.7760 N   0  0  0  0  0  0
   -0.1928   30.0024    9.1737 C   0  0  0  0  0  0
    4.5023   28.5832    8.1316 N   0  0  0  0  0  0
    7.3812   23.7068    4.7920 O   0  0  0  0  0  0
    4.9129   23.4787    4.1736 O   0  0  0  0  0  0
   -1.0571   24.5753   13.5870 C   0  0  0  0  0  0
    6.4508   25.0178    2.7572 N   0  0  0  0  0  0
   -1.4849   26.3531   11.0888 O   0  0  0  0  0  0
   -0.6275   29.0865   10.1395 C   0  0  0  0  0  0
   -1.8894   29.2081   10.7327 C   0  0  0  0  0  0
   -2.1391   22.7944   14.8186 C   0  0  0  0  0  0
   -1.0290   23.2950   14.1390 C   0  0  0  0  0  0
   -4.3552   21.8183   16.1700 F   0  0  0  0  0  0
   -5.5800   23.0993   14.9242 F   0  0  0  0  0  0
   -4.7455   23.8557   16.7768 F   0  0  0  0  0  0
    4.8246   26.6320    4.9783 C   0  0  0  0  0  0
    6.2109   25.6540    6.7058 C   0  0  0  0  0  0
    4.9104   27.6365    7.1798 C   0  0  0  0  0  0
    0.0570   25.0407   12.9755 F   0  0  0  0  0  0
    5.8112   26.6522    7.5884 C   0  0  0  0  0  0
    4.4387   27.6382    5.8619 C   0  0  0  0  0  0
   -1.0459   31.0515    8.8062 C   0  0  0  0  0  0
   -2.3113   31.1712    9.3776 C   0  0  0  0  0  0
   -2.7285   30.2521   10.3375 C   0  0  0  0  0  0
    2.1096   28.1935    9.7606 H   0  0  0  0  0  0
    3.4709   30.6413    6.7017 H   0  0  0  0  0  0
   -2.9206   27.2940   13.7209 H   0  0  0  0  0  0
   -4.1931   25.4821   14.5375 H   0  0  0  0  0  0
   -2.9286   28.7989   12.4567 H   0  0  0  0  0  0
    4.9447   28.3956    9.0186 H   0  0  0  0  0  0
    7.4123   24.8942    2.4340 H   0  0  0  0  0  0
    5.7310   24.8185    2.0475 H   0  0  0  0  0  0
    0.0286   28.2910   10.4576 H   0  0  0  0  0  0
   -2.0939   21.7927   15.2232 H   0  0  0  0  0  0
   -0.1404   22.6898   14.0387 H   0  0  0  0  0  0
    4.4299   26.6172    3.9723 H   0  0  0  0  0  0
    6.8903   24.8845    7.0434 H   0  0  0  0  0  0
    6.1865   26.6397    8.6002 H   0  0  0  0  0  0
    3.7504   28.3979    5.5243 H   0  0  0  0  0  0
   -0.7302   31.7830    8.0769 H   0  0  0  0  0  0
   -2.9613   31.9855    9.0902 H   0  0  0  0  0  0
   -3.7019   30.3685   10.7896 H   0  0  0  0  0  0
  1 12  1  0  0  0
  1 17  2  0  0  0
  1 18  2  0  0  0
  1 20  1  0  0  0
  2  4  2  0  0  0
  2  5  1  0  0  0
  2 38  1  0  0  0
  3  5  2  0  0  0
  3  8  1  0  0  0
  4  8  1  0  0  0
  4 16  1  0  0  0
  5 15  1  0  0  0
  6 11  1  0  0  0
  6 26  1  0  0  0
  6 27  1  0  0  0
  6 28  1  0  0  0
  7 14  1  0  0  0
  7 10  1  0  0  0
  7 21  2  0  0  0
  8 39  1  0  0  0
  9 10  1  0  0  0
  9 13  2  0  0  0
  9 19  1  0  0  0
 10 40  1  0  0  0
 11 13  1  0  0  0
 11 24  2  0  0  0
 12 29  2  0  0  0
 12 30  1  0  0  0
 13 41  1  0  0  0
 14 23  1  0  0  0
 14 42  1  0  0  0
 15 22  2  0  0  0
 15 35  1  0  0  0
 16 31  1  0  0  0
 16 43  1  0  0  0
 19 25  2  0  0  0
 19 32  1  0  0  0
 20 44  1  0  0  0
 20 45  1  0  0  0
 22 23  1  0  0  0
 22 46  1  0  0  0
 23 37  2  0  0  0
 24 25  1  0  0  0
 24 47  1  0  0  0
 25 48  1  0  0  0
 29 34  1  0  0  0
 29 49  1  0  0  0
 30 33  2  0  0  0
 30 50  1  0  0  0
 31 33  1  0  0  0
 31 34  2  0  0  0
 33 51  1  0  0  0
 34 52  1  0  0  0
 35 36  2  0  0  0
 35 53  1  0  0  0
 36 37  1  0  0  0
 36 54  1  0  0  0
 37 55  1  0  0  0
M  END
> <s_m_entry_id>
32826

> <s_m_entry_name>
dock_pv.227

> <s_m_Source_Path>
/home/csk/Desktop/cluster/DUD-E-result/cdk2

> <s_m_Source_File>
dock_pv.maegz

> <i_m_Source_File_Index>
227

> <chembl_id>
CHEMBL321939

> <chembl_pref_name>
None

> <i_lp_mmshare_version>
53161

> <i_f3d_flags>
0

> <r_lp_tautomer_probability>
0.157399999843308

> <s_lp_Force_Field>
OPLS_2005

> <r_lp_Energy>
36.682156

> <b_lp_Chiralities_Consistent>
1

> <s_lp_Variant>
CHEMBL301_lig293-2

> <s_i_glide_gridfile>
glide-grid_1h00

> <i_i_glide_lignum>
469

> <i_i_glide_rotatable_bonds>
9

> <r_i_docking_score>
-7.67789872401973

> <r_i_glide_ligand_efficiency>
-0.207510776324858

> <r_i_glide_ligand_efficiency_sa>
-0.691471942489424

> <r_i_glide_ligand_efficiency_ln>
-1.66515623775585

> <r_i_glide_gscore>
-7.67789872401973

> <r_i_glide_lipo>
-2.85092300972286

> <r_i_glide_hbond>
-0.73709297028825

> <r_i_glide_metal>
0

> <r_i_glide_rewards>
-0.489304551824228

> <r_i_glide_evdw>
-48.9303321838379

> <r_i_glide_ecoul>
-9.10255813598633

> <r_i_glide_erotb>
0.505713097514029

> <r_i_glide_esite>
-0.294390960108584

> <r_i_glide_emodel>
-78.8695202923677

> <r_i_glide_energy>
-58.0328903198242

> <r_i_glide_einternal>
12.2998933792114

> <i_i_glide_confnum>
2

> <i_i_glide_posenum>
349

> <r_i_glide_eff_state_penalty>
0

> <s_user_duplicate_titles>
CHEMBL301_lig293,166060

> <s_m_subgroup_title>
dock_pv

> <s_m_subgroupid>
dock_pv

> <b_m_subgroup_collapsed>
1

$$$$
CHEMBL301_lig1398
                    3D
 Schrodinger Suite 2021-1.
 55 58  0  0  1  0            999 V2000
   -1.1668   24.6531   10.8444 C   0  0  0  0  0  0
    0.1305   25.2165   10.2459 C   0  0  0  0  0  0
    1.3322   25.3919   11.2323 C   0  0  2  0  0  0
    2.4064   26.2142   10.6622 N   0  0  0  0  0  0
    2.2375   27.4421   10.0260 C   0  0  0  0  0  0
    3.2529   27.7267    9.1891 N   0  0  0  0  0  0
    3.1310   28.7969    8.3632 C   0  0  0  0  0  0
    4.1487   29.0521    7.4418 N   0  0  0  0  0  0
    5.2201   28.0872    7.2393 C   0  0  0  0  0  0
    4.8654   27.1098    6.1334 C   0  0  0  0  0  0
    4.8202   27.5212    4.7949 C   0  0  0  0  0  0
    4.5034   26.5947    3.7994 C   0  0  0  0  0  0
    4.2468   25.2745    4.1768 C   0  0  0  0  0  0
    4.2895   24.8521    5.4656 N   0  0  0  0  0  0
    4.5982   25.7667    6.4209 C   0  0  0  0  0  0
    1.9720   29.5879    8.4068 C   0  0  0  0  0  0
    1.5317   30.6517    7.6617 N   0  0  0  0  0  0
    0.3565   30.9266    8.1758 C   0  0  0  0  0  0
   -0.0137   30.1204    9.2381 N   0  0  0  0  0  0
   -1.2342   30.1527   10.0387 C   0  0  0  0  0  0
   -2.0571   31.4337    9.8382 C   0  0  0  0  0  0
   -3.0633   31.5074    8.7239 C   0  0  0  0  0  0
   -3.5194   31.4203   10.1748 C   0  0  0  0  0  0
    1.0132   29.2123    9.3762 C   0  0  0  0  0  0
    1.1103   28.1771   10.2143 N   0  0  0  0  0  0
    1.9574   24.0438   11.7148 C   0  0  1  0  0  0
    1.0606   23.1319   12.5700 C   0  0  0  0  0  0
    2.4580   23.2857   10.6227 O   0  0  0  0  0  0
   -2.0082   24.8403   10.1769 H   0  0  0  0  0  0
   -1.1264   23.5723   10.9784 H   0  0  0  0  0  0
   -1.4020   25.1162   11.8014 H   0  0  0  0  0  0
   -0.1663   26.1698    9.8207 H   0  0  0  0  0  0
    0.4443   24.6472    9.3758 H   0  0  0  0  0  0
    0.9703   25.9267   12.1134 H   0  0  0  0  0  0
    3.3242   25.8025   10.5368 H   0  0  0  0  0  0
    4.0958   29.8773    6.8535 H   0  0  0  0  0  0
    6.0976   28.6520    6.9749 H   0  0  0  0  0  0
    5.4889   27.5579    8.1552 H   0  0  0  0  0  0
    5.0325   28.5477    4.5371 H   0  0  0  0  0  0
    4.4628   26.8833    2.7593 H   0  0  0  0  0  0
    4.0064   24.5315    3.4282 H   0  0  0  0  0  0
    4.6128   25.4081    7.4413 H   0  0  0  0  0  0
   -0.2988   31.7166    7.8403 H   0  0  0  0  0  0
   -0.9466   30.0684   11.0878 H   0  0  0  0  0  0
   -1.8199   29.2623    9.7964 H   0  0  0  0  0  0
   -1.5037   32.3355   10.1003 H   0  0  0  0  0  0
   -3.1885   30.6510    8.0671 H   0  0  0  0  0  0
   -3.1364   32.4446    8.1800 H   0  0  0  0  0  0
   -3.9361   32.2977   10.6691 H   0  0  0  0  0  0
   -3.9413   30.4922   10.5612 H   0  0  0  0  0  0
    2.8180   24.2922   12.3396 H   0  0  0  0  0  0
    0.4604   23.7006   13.2837 H   0  0  0  0  0  0
    0.3877   22.5212   11.9699 H   0  0  0  0  0  0
    1.6623   22.4296   13.1419 H   0  0  0  0  0  0
    1.8547   23.3980    9.8813 H   0  0  0  0  0  0
  1  2  1  0  0  0
  1 29  1  0  0  0
  1 30  1  0  0  0
  1 31  1  0  0  0
  2  3  1  0  0  0
  2 32  1  0  0  0
  2 33  1  0  0  0
  3  4  1  0  0  0
  3 26  1  0  0  0
  3 34  1  0  0  0
  4  5  1  0  0  0
  4 35  1  0  0  0
  5  6  2  0  0  0
  5 25  1  0  0  0
  6  7  1  0  0  0
  7  8  1  0  0  0
  7 16  2  0  0  0
  8  9  1  0  0  0
  8 36  1  0  0  0
  9 10  1  0  0  0
  9 37  1  0  0  0
  9 38  1  0  0  0
 10 11  2  0  0  0
 10 15  1  0  0  0
 11 12  1  0  0  0
 11 39  1  0  0  0
 12 13  2  0  0  0
 12 40  1  0  0  0
 13 14  1  0  0  0
 13 41  1  0  0  0
 14 15  2  0  0  0
 15 42  1  0  0  0
 16 17  1  0  0  0
 16 24  1  0  0  0
 17 18  2  0  0  0
 18 19  1  0  0  0
 18 43  1  0  0  0
 19 20  1  0  0  0
 19 24  1  0  0  0
 20 21  1  0  0  0
 20 44  1  0  0  0
 20 45  1  0  0  0
 21 22  1  0  0  0
 21 23  1  0  0  0
 21 46  1  0  0  0
 22 23  1  0  0  0
 22 47  1  0  0  0
 22 48  1  0  0  0
 23 49  1  0  0  0
 23 50  1  0  0  0
 24 25  2  0  0  0
 26 27  1  0  0  0
 26 28  1  0  0  0
 26 51  1  0  0  0
 27 52  1  0  0  0
 27 53  1  0  0  0
 27 54  1  0  0  0
 28 55  1  0  0  0
M  END
> <s_m_entry_id>
32827

> <s_m_entry_name>
dock_pv.228

> <s_m_Source_Path>
/home/csk/Desktop/cluster/DUD-E-result/cdk2

> <s_m_Source_File>
dock_pv.maegz

> <i_m_Source_File_Index>
228

> <chembl_id>
CHEMBL3655766

> <chembl_pref_name>
None

> <i_lp_mmshare_version>
53161

> <i_f3d_flags>
0

> <r_lp_tautomer_probability>
1

> <s_lp_Force_Field>
OPLS_2005

> <r_lp_Energy>
26.705677

> <b_lp_Chiralities_Consistent>
1

> <s_lp_Variant>
CHEMBL301_lig1398-1

> <s_i_glide_gridfile>
glide-grid_1h00

> <i_i_glide_lignum>
1898

> <i_i_glide_rotatable_bonds>
10

> <r_i_docking_score>
-7.6773478279704

> <r_i_glide_ligand_efficiency>
-0.274190993856086

> <r_i_glide_ligand_efficiency_sa>
-0.832605347206214

> <r_i_glide_ligand_efficiency_ln>
-1.77215729542277

> <r_i_glide_gscore>
-7.6773478279704

> <r_i_glide_lipo>
-2.22873492119504

> <r_i_glide_hbond>
-0.534935221377179

> <r_i_glide_metal>
0

> <r_i_glide_rewards>
-2.9813799716654

> <r_i_glide_evdw>
-43.3021965026855

> <r_i_glide_ecoul>
-5.3465313911438

> <r_i_glide_erotb>
1.06712894703627

> <r_i_glide_esite>
-0.0323371269632068

> <r_i_glide_emodel>
-69.4730202680169

> <r_i_glide_energy>
-48.6487278938293

> <r_i_glide_einternal>
4.65056085586548

> <i_i_glide_confnum>
89

> <i_i_glide_posenum>
227

> <r_i_glide_eff_state_penalty>
0

> <s_user_duplicate_titles>
CHEMBL301_lig1398

> <s_m_subgroup_title>
dock_pv

> <s_m_subgroupid>
dock_pv

> <b_m_subgroup_collapsed>
1

$$$$
CHEMBL301_lig410
                    3D
 Schrodinger Suite 2021-1.
 58 62  0  0  1  0            999 V2000
    0.8359   31.3288    7.8773 N   0  0  0  0  0  0
    1.5212   30.1772    8.0973 C   0  0  0  0  0  0
    1.0755   29.1851    8.9760 C   0  0  0  0  0  0
   -0.1342   29.3395    9.6440 C   0  0  0  0  0  0
   -0.2975   31.5021    8.5747 C   0  0  0  0  0  0
   -0.7915   30.5237    9.4396 N   0  0  0  0  0  0
   -1.9555   30.9547    9.9783 N   0  0  0  0  0  0
   -2.0625   32.1616    9.4559 C   0  0  0  0  0  0
   -1.1339   32.5665    8.6072 N   0  0  0  0  0  0
   -0.7137   28.3321   10.4334 N   0  0  0  0  0  0
   -0.2714   27.0452   10.7832 C   0  0  0  0  0  0
    1.0726   26.7538   11.0350 C   0  0  0  0  0  0
    1.4641   25.4646   11.3827 C   0  0  0  0  0  0
    0.5031   24.4617   11.5079 C   0  0  0  0  0  0
   -0.8412   24.7442   11.2605 C   0  0  0  0  0  0
   -1.2256   26.0362   10.9103 C   0  0  0  0  0  0
    0.9822   22.8154   12.0329 S   0  0  0  0  0  0
    0.6529   21.9046   10.9319 O   0  0  0  0  0  0
    2.3470   22.8886   12.5701 O   0  0  0  0  0  0
    2.7056   30.0367    7.3615 N   0  0  0  0  0  0
    3.4737   28.7948    7.2453 C   0  0  2  0  0  0
    4.6809   28.7680    8.1766 C   0  0  0  0  0  0
    5.2593   27.3382    8.1758 C   0  0  0  0  0  0
    5.6195   26.8251    6.7583 C   0  0  2  0  0  0
    4.5475   27.1243    5.6740 C   0  0  0  0  0  0
    3.9224   28.5343    5.7964 C   0  0  0  0  0  0
    6.1031   25.4602    6.7384 N   0  0  0  0  0  0
   -0.0881   22.3948   13.4029 C   0  0  0  0  0  0
   -0.5920   21.0967   13.5189 C   0  0  0  0  0  0
   -1.4402   20.7783   14.5751 C   0  0  0  0  0  0
   -1.7988   21.7574   15.4959 C   0  0  0  0  0  0
   -1.2999   23.0535   15.3758 C   0  0  0  0  0  0
   -0.4298   23.3705   14.3399 C   0  0  0  0  0  0
    1.6306   28.2772    9.0883 H   0  0  0  0  0  0
   -2.8938   32.8000    9.7184 H   0  0  0  0  0  0
   -1.6718   28.5417   10.6741 H   0  0  0  0  0  0
    1.8239   27.5289   11.0278 H   0  0  0  0  0  0
    2.5073   25.2694   11.5949 H   0  0  0  0  0  0
   -1.5904   23.9733   11.3614 H   0  0  0  0  0  0
   -2.2708   26.2426   10.7342 H   0  0  0  0  0  0
    3.0748   30.8503    6.8852 H   0  0  0  0  0  0
    2.8579   27.9644    7.5600 H   0  0  0  0  0  0
    4.3879   29.0496    9.1840 H   0  0  0  0  0  0
    5.4339   29.4897    7.8532 H   0  0  0  0  0  0
    6.1315   27.3016    8.8257 H   0  0  0  0  0  0
    4.5075   26.6787    8.6120 H   0  0  0  0  0  0
    6.4582   27.4516    6.4732 H   0  0  0  0  0  0
    4.9726   27.0077    4.6753 H   0  0  0  0  0  0
    3.7300   26.4090    5.7753 H   0  0  0  0  0  0
    4.6509   29.2836    5.4805 H   0  0  0  0  0  0
    3.0777   28.6247    5.1128 H   0  0  0  0  0  0
    5.3359   24.8322    6.9288 H   0  0  0  0  0  0
    6.4300   25.2381    5.8081 H   0  0  0  0  0  0
   -0.3404   20.3325   12.7949 H   0  0  0  0  0  0
   -1.8323   19.7753   14.6599 H   0  0  0  0  0  0
   -2.4735   21.5059   16.3010 H   0  0  0  0  0  0
   -1.5913   23.8151   16.0773 H   0  0  0  0  0  0
   -0.0432   24.3763   14.2547 H   0  0  0  0  0  0
  1  2  2  0  0  0
  1  5  1  0  0  0
  2 20  1  0  0  0
  2  3  1  0  0  0
  3  4  2  0  0  0
  3 34  1  0  0  0
  4  6  1  0  0  0
  4 10  1  0  0  0
  5  9  2  0  0  0
  5  6  1  0  0  0
  6  7  1  0  0  0
  7  8  2  0  0  0
  8  9  1  0  0  0
  8 35  1  0  0  0
 10 11  1  0  0  0
 10 36  1  0  0  0
 11 16  2  0  0  0
 11 12  1  0  0  0
 12 13  2  0  0  0
 12 37  1  0  0  0
 13 14  1  0  0  0
 13 38  1  0  0  0
 14 17  1  0  0  0
 14 15  2  0  0  0
 15 16  1  0  0  0
 15 39  1  0  0  0
 16 40  1  0  0  0
 17 18  2  0  0  0
 17 19  2  0  0  0
 17 28  1  0  0  0
 20 21  1  0  0  0
 20 41  1  0  0  0
 21 22  1  0  0  0
 21 26  1  0  0  0
 21 42  1  0  0  0
 22 23  1  0  0  0
 22 43  1  0  0  0
 22 44  1  0  0  0
 23 24  1  0  0  0
 23 45  1  0  0  0
 23 46  1  0  0  0
 24 25  1  0  0  0
 24 27  1  0  0  0
 24 47  1  0  0  0
 25 26  1  0  0  0
 25 48  1  0  0  0
 25 49  1  0  0  0
 26 50  1  0  0  0
 26 51  1  0  0  0
 27 52  1  0  0  0
 27 53  1  0  0  0
 28 29  2  0  0  0
 28 33  1  0  0  0
 29 30  1  0  0  0
 29 54  1  0  0  0
 30 31  2  0  0  0
 30 55  1  0  0  0
 31 32  1  0  0  0
 31 56  1  0  0  0
 32 33  2  0  0  0
 32 57  1  0  0  0
 33 58  1  0  0  0
M  END
> <s_m_entry_id>
32828

> <s_m_entry_name>
dock_pv.229

> <s_m_Source_Path>
/home/csk/Desktop/cluster/DUD-E-result/cdk2

> <s_m_Source_File>
dock_pv.maegz

> <i_m_Source_File_Index>
229

> <chembl_id>
CHEMBL382607

> <chembl_pref_name>
None

> <i_lp_mmshare_version>
53161

> <i_f3d_flags>
0

> <r_lp_tautomer_probability>
1

> <s_lp_Force_Field>
OPLS_2005

> <r_lp_Energy>
24.238594

> <b_lp_Chiralities_Consistent>
1

> <s_lp_Variant>
CHEMBL301_lig410-1

> <s_i_glide_gridfile>
glide-grid_1h00

> <i_i_glide_lignum>
598

> <i_i_glide_rotatable_bonds>
6

> <r_i_docking_score>
-7.67544204975728

> <r_i_glide_ligand_efficiency>
-0.232589153022948

> <r_i_glide_ligand_efficiency_sa>
-0.746037692236249

> <r_i_glide_ligand_efficiency_ln>
-1.70697857055399

> <r_i_glide_gscore>
-7.67544204975728

> <r_i_glide_lipo>
-2.5169316826568

> <r_i_glide_hbond>
-0.269579973711532

> <r_i_glide_metal>
0

> <r_i_glide_rewards>
-2.08489597521171

> <r_i_glide_evdw>
-48.4085121154785

> <r_i_glide_ecoul>
-5.98434543609619

> <r_i_glide_erotb>
0.56270080681016

> <r_i_glide_esite>
-0.0486578037990436

> <r_i_glide_emodel>
-72.396334827755

> <r_i_glide_energy>
-54.3928575515747

> <r_i_glide_einternal>
11.9625635147095

> <i_i_glide_confnum>
8

> <i_i_glide_posenum>
296

> <r_i_glide_eff_state_penalty>
0

> <s_user_duplicate_titles>
CHEMBL301_lig410,341803

> <s_m_subgroup_title>
dock_pv

> <s_m_subgroupid>
dock_pv

> <b_m_subgroup_collapsed>
1

$$$$
CHEMBL301_lig46
                    3D
 Schrodinger Suite 2021-1.
 62 67  0  0  1  0            999 V2000
   -1.6894   31.9074    9.4266 C   0  0  0  0  0  0
   -1.4596   30.5764    9.8363 C   0  0  0  0  0  0
   -0.3102   29.8721    9.3729 C   0  0  0  0  0  0
    0.5631   30.5041    8.4195 C   0  0  0  0  0  0
    0.2923   31.8308    8.0599 C   0  0  0  0  0  0
   -0.7895   32.5313    8.5759 C   0  0  0  0  0  0
   -0.0614   28.6014    9.8158 N   0  0  0  0  0  0
   -0.8577   28.0209   10.7552 C   0  0  0  0  0  0
   -2.0175   28.6498   11.2075 C   0  0  0  0  0  0
   -2.3421   29.9076   10.7055 C   0  0  0  0  0  0
    1.6746   29.8462    7.8913 N   0  0  0  0  0  0
    2.3655   30.2523    6.6685 C   0  0  0  0  0  0
    3.2579   29.1074    6.0681 C   0  0  0  0  0  0
    4.3247   28.6032    7.0454 C   0  0  0  0  0  0
    3.6138   28.2309    8.3411 C   0  0  0  0  0  0
    2.7140   29.3829    8.8205 C   0  0  0  0  0  0
    5.1619   27.5426    6.5204 N   0  0  0  0  0  0
   -0.4445   26.7344   11.2153 N   0  0  0  0  0  0
   -0.8317   25.9878   12.3358 C   0  0  0  0  0  0
   -0.1355   24.7549   12.1907 C   0  0  0  0  0  0
    0.6686   24.7480   11.0932 N   0  0  0  0  0  0
    0.4887   25.9288   10.5768 C   0  0  0  0  0  0
   -1.6595   26.2071   13.4506 C   0  0  0  0  0  0
   -1.7661   25.1648   14.3816 C   0  0  0  0  0  0
   -1.1112   23.9369   14.2394 C   0  0  0  0  0  0
   -0.2957   23.7238   13.1198 C   0  0  0  0  0  0
   -1.2994   22.9934   15.2383 O   0  0  0  0  0  0
   -0.8017   21.6631   15.0352 C   0  0  0  0  0  0
   -0.9964   20.7405   16.2617 C   0  0  0  0  0  0
   -0.3599   21.2733   17.5536 C   0  0  0  0  0  0
   -1.7032   21.4405   18.1749 O   0  0  0  0  0  0
   -2.3569   20.8563   16.9659 C   0  0  0  0  0  0
   -0.5991   19.2864   15.9309 C   0  0  0  0  0  0
   -2.5520   32.4433    9.7974 H   0  0  0  0  0  0
    0.9435   32.3548    7.3765 H   0  0  0  0  0  0
   -0.9508   33.5571    8.2768 H   0  0  0  0  0  0
   -2.7013   28.1754   11.8919 H   0  0  0  0  0  0
   -3.2619   30.4031   10.9758 H   0  0  0  0  0  0
    1.6588   30.6113    5.9196 H   0  0  0  0  0  0
    2.8930   31.1469    6.9753 H   0  0  0  0  0  0
    2.6157   28.2796    5.7722 H   0  0  0  0  0  0
    3.7452   29.4541    5.1590 H   0  0  0  0  0  0
    4.9713   29.4516    7.2769 H   0  0  0  0  0  0
    4.3420   27.9891    9.1163 H   0  0  0  0  0  0
    2.9996   27.3428    8.2143 H   0  0  0  0  0  0
    3.3451   30.2523    8.9760 H   0  0  0  0  0  0
    2.3025   29.0928    9.7766 H   0  0  0  0  0  0
    5.7657   27.9106    5.7921 H   0  0  0  0  0  0
    5.7795   27.2115    7.2481 H   0  0  0  0  0  0
    1.0055   26.2889    9.7011 H   0  0  0  0  0  0
   -2.1786   27.1375   13.6293 H   0  0  0  0  0  0
   -2.3868   25.3187   15.2513 H   0  0  0  0  0  0
    0.2400   22.8015   12.9671 H   0  0  0  0  0  0
    0.2678   21.6937   14.8203 H   0  0  0  0  0  0
   -1.3061   21.2324   14.1677 H   0  0  0  0  0  0
    0.1206   22.2507   17.4868 H   0  0  0  0  0  0
    0.2103   20.5566   18.1484 H   0  0  0  0  0  0
   -2.8363   19.9160   17.2505 H   0  0  0  0  0  0
   -3.0596   21.5808   16.5539 H   0  0  0  0  0  0
    0.4501   19.2161   15.6439 H   0  0  0  0  0  0
   -0.7495   18.6174   16.7797 H   0  0  0  0  0  0
   -1.1903   18.8926   15.1036 H   0  0  0  0  0  0
  1  2  2  0  0  0
  1  6  1  0  0  0
  1 34  1  0  0  0
  2 10  1  0  0  0
  2  3  1  0  0  0
  3  4  2  0  0  0
  3  7  1  0  0  0
  4  5  1  0  0  0
  4 11  1  0  0  0
  5  6  2  0  0  0
  5 35  1  0  0  0
  6 36  1  0  0  0
  7  8  2  0  0  0
  8  9  1  0  0  0
  8 18  1  0  0  0
  9 10  2  0  0  0
  9 37  1  0  0  0
 10 38  1  0  0  0
 11 12  1  0  0  0
 11 16  1  0  0  0
 12 13  1  0  0  0
 12 39  1  0  0  0
 12 40  1  0  0  0
 13 14  1  0  0  0
 13 41  1  0  0  0
 13 42  1  0  0  0
 14 15  1  0  0  0
 14 17  1  0  0  0
 14 43  1  0  0  0
 15 16  1  0  0  0
 15 44  1  0  0  0
 15 45  1  0  0  0
 16 46  1  0  0  0
 16 47  1  0  0  0
 17 48  1  0  0  0
 17 49  1  0  0  0
 18 19  1  0  0  0
 18 22  1  0  0  0
 19 23  1  0  0  0
 19 20  2  0  0  0
 20 21  1  0  0  0
 20 26  1  0  0  0
 21 22  2  0  0  0
 22 50  1  0  0  0
 23 24  2  0  0  0
 23 51  1  0  0  0
 24 25  1  0  0  0
 24 52  1  0  0  0
 25 26  2  0  0  0
 25 27  1  0  0  0
 26 53  1  0  0  0
 27 28  1  0  0  0
 28 29  1  0  0  0
 28 54  1  0  0  0
 28 55  1  0  0  0
 29 30  1  0  0  0
 29 32  1  0  0  0
 29 33  1  0  0  0
 30 31  1  0  0  0
 30 56  1  0  0  0
 30 57  1  0  0  0
 31 32  1  0  0  0
 32 58  1  0  0  0
 32 59  1  0  0  0
 33 60  1  0  0  0
 33 61  1  0  0  0
 33 62  1  0  0  0
M  END
> <s_m_entry_id>
32829

> <s_m_entry_name>
dock_pv.230

> <s_m_Source_Path>
/home/csk/Desktop/cluster/DUD-E-result/cdk2

> <s_m_Source_File>
dock_pv.maegz

> <i_m_Source_File_Index>
230

> <chembl_id>
CHEMBL2105728

> <chembl_pref_name>
CRENOLANIB

> <i_lp_mmshare_version>
53161

> <i_f3d_flags>
0

> <r_lp_tautomer_probability>
1

> <s_lp_Force_Field>
OPLS_2005

> <r_lp_Energy>
51.175687

> <b_lp_Chiralities_Consistent>
1

> <s_lp_Variant>
CHEMBL301_lig46-1

> <s_i_glide_gridfile>
glide-grid_1h00

> <i_i_glide_lignum>
123

> <i_i_glide_rotatable_bonds>
5

> <r_i_docking_score>
-7.66852110129489

> <r_i_glide_ligand_efficiency>
-0.232379427311966

> <r_i_glide_ligand_efficiency_sa>
-0.745364989819177

> <r_i_glide_ligand_efficiency_ln>
-1.70543938745071

> <r_i_glide_gscore>
-7.66852110129489

> <r_i_glide_lipo>
-2.88929058168903

> <r_i_glide_hbond>
-0.324370813283213

> <r_i_glide_metal>
0

> <r_i_glide_rewards>
-1.62657522639931

> <r_i_glide_evdw>
-40.5698280334473

> <r_i_glide_ecoul>
-8.71945285797119

> <r_i_glide_erotb>
0.508124850444701

> <r_i_glide_esite>
0

> <r_i_glide_emodel>
-68.3958646965868

> <r_i_glide_energy>
-49.2892808914185

> <r_i_glide_einternal>
4.93450450897217

> <i_i_glide_confnum>
12

> <i_i_glide_posenum>
367

> <r_i_glide_eff_state_penalty>
0

> <s_user_duplicate_titles>
CHEMBL301_lig46

> <s_m_subgroup_title>
dock_pv

> <s_m_subgroupid>
dock_pv

> <b_m_subgroup_collapsed>
1

$$$$
CHEMBL301_lig1326
                    3D
 Schrodinger Suite 2021-1.
 50 51  0  0  1  0            999 V2000
    8.1047   24.2967    6.0694 C   0  0  0  0  0  0
    7.0570   25.4142    5.9529 C   0  0  0  0  0  0
    5.9285   25.4304    7.4748 S   0  0  2  0  0  0
    6.8986   25.8531    8.5760 N   0  0  0  0  0  0
    5.1088   24.2156    7.5077 O   0  0  0  0  0  0
    4.8505   26.8488    7.3589 C   0  0  0  0  0  0
    4.0639   27.2206    8.4560 C   0  0  0  0  0  0
    3.2745   28.3620    8.3870 C   0  0  0  0  0  0
    3.2076   29.0896    7.1961 C   0  0  0  0  0  0
    2.4248   30.2489    7.0593 N   0  0  0  0  0  0
    1.2855   30.7029    7.7352 C   0  0  0  0  0  0
    0.9262   31.9861    7.4803 N   0  0  0  0  0  0
   -0.1365   32.4680    8.1760 C   0  0  0  0  0  0
   -0.8647   31.6843    9.0732 C   0  0  0  0  0  0
   -2.3399   32.4355   10.0232 Br  0  0  0  0  0  0
   -0.4420   30.3598    9.2532 C   0  0  0  0  0  0
   -1.1070   29.5325   10.1737 N   0  0  0  0  0  0
   -0.3983   28.4889   10.9312 C   0  0  2  0  0  0
   -0.1199   27.2374   10.0713 C   0  0  0  0  0  0
   -1.0838   28.1774   12.2987 C   0  0  0  0  0  0
   -1.0934   29.4253   13.2026 C   0  0  0  0  0  0
   -2.4996   27.5872   12.1343 C   0  0  0  0  0  0
   -0.3382   27.2030   13.0066 O   0  0  0  0  0  0
    0.6372   29.8729    8.5888 N   0  0  0  0  0  0
    3.9553   28.6788    6.0915 C   0  0  0  0  0  0
    4.7918   27.5775    6.1734 C   0  0  0  0  0  0
    8.7466   24.2717    5.1897 H   0  0  0  0  0  0
    8.7435   24.4418    6.9414 H   0  0  0  0  0  0
    7.6313   23.3200    6.1645 H   0  0  0  0  0  0
    6.4257   25.2702    5.0762 H   0  0  0  0  0  0
    7.5310   26.3943    5.8798 H   0  0  0  0  0  0
    6.4567   25.8524    9.5011 H   0  0  0  0  0  0
    4.0667   26.6513    9.3748 H   0  0  0  0  0  0
    2.7239   28.6645    9.2634 H   0  0  0  0  0  0
    2.8420   30.9431    6.4554 H   0  0  0  0  0  0
   -0.4034   33.4989    7.9925 H   0  0  0  0  0  0
   -1.8610   29.9834   10.6723 H   0  0  0  0  0  0
    0.5832   28.9040   11.1741 H   0  0  0  0  0  0
    0.2206   26.3855   10.6593 H   0  0  0  0  0  0
   -1.0008   26.9230    9.5105 H   0  0  0  0  0  0
    0.6754   27.4517    9.3669 H   0  0  0  0  0  0
   -1.6589   30.2408   12.7548 H   0  0  0  0  0  0
   -0.0871   29.8017   13.3746 H   0  0  0  0  0  0
   -1.5417   29.2160   14.1737 H   0  0  0  0  0  0
   -3.2014   28.3345   11.7637 H   0  0  0  0  0  0
   -2.5117   26.7435   11.4435 H   0  0  0  0  0  0
   -2.8916   27.2175   13.0812 H   0  0  0  0  0  0
    0.5905   27.4580   13.0092 H   0  0  0  0  0  0
    3.9240   29.2476    5.1740 H   0  0  0  0  0  0
    5.3830   27.3109    5.3113 H   0  0  0  0  0  0
  1  2  1  0  0  0
  1 27  1  0  0  0
  1 28  1  0  0  0
  1 29  1  0  0  0
  2  3  1  0  0  0
  2 30  1  0  0  0
  2 31  1  0  0  0
  3  4  2  0  0  0
  3  5  2  0  0  0
  3  6  1  0  0  0
  4 32  1  0  0  0
  6  7  2  0  0  0
  6 26  1  0  0  0
  7  8  1  0  0  0
  7 33  1  0  0  0
  8  9  2  0  0  0
  8 34  1  0  0  0
  9 10  1  0  0  0
  9 25  1  0  0  0
 10 11  1  0  0  0
 10 35  1  0  0  0
 11 12  2  0  0  0
 11 24  1  0  0  0
 12 13  1  0  0  0
 13 14  2  0  0  0
 13 36  1  0  0  0
 14 15  1  0  0  0
 14 16  1  0  0  0
 16 17  1  0  0  0
 16 24  2  0  0  0
 17 18  1  0  0  0
 17 37  1  0  0  0
 18 19  1  0  0  0
 18 20  1  0  0  0
 18 38  1  0  0  0
 19 39  1  0  0  0
 19 40  1  0  0  0
 19 41  1  0  0  0
 20 21  1  0  0  0
 20 22  1  0  0  0
 20 23  1  0  0  0
 21 42  1  0  0  0
 21 43  1  0  0  0
 21 44  1  0  0  0
 22 45  1  0  0  0
 22 46  1  0  0  0
 22 47  1  0  0  0
 23 48  1  0  0  0
 25 26  2  0  0  0
 25 49  1  0  0  0
 26 50  1  0  0  0
M  END
> <s_m_entry_id>
32830

> <s_m_entry_name>
dock_pv.231

> <s_m_Source_Path>
/home/csk/Desktop/cluster/DUD-E-result/cdk2

> <s_m_Source_File>
dock_pv.maegz

> <i_m_Source_File_Index>
231

> <chembl_id>
CHEMBL3648123

> <chembl_pref_name>
None

> <i_lp_mmshare_version>
53161

> <i_f3d_flags>
0

> <r_lp_tautomer_probability>
0.999999624730965

> <s_lp_Force_Field>
OPLS_2005

> <r_lp_Energy>
10.39632

> <b_lp_Chiralities_Consistent>
1

> <s_lp_Variant>
CHEMBL301_lig1326-2

> <s_i_glide_gridfile>
glide-grid_1h00

> <i_i_glide_lignum>
1749

> <i_i_glide_rotatable_bonds>
8

> <r_i_docking_score>
-7.6654549958977

> <r_i_glide_ligand_efficiency>
-0.294825192149912

> <r_i_glide_ligand_efficiency_sa>
-0.873418471663

> <r_i_glide_ligand_efficiency_ln>
-1.80020695337721

> <r_i_glide_gscore>
-7.6654549958977

> <r_i_glide_lipo>
-2.53634774885892

> <r_i_glide_hbond>
-0.587651125598204

> <r_i_glide_metal>
0

> <r_i_glide_rewards>
-1.47643061914904

> <r_i_glide_evdw>
-38.9642219543457

> <r_i_glide_ecoul>
-12.2106504440308

> <r_i_glide_erotb>
0.714783162030355

> <r_i_glide_esite>
0

> <r_i_glide_emodel>
-71.8360184076214

> <r_i_glide_energy>
-51.1748723983765

> <r_i_glide_einternal>
6.89473342895508

> <i_i_glide_confnum>
184

> <i_i_glide_posenum>
1

> <r_i_glide_eff_state_penalty>
0

> <s_user_duplicate_titles>
CHEMBL301_lig1326

> <s_m_subgroup_title>
dock_pv

> <s_m_subgroupid>
dock_pv

> <b_m_subgroup_collapsed>
1

$$$$
CHEMBL301_lig665
                    3D
 Schrodinger Suite 2021-1.
 30 32  0  0  1  0            999 V2000
    0.3286   30.6058    8.2700 C   0  0  0  0  0  0
   -0.3443   31.7912    8.4974 C   0  0  0  0  0  0
    0.3834   32.7040    7.7760 N   0  0  0  0  0  0
    1.4210   32.1821    7.1121 N   0  0  0  0  0  0
    1.4375   30.9202    7.4673 C   0  0  0  0  0  0
    2.4580   30.0911    7.0579 N   0  0  0  0  0  0
    2.9780   29.1013    7.8199 C   0  0  0  0  0  0
    4.0585   28.2520    7.1835 C   0  0  0  0  0  0
    2.6142   28.8618    8.9757 O   0  0  0  0  0  0
   -1.5926   32.1371    9.2817 C   0  0  0  0  0  0
    4.8705   27.4526    8.0003 C   0  0  0  0  0  0
    5.7872   26.5701    7.4400 C   0  0  0  0  0  0
    5.8991   26.4771    6.0567 C   0  0  0  0  0  0
    5.1121   27.2728    5.2280 C   0  0  0  0  0  0
    4.2014   28.1663    5.7873 C   0  0  0  0  0  0
   -2.7666   31.1855    9.2750 C   0  0  0  0  0  0
   -1.9414   31.3607   10.5295 C   0  0  0  0  0  0
    7.1486   25.2614    5.2968 Br  0  0  0  0  0  0
    0.0787   29.6367    8.6766 H   0  0  0  0  0  0
    0.1454   33.6847    7.6895 H   0  0  0  0  0  0
    3.0548   30.4468    6.3212 H   0  0  0  0  0  0
   -1.8328   33.2018    9.2918 H   0  0  0  0  0  0
    4.7800   27.4835    9.0781 H   0  0  0  0  0  0
    6.3987   25.9514    8.0801 H   0  0  0  0  0  0
    5.2118   27.1974    4.1550 H   0  0  0  0  0  0
    3.5891   28.7555    5.1211 H   0  0  0  0  0  0
   -3.7766   31.5921    9.2530 H   0  0  0  0  0  0
   -2.6866   30.2522    8.7191 H   0  0  0  0  0  0
   -1.2811   30.5539   10.8508 H   0  0  0  0  0  0
   -2.3771   31.8935   11.3750 H   0  0  0  0  0  0
  1  5  1  0  0  0
  1  2  2  0  0  0
  1 19  1  0  0  0
  2 10  1  0  0  0
  2  3  1  0  0  0
  3  4  1  0  0  0
  3 20  1  0  0  0
  4  5  2  0  0  0
  5  6  1  0  0  0
  6  7  1  0  0  0
  6 21  1  0  0  0
  7  9  2  0  0  0
  7  8  1  0  0  0
  8 11  2  0  0  0
  8 15  1  0  0  0
 10 16  1  0  0  0
 10 17  1  0  0  0
 10 22  1  0  0  0
 11 12  1  0  0  0
 11 23  1  0  0  0
 12 13  2  0  0  0
 12 24  1  0  0  0
 13 14  1  0  0  0
 13 18  1  0  0  0
 14 15  2  0  0  0
 14 25  1  0  0  0
 15 26  1  0  0  0
 16 17  1  0  0  0
 16 27  1  0  0  0
 16 28  1  0  0  0
 17 29  1  0  0  0
 17 30  1  0  0  0
M  END
> <s_m_entry_id>
32831

> <s_m_entry_name>
dock_pv.232

> <s_m_Source_Path>
/home/csk/Desktop/cluster/DUD-E-result/cdk2

> <s_m_Source_File>
dock_pv.maegz

> <i_m_Source_File_Index>
232

> <chembl_id>
CHEMBL115319

> <chembl_pref_name>
None

> <i_lp_mmshare_version>
53161

> <i_f3d_flags>
0

> <r_lp_tautomer_probability>
0.5

> <s_lp_Force_Field>
OPLS_2005

> <r_lp_Energy>
15.210324

> <b_lp_Chiralities_Consistent>
1

> <s_lp_Variant>
CHEMBL301_lig665-1

> <s_i_glide_gridfile>
glide-grid_1h00

> <i_i_glide_lignum>
914

> <i_i_glide_rotatable_bonds>
4

> <r_i_docking_score>
-7.65404766860275

> <r_i_glide_ligand_efficiency>
-0.42522487047793

> <r_i_glide_ligand_efficiency_sa>
-1.11440441883495

> <r_i_glide_ligand_efficiency_ln>
-1.96743348577615

> <r_i_glide_gscore>
-7.65404766860275

> <r_i_glide_lipo>
-2.37083620507698

> <r_i_glide_hbond>
-0.720807803885096

> <r_i_glide_metal>
0

> <r_i_glide_rewards>
-2.81560704010095

> <r_i_glide_evdw>
-31.7348155975342

> <r_i_glide_ecoul>
-4.74487638473511

> <r_i_glide_erotb>
0.551675618047252

> <r_i_glide_esite>
0

> <r_i_glide_emodel>
-50.0005216946757

> <r_i_glide_energy>
-36.4796919822693

> <r_i_glide_einternal>
3.69478869438171

> <i_i_glide_confnum>
12

> <i_i_glide_posenum>
96

> <r_i_glide_eff_state_penalty>
0

> <s_user_duplicate_titles>
CHEMBL301_lig665,186839

> <s_m_subgroup_title>
dock_pv

> <s_m_subgroupid>
dock_pv

> <b_m_subgroup_collapsed>
1

$$$$
CHEMBL301_lig291
                    3D
 Schrodinger Suite 2021-1.
 36 38  0  0  1  0            999 V2000
    4.5774   24.8651    3.3760 N   0  0  0  0  0  0
    5.1885   26.4774    3.5768 S   0  0  0  0  0  0
    4.0580   27.4023    3.4479 O   0  0  0  0  0  0
    6.3820   26.6153    2.7370 O   0  0  0  0  0  0
    5.7149   26.4581    5.2713 C   0  0  0  0  0  0
    6.8667   25.7494    5.6196 C   0  0  0  0  0  0
    7.2397   25.6457    6.9567 C   0  0  0  0  0  0
    6.4607   26.2521    7.9402 C   0  0  0  0  0  0
    5.3238   26.9916    7.5984 C   0  0  0  0  0  0
    4.5906   27.5779    8.6377 N   0  0  0  0  0  0
    3.4790   28.3746    8.5717 C   0  0  0  0  0  0
    2.3128   28.4049    9.3129 C   0  0  0  0  0  0
    1.5291   29.4522    8.7884 C   0  0  0  0  0  0
    2.1784   30.0622    7.8128 N   0  0  0  0  0  0
    3.3495   29.4310    7.7131 N   0  0  0  0  0  0
    0.1456   29.8813    9.1923 C   0  0  0  0  0  0
   -0.4387   31.0229    8.6226 C   0  0  0  0  0  0
   -1.7279   31.4098    8.9760 C   0  0  0  0  0  0
   -2.4499   30.6516    9.8886 C   0  0  0  0  0  0
   -3.7234   30.9988   10.1760 F   0  0  0  0  0  0
   -1.8762   29.5327   10.4875 C   0  0  0  0  0  0
   -0.5813   29.1482   10.1397 C   0  0  0  0  0  0
    4.9502   27.0877    6.2550 C   0  0  0  0  0  0
    3.6581   24.7529    3.8044 H   0  0  0  0  0  0
    4.4580   24.6520    2.3630 H   0  0  0  0  0  0
    7.4587   25.2646    4.8558 H   0  0  0  0  0  0
    8.1252   25.0909    7.2291 H   0  0  0  0  0  0
    6.7569   26.1570    8.9751 H   0  0  0  0  0  0
    4.8503   27.1766    9.5364 H   0  0  0  0  0  0
    2.0571   27.7349   10.1193 H   0  0  0  0  0  0
    4.0583   29.7258    7.0541 H   0  0  0  0  0  0
    0.1003   31.6170    7.8988 H   0  0  0  0  0  0
   -2.1783   32.2824    8.5266 H   0  0  0  0  0  0
   -2.4422   28.9635   11.2107 H   0  0  0  0  0  0
   -0.1541   28.2716   10.6036 H   0  0  0  0  0  0
    4.0543   27.6181    5.9723 H   0  0  0  0  0  0
  1  2  1  0  0  0
  1 24  1  0  0  0
  1 25  1  0  0  0
  2  3  2  0  0  0
  2  4  2  0  0  0
  2  5  1  0  0  0
  5  6  2  0  0  0
  5 23  1  0  0  0
  6  7  1  0  0  0
  6 26  1  0  0  0
  7  8  2  0  0  0
  7 27  1  0  0  0
  8  9  1  0  0  0
  8 28  1  0  0  0
  9 10  1  0  0  0
  9 23  2  0  0  0
 10 11  1  0  0  0
 10 29  1  0  0  0
 11 12  2  0  0  0
 11 15  1  0  0  0
 12 13  1  0  0  0
 12 30  1  0  0  0
 13 14  2  0  0  0
 13 16  1  0  0  0
 14 15  1  0  0  0
 15 31  1  0  0  0
 16 17  2  0  0  0
 16 22  1  0  0  0
 17 18  1  0  0  0
 17 32  1  0  0  0
 18 19  2  0  0  0
 18 33  1  0  0  0
 19 20  1  0  0  0
 19 21  1  0  0  0
 21 22  2  0  0  0
 21 34  1  0  0  0
 22 35  1  0  0  0
 23 36  1  0  0  0
M  END
> <s_m_entry_id>
32832

> <s_m_entry_name>
dock_pv.233

> <s_m_Source_Path>
/home/csk/Desktop/cluster/DUD-E-result/cdk2

> <s_m_Source_File>
dock_pv.maegz

> <i_m_Source_File_Index>
233

> <chembl_id>
CHEMBL329040

> <chembl_pref_name>
None

> <i_lp_mmshare_version>
53161

> <i_f3d_flags>
0

> <r_lp_tautomer_probability>
0.157399999843308

> <s_lp_Force_Field>
OPLS_2005

> <r_lp_Energy>
18.523644

> <b_lp_Chiralities_Consistent>
1

> <s_lp_Variant>
CHEMBL301_lig291-2

> <s_i_glide_gridfile>
glide-grid_1h00

> <i_i_glide_lignum>
465

> <i_i_glide_rotatable_bonds>
4

> <r_i_docking_score>
-7.65077662850949

> <r_i_glide_ligand_efficiency>
-0.332642462109108

> <r_i_glide_ligand_efficiency_sa>
-0.945990913099902

> <r_i_glide_ligand_efficiency_ln>
-1.85002716218055

> <r_i_glide_gscore>
-7.65077662850949

> <r_i_glide_lipo>
-2.51095769034122

> <r_i_glide_hbond>
-0.459867995495158

> <r_i_glide_metal>
0

> <r_i_glide_rewards>
-2.03409464408627

> <r_i_glide_evdw>
-31.5757064819336

> <r_i_glide_ecoul>
-9.27826404571533

> <r_i_glide_erotb>
0.511502296574759

> <r_i_glide_esite>
-0.186833664207624

> <r_i_glide_emodel>
-58.591937383127

> <r_i_glide_energy>
-40.8539705276489

> <r_i_glide_einternal>
2.1106436252594

> <i_i_glide_confnum>
6

> <i_i_glide_posenum>
315

> <r_i_glide_eff_state_penalty>
0

> <s_user_duplicate_titles>
CHEMBL301_lig291,166106

> <s_m_subgroup_title>
dock_pv

> <s_m_subgroupid>
dock_pv

> <b_m_subgroup_collapsed>
1

$$$$
CHEMBL301_lig920
                    3D
 Schrodinger Suite 2021-1.
 38 40  0  0  1  0            999 V2000
   -0.7002   29.0239    9.9805 C   0  0  0  0  0  0
   -1.5088   30.1449    9.7192 C   0  0  0  0  0  0
   -1.0724   31.1870    8.8948 C   0  0  0  0  0  0
    0.5569   28.9285    9.3761 C   0  0  0  0  0  0
    1.0091   29.9247    8.4938 C   0  0  0  0  0  0
    0.1728   31.0471    8.2763 C   0  0  0  0  0  0
    0.8580   31.8587    7.3927 N   0  0  0  0  0  0
    1.9994   31.2965    6.9760 N   0  0  0  0  0  0
    2.1534   30.1796    7.6424 C   0  0  0  0  0  0
    3.3156   29.4519    7.4252 N   0  0  0  0  0  0
    3.8596   28.4735    8.1731 C   0  0  0  0  0  0
    5.1832   27.8997    7.6569 C   0  0  0  0  0  0
    3.4012   28.0424    9.2254 O   0  0  0  0  0  0
    5.0148   26.6645    6.7471 C   0  0  0  0  0  0
    4.4851   26.9920    5.3406 C   0  0  0  0  0  0
   -3.1293   30.2341   10.3233 Cl  0  0  0  0  0  0
   -1.1341   27.8957   10.8553 C   0  0  0  0  0  0
   -1.5416   28.1190   12.1754 C   0  0  0  0  0  0
   -1.9171   27.0520   12.9884 C   0  0  0  0  0  0
   -1.8861   25.7551   12.4875 C   0  0  0  0  0  0
   -1.4812   25.5144   11.1783 C   0  0  0  0  0  0
   -1.1049   26.5817   10.3695 C   0  0  0  0  0  0
   -1.8489   32.2690    8.6537 F   0  0  0  0  0  0
    1.1415   28.0454    9.5664 H   0  0  0  0  0  0
    0.5615   32.7552    7.0296 H   0  0  0  0  0  0
    3.8853   29.7996    6.6643 H   0  0  0  0  0  0
    5.7711   27.6200    8.5325 H   0  0  0  0  0  0
    5.7564   28.6712    7.1453 H   0  0  0  0  0  0
    4.3703   25.9247    7.2265 H   0  0  0  0  0  0
    5.9861   26.1796    6.6393 H   0  0  0  0  0  0
    4.3956   26.0880    4.7371 H   0  0  0  0  0  0
    5.1598   27.6715    4.8166 H   0  0  0  0  0  0
    3.5022   27.4607    5.3758 H   0  0  0  0  0  0
   -1.5758   29.1227   12.5755 H   0  0  0  0  0  0
   -2.2442   27.2391   14.0007 H   0  0  0  0  0  0
   -2.1884   24.9300   13.1147 H   0  0  0  0  0  0
   -1.4642   24.5072   10.7906 H   0  0  0  0  0  0
   -0.7907   26.3852    9.3564 H   0  0  0  0  0  0
  1  2  2  0  0  0
  1  4  1  0  0  0
  1 17  1  0  0  0
  2  3  1  0  0  0
  2 16  1  0  0  0
  3  6  2  0  0  0
  3 23  1  0  0  0
  4  5  2  0  0  0
  4 24  1  0  0  0
  5  9  1  0  0  0
  5  6  1  0  0  0
  6  7  1  0  0  0
  7  8  1  0  0  0
  7 25  1  0  0  0
  8  9  2  0  0  0
  9 10  1  0  0  0
 10 11  1  0  0  0
 10 26  1  0  0  0
 11 12  1  0  0  0
 11 13  2  0  0  0
 12 14  1  0  0  0
 12 27  1  0  0  0
 12 28  1  0  0  0
 14 15  1  0  0  0
 14 29  1  0  0  0
 14 30  1  0  0  0
 15 31  1  0  0  0
 15 32  1  0  0  0
 15 33  1  0  0  0
 17 18  2  0  0  0
 17 22  1  0  0  0
 18 19  1  0  0  0
 18 34  1  0  0  0
 19 20  2  0  0  0
 19 35  1  0  0  0
 20 21  1  0  0  0
 20 36  1  0  0  0
 21 22  2  0  0  0
 21 37  1  0  0  0
 22 38  1  0  0  0
M  END
> <s_m_entry_id>
32833

> <s_m_entry_name>
dock_pv.234

> <s_m_Source_Path>
/home/csk/Desktop/cluster/DUD-E-result/cdk2

> <s_m_Source_File>
dock_pv.maegz

> <i_m_Source_File_Index>
234

> <chembl_id>
CHEMBL1086427

> <chembl_pref_name>
None

> <i_lp_mmshare_version>
53161

> <i_f3d_flags>
0

> <r_lp_tautomer_probability>
0.980392156862745

> <s_lp_Force_Field>
OPLS_2005

> <r_lp_Energy>
16.886152

> <b_lp_Chiralities_Consistent>
1

> <s_lp_Variant>
CHEMBL301_lig920-1

> <s_i_glide_gridfile>
glide-grid_1h00

> <i_i_glide_lignum>
1295

> <i_i_glide_rotatable_bonds>
5

> <r_i_docking_score>
-7.64886946855532

> <r_i_glide_ligand_efficiency>
-0.332559542111101

> <r_i_glide_ligand_efficiency_sa>
-0.945755099655846

> <r_i_glide_ligand_efficiency_ln>
-1.84956599361046

> <r_i_glide_gscore>
-7.64886946855532

> <r_i_glide_lipo>
-2.81587623348956

> <r_i_glide_hbond>
-0.280155101794234

> <r_i_glide_metal>
0

> <r_i_glide_rewards>
-2.93391894455706

> <r_i_glide_evdw>
-37.5999145507812

> <r_i_glide_ecoul>
-1.45205342769623

> <r_i_glide_erotb>
0.478884552979034

> <r_i_glide_esite>
0

> <r_i_glide_emodel>
-53.7661441636061

> <r_i_glide_energy>
-39.0519679784775

> <r_i_glide_einternal>
6.20438385009766

> <i_i_glide_confnum>
31

> <i_i_glide_posenum>
3

> <r_i_glide_eff_state_penalty>
0

> <s_user_duplicate_titles>
CHEMBL301_lig920

> <s_m_subgroup_title>
dock_pv

> <s_m_subgroupid>
dock_pv

> <b_m_subgroup_collapsed>
1

$$$$
CHEMBL301_lig1376
                    3D
 Schrodinger Suite 2021-1.
 43 44  0  0  1  0            999 V2000
   -1.7426   26.9014   12.6154 C   0  0  0  0  0  0
   -1.3062   26.6056   11.1676 C   0  0  0  0  0  0
   -0.4286   27.6955   10.4937 C   0  0  2  0  0  0
    0.9577   27.8162   11.1587 C   0  0  0  0  0  0
    1.7307   26.6453   10.9758 O   0  0  0  0  0  0
   -1.2726   29.3096   10.3690 S   0  0  0  0  0  0
   -0.3971   30.3703    9.2423 C   0  0  0  0  0  0
    0.6627   29.8548    8.5593 N   0  0  0  0  0  0
    1.3049   30.6845    7.6903 C   0  0  0  0  0  0
    2.4072   30.2345    6.9528 N   0  0  0  0  0  0
    3.2577   29.1283    7.0830 C   0  0  0  0  0  0
    3.5104   28.5460    8.3198 C   0  0  0  0  0  0
    4.3832   27.4721    8.4102 C   0  0  0  0  0  0
    5.0383   26.9886    7.2759 C   0  0  0  0  0  0
    4.8018   27.5853    6.0367 C   0  0  0  0  0  0
    3.9116   28.6516    5.9444 C   0  0  0  0  0  0
    6.1379   25.5739    7.4068 S   0  0  1  0  0  0
    7.0584   25.9232    8.5760 N   0  0  0  0  0  0
    5.3455   24.3438    7.3292 O   0  0  0  0  0  0
    7.3392   25.6629    5.9626 C   0  0  0  0  0  0
    0.9662   31.9763    7.4519 N   0  0  0  0  0  0
   -0.0665   32.4784    8.1761 C   0  0  0  0  0  0
   -0.7968   31.7061    9.0788 C   0  0  0  0  0  0
   -2.2521   32.4918   10.0321 Br  0  0  0  0  0  0
   -2.3835   26.1052   12.9942 H   0  0  0  0  0  0
   -2.3105   27.8302   12.6821 H   0  0  0  0  0  0
   -0.8907   26.9803   13.2896 H   0  0  0  0  0  0
   -0.7783   25.6512   11.1464 H   0  0  0  0  0  0
   -2.2046   26.4400   10.5761 H   0  0  0  0  0  0
   -0.2668   27.3839    9.4604 H   0  0  0  0  0  0
    1.5156   28.6517   10.7468 H   0  0  0  0  0  0
    0.8571   28.0307   12.2212 H   0  0  0  0  0  0
    2.4660   26.6837   11.5974 H   0  0  0  0  0  0
    2.7948   30.9438    6.3461 H   0  0  0  0  0  0
    3.0439   28.9255    9.2128 H   0  0  0  0  0  0
    4.5381   27.0355    9.3759 H   0  0  0  0  0  0
    5.2954   27.2324    5.1439 H   0  0  0  0  0  0
    3.7423   29.1156    4.9849 H   0  0  0  0  0  0
    6.5645   25.8687    9.4697 H   0  0  0  0  0  0
    7.7980   26.6510    5.9430 H   0  0  0  0  0  0
    8.1052   24.9025    6.1051 H   0  0  0  0  0  0
    6.8011   25.4741    5.0356 H   0  0  0  0  0  0
   -0.3209   33.5137    7.9996 H   0  0  0  0  0  0
  1  2  1  0  0  0
  1 25  1  0  0  0
  1 26  1  0  0  0
  1 27  1  0  0  0
  2  3  1  0  0  0
  2 28  1  0  0  0
  2 29  1  0  0  0
  3  4  1  0  0  0
  3  6  1  0  0  0
  3 30  1  0  0  0
  4  5  1  0  0  0
  4 31  1  0  0  0
  4 32  1  0  0  0
  5 33  1  0  0  0
  6  7  1  0  0  0
  7  8  2  0  0  0
  7 23  1  0  0  0
  8  9  1  0  0  0
  9 10  1  0  0  0
  9 21  2  0  0  0
 10 11  1  0  0  0
 10 34  1  0  0  0
 11 12  2  0  0  0
 11 16  1  0  0  0
 12 13  1  0  0  0
 12 35  1  0  0  0
 13 14  2  0  0  0
 13 36  1  0  0  0
 14 15  1  0  0  0
 14 17  1  0  0  0
 15 16  2  0  0  0
 15 37  1  0  0  0
 16 38  1  0  0  0
 17 18  2  0  0  0
 17 19  2  0  0  0
 17 20  1  0  0  0
 18 39  1  0  0  0
 20 40  1  0  0  0
 20 41  1  0  0  0
 20 42  1  0  0  0
 21 22  1  0  0  0
 22 23  2  0  0  0
 22 43  1  0  0  0
 23 24  1  0  0  0
M  END
> <s_m_entry_id>
32834

> <s_m_entry_name>
dock_pv.235

> <s_m_Source_Path>
/home/csk/Desktop/cluster/DUD-E-result/cdk2

> <s_m_Source_File>
dock_pv.maegz

> <i_m_Source_File_Index>
235

> <chembl_id>
CHEMBL3648127

> <chembl_pref_name>
None

> <i_lp_mmshare_version>
53161

> <i_f3d_flags>
0

> <r_lp_tautomer_probability>
0.999999987636

> <s_lp_Force_Field>
OPLS_2005

> <r_lp_Energy>
2.315922

> <b_lp_Chiralities_Consistent>
1

> <s_lp_Variant>
CHEMBL301_lig1376-3

> <s_i_glide_gridfile>
glide-grid_1h00

> <i_i_glide_lignum>
1845

> <i_i_glide_rotatable_bonds>
8

> <r_i_docking_score>
-7.64881505486906

> <r_i_glide_ligand_efficiency>
-0.318700627286211

> <r_i_glide_ligand_efficiency_sa>
-0.919291684546625

> <r_i_glide_ligand_efficiency_ln>
-1.83071242388279

> <r_i_glide_gscore>
-7.64881505486906

> <r_i_glide_lipo>
-2.57478736401796

> <r_i_glide_hbond>
-0.509666110060946

> <r_i_glide_metal>
0

> <r_i_glide_rewards>
-1.52112575236424

> <r_i_glide_evdw>
-38.7614784240723

> <r_i_glide_ecoul>
-10.9305543899536

> <r_i_glide_erotb>
0.534421251270742

> <r_i_glide_esite>
0

> <r_i_glide_emodel>
-70.5232065148408

> <r_i_glide_energy>
-49.6920328140259

> <r_i_glide_einternal>
4.36886024475098

> <i_i_glide_confnum>
18

> <i_i_glide_posenum>
379

> <r_i_glide_eff_state_penalty>
0

> <s_user_duplicate_titles>
CHEMBL301_lig1376

> <s_m_subgroup_title>
dock_pv

> <s_m_subgroupid>
dock_pv

> <b_m_subgroup_collapsed>
1

$$$$
CHEMBL301_lig163
                    3D
 Schrodinger Suite 2021-1.
 43 46  0  0  1  0            999 V2000
   -0.3154   28.6228   10.3801 C   0  0  0  0  0  0
   -1.5493   28.5830   11.2376 C   0  0  0  0  0  0
   -0.3562   29.8066    9.6881 C   0  0  0  0  0  0
    0.7792   27.7693   10.1948 C   0  0  0  0  0  0
   -2.1743   29.7550   10.9759 N   0  0  0  0  0  0
   -1.4797   30.5148   10.0425 C   0  0  0  0  0  0
    0.6276   30.2526    8.7873 C   0  0  0  0  0  0
    1.7946   29.4382    8.6667 C   0  0  0  0  0  0
    1.8331   28.2155    9.3760 C   0  0  0  0  0  0
    0.8684   26.4066   10.8028 C   0  0  0  0  0  0
    2.0525   25.8490   11.2299 N   0  0  0  0  0  0
    0.3758   31.5262    8.1765 C   0  0  0  0  0  0
   -1.9297   27.7175   12.0210 O   0  0  0  0  0  0
    5.3572   26.2561    7.0969 C   0  0  0  0  0  0
   -1.6855   31.7766    9.4932 C   0  0  0  0  0  0
   -0.1114   25.4424   11.0420 C   0  0  0  0  0  0
    1.8329   24.6011   11.7525 C   0  0  0  0  0  0
    0.4831   24.3262   11.6383 C   0  0  0  0  0  0
    2.8739   29.8745    7.8782 N   0  0  0  0  0  0
    4.4212   25.8415    7.7761 O   0  0  0  0  0  0
   -0.7491   32.2735    8.5757 C   0  0  0  0  0  0
    5.3295   27.4152    6.4203 N   0  0  0  0  0  0
    1.2500   32.0662    7.2927 F   0  0  0  0  0  0
    6.6413   25.4422    6.9999 C   0  0  0  0  0  0
    4.1410   29.1667    7.7361 C   0  0  0  0  0  0
    4.2229   28.3654    6.4267 C   0  0  0  0  0  0
   -2.9896   30.0653   11.4950 H   0  0  0  0  0  0
    2.6732   27.5518    9.2490 H   0  0  0  0  0  0
    2.9549   26.3080   11.1920 H   0  0  0  0  0  0
   -2.5421   32.3754    9.7678 H   0  0  0  0  0  0
   -1.1630   25.5441   10.8131 H   0  0  0  0  0  0
    2.6495   24.0320   12.1648 H   0  0  0  0  0  0
   -0.0195   23.4237   11.9547 H   0  0  0  0  0  0
    2.7289   30.6840    7.2890 H   0  0  0  0  0  0
   -0.8989   33.2561    8.1527 H   0  0  0  0  0  0
    6.1573   27.6911    5.9050 H   0  0  0  0  0  0
    7.1137   25.3817    7.9820 H   0  0  0  0  0  0
    6.4150   24.4303    6.6607 H   0  0  0  0  0  0
    7.3504   25.8856    6.2976 H   0  0  0  0  0  0
    4.9500   29.8967    7.7745 H   0  0  0  0  0  0
    4.3290   28.5284    8.5978 H   0  0  0  0  0  0
    3.2817   27.8535    6.2247 H   0  0  0  0  0  0
    4.3446   29.0540    5.5895 H   0  0  0  0  0  0
  1  2  1  0  0  0
  1  3  1  0  0  0
  1  4  2  0  0  0
  2  5  1  0  0  0
  2 13  2  0  0  0
  3  6  1  0  0  0
  3  7  2  0  0  0
  4  9  1  0  0  0
  4 10  1  0  0  0
  5  6  1  0  0  0
  5 27  1  0  0  0
  6 15  2  0  0  0
  7 12  1  0  0  0
  7  8  1  0  0  0
  8  9  2  0  0  0
  8 19  1  0  0  0
  9 28  1  0  0  0
 10 11  1  0  0  0
 10 16  2  0  0  0
 11 17  1  0  0  0
 11 29  1  0  0  0
 12 21  2  0  0  0
 12 23  1  0  0  0
 14 22  1  0  0  0
 14 20  2  0  0  0
 14 24  1  0  0  0
 15 21  1  0  0  0
 15 30  1  0  0  0
 16 18  1  0  0  0
 16 31  1  0  0  0
 17 18  2  0  0  0
 17 32  1  0  0  0
 18 33  1  0  0  0
 19 25  1  0  0  0
 19 34  1  0  0  0
 21 35  1  0  0  0
 22 26  1  0  0  0
 22 36  1  0  0  0
 24 37  1  0  0  0
 24 38  1  0  0  0
 24 39  1  0  0  0
 25 26  1  0  0  0
 25 40  1  0  0  0
 25 41  1  0  0  0
 26 42  1  0  0  0
 26 43  1  0  0  0
M  END
> <s_m_entry_id>
32835

> <s_m_entry_name>
dock_pv.236

> <s_m_Source_Path>
/home/csk/Desktop/cluster/DUD-E-result/cdk2

> <s_m_Source_File>
dock_pv.maegz

> <i_m_Source_File_Index>
236

> <chembl_id>
CHEMBL312273

> <chembl_pref_name>
None

> <i_lp_mmshare_version>
53161

> <i_f3d_flags>
0

> <r_lp_tautomer_probability>
1

> <s_lp_Force_Field>
OPLS_2005

> <r_lp_Energy>
54.125219

> <b_lp_Chiralities_Consistent>
1

> <s_lp_Variant>
CHEMBL301_lig163-1

> <s_i_glide_gridfile>
glide-grid_1h00

> <i_i_glide_lignum>
303

> <i_i_glide_rotatable_bonds>
6

> <r_i_docking_score>
-7.64820839996997

> <r_i_glide_ligand_efficiency>
-0.294161861537306

> <r_i_glide_ligand_efficiency_sa>
-0.871453357333237

> <r_i_glide_ligand_efficiency_ln>
-1.79615664691428

> <r_i_glide_gscore>
-7.64820839996997

> <r_i_glide_lipo>
-3.16834743041153

> <r_i_glide_hbond>
-0.446290408672215

> <r_i_glide_metal>
0

> <r_i_glide_rewards>
-1.98934612343211

> <r_i_glide_evdw>
-39.8955268859863

> <r_i_glide_ecoul>
-4.78246307373047

> <r_i_glide_erotb>
0.768529046563614

> <r_i_glide_esite>
-0.100607678658835

> <r_i_glide_emodel>
-67.2509502771681

> <r_i_glide_energy>
-44.6779899597168

> <r_i_glide_einternal>
2.866779088974

> <i_i_glide_confnum>
158

> <i_i_glide_posenum>
77

> <r_i_glide_eff_state_penalty>
0

> <s_user_duplicate_titles>
CHEMBL301_lig163,130328

> <s_m_subgroup_title>
dock_pv

> <s_m_subgroupid>
dock_pv

> <b_m_subgroup_collapsed>
1

$$$$
CHEMBL301_lig915
                    3D
 Schrodinger Suite 2021-1.
 32 35  0  0  1  0            999 V2000
    0.0889   31.7847    8.1760 C   0  0  0  0  0  0
    1.5143   29.7950    8.4312 C   0  0  0  0  0  0
    1.1873   31.0114    7.7760 C   0  0  0  0  0  0
    1.9563   31.4875    6.7427 O   0  0  0  0  0  0
    2.5886   29.0520    7.9908 O   0  0  0  0  0  0
   -0.7324   31.3202    9.1944 C   0  0  0  0  0  0
   -1.4220   29.8521   10.7152 C   0  0  0  0  0  0
   -2.2775   30.9454   10.7715 N   0  0  0  0  0  0
   -1.8842   31.9220    9.9247 C   0  0  0  0  0  0
   -0.4643   30.1067    9.7696 C   0  0  0  0  0  0
    0.6368   29.2828    9.4663 C   0  0  0  0  0  0
   -1.3826   28.6619   11.4193 C   0  0  0  0  0  0
   -0.3186   27.7481   11.1781 C   0  0  0  0  0  0
    0.7267   28.0675   10.2312 C   0  0  0  0  0  0
    1.8113   27.1412   10.1217 C   0  0  0  0  0  0
    1.8148   25.9478   10.8446 C   0  0  0  0  0  0
    0.7654   25.6302   11.6929 C   0  0  0  0  0  0
   -0.2820   26.5204   11.8810 C   0  0  0  0  0  0
   -2.3420   33.0520    9.8237 O   0  0  0  0  0  0
    3.8941   29.5912    8.1760 C   0  0  0  0  0  0
    2.8580   25.0667   10.7425 O   0  0  0  0  0  0
   -0.0953   32.7412    7.7065 H   0  0  0  0  0  0
    2.7287   30.9419    6.5596 H   0  0  0  0  0  0
   -3.0174   31.0520   11.4633 H   0  0  0  0  0  0
   -2.1370   28.4288   12.1584 H   0  0  0  0  0  0
    2.6430   27.3332    9.4683 H   0  0  0  0  0  0
    0.7827   24.7007   12.2420 H   0  0  0  0  0  0
   -1.0747   26.2800   12.5750 H   0  0  0  0  0  0
    4.4802   29.4466    7.2685 H   0  0  0  0  0  0
    3.9171   30.6520    8.4186 H   0  0  0  0  0  0
    4.4011   29.0520    8.9760 H   0  0  0  0  0  0
    3.7179   25.4906   10.5760 H   0  0  0  0  0  0
  1  3  2  0  0  0
  1  6  1  0  0  0
  1 22  1  0  0  0
  2  5  1  0  0  0
  2  3  1  0  0  0
  2 11  2  0  0  0
  3  4  1  0  0  0
  4 23  1  0  0  0
  5 20  1  0  0  0
  6 10  2  0  0  0
  6  9  1  0  0  0
  7 12  2  0  0  0
  7 10  1  0  0  0
  7  8  1  0  0  0
  8  9  1  0  0  0
  8 24  1  0  0  0
  9 19  2  0  0  0
 10 11  1  0  0  0
 11 14  1  0  0  0
 12 13  1  0  0  0
 12 25  1  0  0  0
 13 14  2  0  0  0
 13 18  1  0  0  0
 14 15  1  0  0  0
 15 16  2  0  0  0
 15 26  1  0  0  0
 16 17  1  0  0  0
 16 21  1  0  0  0
 17 18  2  0  0  0
 17 27  1  0  0  0
 18 28  1  0  0  0
 20 29  1  0  0  0
 20 30  1  0  0  0
 20 31  1  0  0  0
 21 32  1  0  0  0
M  END
> <s_m_entry_id>
32836

> <s_m_entry_name>
dock_pv.237

> <s_m_Source_Path>
/home/csk/Desktop/cluster/DUD-E-result/cdk2

> <s_m_Source_File>
dock_pv.maegz

> <i_m_Source_File_Index>
237

> <chembl_id>
CHEMBL388956

> <chembl_pref_name>
ARISTOLACTAM AIIIA

> <i_lp_mmshare_version>
53161

> <i_f3d_flags>
0

> <r_lp_tautomer_probability>
1

> <s_lp_Force_Field>
OPLS_2005

> <r_lp_Energy>
63.02296

> <b_lp_Chiralities_Consistent>
1

> <s_lp_Variant>
CHEMBL301_lig915-1

> <s_i_glide_gridfile>
glide-grid_1h00

> <i_i_glide_lignum>
1289

> <i_i_glide_rotatable_bonds>
3

> <r_i_docking_score>
-7.64708111933495

> <r_i_glide_ligand_efficiency>
-0.364146719968331

> <r_i_glide_ligand_efficiency_sa>
-1.00465318845095

> <r_i_glide_ligand_efficiency_ln>
-1.89072535437319

> <r_i_glide_gscore>
-7.64708111933495

> <r_i_glide_lipo>
-2.31287648426517

> <r_i_glide_hbond>
-0.28695204228798

> <r_i_glide_metal>
0

> <r_i_glide_rewards>
-2.03677517588061

> <r_i_glide_evdw>
-30.3374633789062

> <r_i_glide_ecoul>
-9.6134557723999

> <r_i_glide_erotb>
0

> <r_i_glide_esite>
-0.0515858820958899

> <r_i_glide_emodel>
-58.2495526439614

> <r_i_glide_energy>
-39.9509191513062

> <r_i_glide_einternal>
0.722691893577576

> <i_i_glide_confnum>
1

> <i_i_glide_posenum>
114

> <r_i_glide_eff_state_penalty>
0

> <s_user_duplicate_titles>
CHEMBL301_lig915,376676

> <s_m_subgroup_title>
dock_pv

> <s_m_subgroupid>
dock_pv

> <b_m_subgroup_collapsed>
1

$$$$
CHEMBL301_lig666
                    3D
 Schrodinger Suite 2021-1.
 30 32  0  0  1  0            999 V2000
    0.2881   30.5882    8.3487 C   0  0  0  0  0  0
   -0.4027   31.7717    8.5303 C   0  0  0  0  0  0
    0.3125   32.6671    7.7760 N   0  0  0  0  0  0
    1.3712   32.1431    7.1530 N   0  0  0  0  0  0
    1.4049   30.8936    7.5489 C   0  0  0  0  0  0
    2.4580   30.0830    7.1770 N   0  0  0  0  0  0
    2.9220   29.0520    7.9165 C   0  0  0  0  0  0
    4.0581   28.2464    7.3275 C   0  0  0  0  0  0
    2.4634   28.7355    9.0159 O   0  0  0  0  0  0
   -1.6575   32.1363    9.2902 C   0  0  0  0  0  0
    4.2857   28.1943    5.9425 C   0  0  0  0  0  0
    5.2478   27.3292    5.4248 C   0  0  0  0  0  0
    6.0048   26.5359    6.2845 C   0  0  0  0  0  0
    5.8084   26.5991    7.6592 C   0  0  0  0  0  0
    4.8401   27.4519    8.1762 C   0  0  0  0  0  0
   -2.8352   31.1899    9.2935 C   0  0  0  0  0  0
   -2.0140   31.3843   10.5478 C   0  0  0  0  0  0
    7.2049   25.4735    5.6450 Cl  0  0  0  0  0  0
    0.0443   29.6302    8.7861 H   0  0  0  0  0  0
    0.0592   33.6418    7.6567 H   0  0  0  0  0  0
    3.0867   30.4586    6.4798 H   0  0  0  0  0  0
   -1.8900   33.2028    9.2827 H   0  0  0  0  0  0
    3.6999   28.7852    5.2535 H   0  0  0  0  0  0
    5.4146   27.2776    4.3585 H   0  0  0  0  0  0
    6.3922   25.9827    8.3271 H   0  0  0  0  0  0
    4.6818   27.4556    9.2477 H   0  0  0  0  0  0
   -3.8447   31.5984    9.2605 H   0  0  0  0  0  0
   -2.7562   30.2543    8.7442 H   0  0  0  0  0  0
   -1.3624   30.5794   10.8907 H   0  0  0  0  0  0
   -2.4552   31.9383   11.3760 H   0  0  0  0  0  0
  1  5  1  0  0  0
  1  2  2  0  0  0
  1 19  1  0  0  0
  2 10  1  0  0  0
  2  3  1  0  0  0
  3  4  1  0  0  0
  3 20  1  0  0  0
  4  5  2  0  0  0
  5  6  1  0  0  0
  6  7  1  0  0  0
  6 21  1  0  0  0
  7  9  2  0  0  0
  7  8  1  0  0  0
  8 11  2  0  0  0
  8 15  1  0  0  0
 10 16  1  0  0  0
 10 17  1  0  0  0
 10 22  1  0  0  0
 11 12  1  0  0  0
 11 23  1  0  0  0
 12 13  2  0  0  0
 12 24  1  0  0  0
 13 14  1  0  0  0
 13 18  1  0  0  0
 14 15  2  0  0  0
 14 25  1  0  0  0
 15 26  1  0  0  0
 16 17  1  0  0  0
 16 27  1  0  0  0
 16 28  1  0  0  0
 17 29  1  0  0  0
 17 30  1  0  0  0
M  END
> <s_m_entry_id>
32837

> <s_m_entry_name>
dock_pv.238

> <s_m_Source_Path>
/home/csk/Desktop/cluster/DUD-E-result/cdk2

> <s_m_Source_File>
dock_pv.maegz

> <i_m_Source_File_Index>
238

> <chembl_id>
CHEMBL115264

> <chembl_pref_name>
None

> <i_lp_mmshare_version>
53161

> <i_f3d_flags>
0

> <r_lp_tautomer_probability>
0.5

> <s_lp_Force_Field>
OPLS_2005

> <r_lp_Energy>
15.590245

> <b_lp_Chiralities_Consistent>
1

> <s_lp_Variant>
CHEMBL301_lig666-1

> <s_i_glide_gridfile>
glide-grid_1h00

> <i_i_glide_lignum>
916

> <i_i_glide_rotatable_bonds>
4

> <r_i_docking_score>
-7.64675878269767

> <r_i_glide_ligand_efficiency>
-0.424819932372093

> <r_i_glide_ligand_efficiency_sa>
-1.11334318077991

> <r_i_glide_ligand_efficiency_ln>
-1.96555991523876

> <r_i_glide_gscore>
-7.64675878269767

> <r_i_glide_lipo>
-2.24396352079054

> <r_i_glide_hbond>
-0.695010806749909

> <r_i_glide_metal>
0

> <r_i_glide_rewards>
-3.18740554013427

> <r_i_glide_evdw>
-29.982931137085

> <r_i_glide_ecoul>
-4.97282457351685

> <r_i_glide_erotb>
0.724691327858837

> <r_i_glide_esite>
0

> <r_i_glide_emodel>
-48.209555694544

> <r_i_glide_energy>
-34.9557557106018

> <r_i_glide_einternal>
3.2053210735321

> <i_i_glide_confnum>
5

> <i_i_glide_posenum>
14

> <r_i_glide_eff_state_penalty>
0

> <s_user_duplicate_titles>
CHEMBL301_lig666,186838

> <s_m_subgroup_title>
dock_pv

> <s_m_subgroupid>
dock_pv

> <b_m_subgroup_collapsed>
1

$$$$
CHEMBL301_lig825
                    3D
 Schrodinger Suite 2021-1.
 52 54  0  0  1  0            999 V2000
   -0.4612   28.6995   12.3689 C   0  0  0  0  0  0
   -0.8837   29.8096   11.7951 N   0  0  0  0  0  0
   -1.9849   29.4463   11.1769 C   0  0  0  0  0  0
   -2.3303   28.1495   11.3760 O   0  0  0  0  0  0
   -1.3310   27.6461   12.1385 C   0  0  0  0  0  0
   -2.8792   30.2590   10.2517 C   0  0  0  0  0  0
   -2.3229   31.9558    9.8671 S   0  0  0  0  0  0
   -0.8970   31.6882    8.8571 C   0  0  0  0  0  0
   -0.1580   32.6521    8.1764 C   0  0  0  0  0  0
    0.9303   32.2531    7.5421 N   0  0  0  0  0  0
    1.1634   30.9809    7.7492 C   0  0  0  0  0  0
   -0.1247   30.1565    8.5773 S   0  0  0  0  0  0
    2.3636   30.3816    7.3743 N   0  0  0  0  0  0
    2.9319   29.2867    7.9329 C   0  0  0  0  0  0
    4.3132   28.8756    7.3722 C   0  0  2  0  0  0
    2.4404   28.6562    8.8720 O   0  0  0  0  0  0
   -1.3904   26.1696   12.5143 C   0  0  0  0  0  0
   -0.1320   25.7729   13.3193 C   0  0  0  0  0  0
   -1.4604   25.3110   11.2310 C   0  0  0  0  0  0
   -2.6473   25.9155   13.3736 C   0  0  0  0  0  0
    4.3595   28.6472    5.8373 C   0  0  0  0  0  0
    4.3003   27.1745    5.4035 C   0  0  0  0  0  0
    5.1063   26.2272    6.3244 C   0  0  1  0  0  0
    4.7317   26.4180    7.7257 N   0  0  2  0  0  0
    4.9846   27.7690    8.2260 C   0  0  0  0  0  0
    4.9698   24.7652    5.8797 C   0  0  0  0  0  0
    0.4572   28.6518   12.9282 H   0  0  0  0  0  0
   -3.0259   29.7342    9.3110 H   0  0  0  0  0  0
   -3.8765   30.3421   10.6797 H   0  0  0  0  0  0
   -0.4134   33.6997    8.1756 H   0  0  0  0  0  0
    2.9534   30.8993    6.7340 H   0  0  0  0  0  0
    4.8285   29.8160    7.5792 H   0  0  0  0  0  0
   -0.1518   24.7218   13.6095 H   0  0  0  0  0  0
   -0.0347   26.3642   14.2306 H   0  0  0  0  0  0
    0.7782   25.9346   12.7391 H   0  0  0  0  0  0
   -2.3416   25.5502   10.6342 H   0  0  0  0  0  0
   -0.5911   25.4782   10.5932 H   0  0  0  0  0  0
   -1.5026   24.2458   11.4590 H   0  0  0  0  0  0
   -3.5575   26.1851   12.8358 H   0  0  0  0  0  0
   -2.7359   24.8677   13.6632 H   0  0  0  0  0  0
   -2.6337   26.5151   14.2853 H   0  0  0  0  0  0
    3.6208   29.2530    5.3150 H   0  0  0  0  0  0
    5.2585   29.1176    5.4531 H   0  0  0  0  0  0
    3.2590   26.8682    5.3742 H   0  0  0  0  0  0
    4.6615   27.0874    4.3777 H   0  0  0  0  0  0
    6.1650   26.4895    6.2703 H   0  0  0  0  0  0
    5.2312   25.7744    8.3251 H   0  0  0  0  0  0
    6.0582   27.9078    8.1932 H   0  0  0  0  0  0
    4.6874   27.8022    9.2758 H   0  0  0  0  0  0
    5.3126   24.6316    4.8531 H   0  0  0  0  0  0
    5.5589   24.1014    6.5121 H   0  0  0  0  0  0
    3.9317   24.4335    5.9278 H   0  0  0  0  0  0
  1  5  2  0  0  0
  1  2  1  0  0  0
  1 27  1  0  0  0
  2  3  2  0  0  0
  3  6  1  0  0  0
  3  4  1  0  0  0
  4  5  1  0  0  0
  5 17  1  0  0  0
  6  7  1  0  0  0
  6 28  1  0  0  0
  6 29  1  0  0  0
  7  8  1  0  0  0
  8  9  2  0  0  0
  8 12  1  0  0  0
  9 10  1  0  0  0
  9 30  1  0  0  0
 10 11  2  0  0  0
 11 13  1  0  0  0
 11 12  1  0  0  0
 13 14  1  0  0  0
 13 31  1  0  0  0
 14 15  1  0  0  0
 14 16  2  0  0  0
 15 21  1  0  0  0
 15 25  1  0  0  0
 15 32  1  0  0  0
 17 18  1  0  0  0
 17 19  1  0  0  0
 17 20  1  0  0  0
 18 33  1  0  0  0
 18 34  1  0  0  0
 18 35  1  0  0  0
 19 36  1  0  0  0
 19 37  1  0  0  0
 19 38  1  0  0  0
 20 39  1  0  0  0
 20 40  1  0  0  0
 20 41  1  0  0  0
 21 22  1  0  0  0
 21 42  1  0  0  0
 21 43  1  0  0  0
 22 23  1  0  0  0
 22 44  1  0  0  0
 22 45  1  0  0  0
 23 24  1  0  0  0
 23 26  1  0  0  0
 23 46  1  0  0  0
 24 25  1  0  0  0
 24 47  1  0  0  0
 25 48  1  0  0  0
 25 49  1  0  0  0
 26 50  1  0  0  0
 26 51  1  0  0  0
 26 52  1  0  0  0
M  END
> <s_m_entry_id>
32838

> <s_m_entry_name>
dock_pv.239

> <s_m_Source_Path>
/home/csk/Desktop/cluster/DUD-E-result/cdk2

> <s_m_Source_File>
dock_pv.maegz

> <i_m_Source_File_Index>
239

> <chembl_id>
CHEMBL454645

> <chembl_pref_name>
None

> <i_lp_mmshare_version>
53161

> <i_f3d_flags>
0

> <r_lp_tautomer_probability>
0.999000488399163

> <s_lp_Force_Field>
OPLS_2005

> <r_lp_Energy>
12.099299

> <b_lp_Chiralities_Consistent>
1

> <s_lp_Variant>
CHEMBL301_lig825-3

> <s_i_glide_gridfile>
glide-grid_1h00

> <i_i_glide_lignum>
1169

> <i_i_glide_rotatable_bonds>
7

> <r_i_docking_score>
-7.64660059330031

> <r_i_glide_ligand_efficiency>
-0.294100022819243

> <r_i_glide_ligand_efficiency_sa>
-0.871270160374297

> <r_i_glide_ligand_efficiency_ln>
-1.79577905879355

> <r_i_glide_gscore>
-7.64660059330031

> <r_i_glide_lipo>
-3.06540415257962

> <r_i_glide_hbond>
-0.32

> <r_i_glide_metal>
0

> <r_i_glide_rewards>
-2.2468374840213

> <r_i_glide_evdw>
-44.1082229614258

> <r_i_glide_ecoul>
-3.74859595298767

> <r_i_glide_erotb>
0.753341584320047

> <r_i_glide_esite>
0

> <r_i_glide_emodel>
-65.6226138982037

> <r_i_glide_energy>
-47.8568189144135

> <r_i_glide_einternal>
5.64259243011475

> <i_i_glide_confnum>
18

> <i_i_glide_posenum>
110

> <r_i_glide_eff_state_penalty>
0

> <s_user_duplicate_titles>
CHEMBL301_lig825

> <s_m_subgroup_title>
dock_pv

> <s_m_subgroupid>
dock_pv

> <b_m_subgroup_collapsed>
1

$$$$
CHEMBL301_lig1330
                    3D
 Schrodinger Suite 2021-1.
 50 51  0  0  1  0            999 V2000
    6.0804   24.4992    4.8790 C   0  0  0  0  0  0
    6.9068   25.1441    6.0057 C   0  0  0  0  0  0
    5.8607   25.3922    7.5655 S   0  0  2  0  0  0
    6.9120   25.8525    8.5760 N   0  0  0  0  0  0
    4.9641   24.2517    7.7751 O   0  0  0  0  0  0
    4.8592   26.8554    7.3718 C   0  0  0  0  0  0
    4.0783   27.2847    8.4477 C   0  0  0  0  0  0
    3.3055   28.4320    8.3319 C   0  0  0  0  0  0
    3.2421   29.1023    7.1107 C   0  0  0  0  0  0
    2.4580   30.2525    6.9233 N   0  0  0  0  0  0
    1.3475   30.7745    7.6004 C   0  0  0  0  0  0
    1.0885   32.0890    7.3760 N   0  0  0  0  0  0
    0.0585   32.6364    8.0807 C   0  0  0  0  0  0
   -0.7137   31.8993    8.9759 C   0  0  0  0  0  0
   -2.1142   32.7476    9.9572 Br  0  0  0  0  0  0
   -0.3704   30.5512    9.1447 C   0  0  0  0  0  0
   -1.0638   29.8126   10.1086 N   0  0  0  0  0  0
   -1.0639   28.3589   10.3228 C   0  0  1  0  0  0
    0.3453   27.7181   10.3930 C   0  0  0  0  0  0
   -1.9647   28.0072   11.5526 C   0  0  0  0  0  0
   -2.2752   26.4989   11.6742 C   0  0  0  0  0  0
   -1.3616   28.5371   12.8748 C   0  0  0  0  0  0
   -3.2209   28.6520   11.3760 O   0  0  0  0  0  0
    0.6412   29.9801    8.4428 N   0  0  0  0  0  0
    4.0058   28.6521    6.0317 C   0  0  0  0  0  0
    4.8346   27.5487    6.1640 C   0  0  0  0  0  0
    6.6815   24.3725    3.9778 H   0  0  0  0  0  0
    5.7184   23.5131    5.1725 H   0  0  0  0  0  0
    5.2095   25.0968    4.6101 H   0  0  0  0  0  0
    7.3328   26.1071    5.7227 H   0  0  0  0  0  0
    7.7332   24.4917    6.2858 H   0  0  0  0  0  0
    6.4954   25.9582    9.5046 H   0  0  0  0  0  0
    4.0692   26.7365    9.3759 H   0  0  0  0  0  0
    2.7555   28.7816    9.1902 H   0  0  0  0  0  0
    2.9568   30.9476    6.3805 H   0  0  0  0  0  0
   -0.1435   33.6847    7.9200 H   0  0  0  0  0  0
   -1.8616   30.2814   10.5162 H   0  0  0  0  0  0
   -1.5419   27.9375    9.4380 H   0  0  0  0  0  0
    0.3238   26.7058   10.7914 H   0  0  0  0  0  0
    0.7874   27.6275    9.4035 H   0  0  0  0  0  0
    1.0245   28.2992   11.0183 H   0  0  0  0  0  0
   -1.4028   25.9275   11.9899 H   0  0  0  0  0  0
   -2.6199   26.0728   10.7320 H   0  0  0  0  0  0
   -3.0543   26.3101   12.4148 H   0  0  0  0  0  0
   -0.3497   28.1635   13.0320 H   0  0  0  0  0  0
   -1.3111   29.6267   12.8929 H   0  0  0  0  0  0
   -1.9419   28.2238   13.7407 H   0  0  0  0  0  0
   -3.5279   28.9390   12.2499 H   0  0  0  0  0  0
    3.9867   29.1848    5.0924 H   0  0  0  0  0  0
    5.4355   27.2498    5.3202 H   0  0  0  0  0  0
  1  2  1  0  0  0
  1 27  1  0  0  0
  1 28  1  0  0  0
  1 29  1  0  0  0
  2  3  1  0  0  0
  2 30  1  0  0  0
  2 31  1  0  0  0
  3  4  2  0  0  0
  3  5  2  0  0  0
  3  6  1  0  0  0
  4 32  1  0  0  0
  6  7  2  0  0  0
  6 26  1  0  0  0
  7  8  1  0  0  0
  7 33  1  0  0  0
  8  9  2  0  0  0
  8 34  1  0  0  0
  9 10  1  0  0  0
  9 25  1  0  0  0
 10 11  1  0  0  0
 10 35  1  0  0  0
 11 12  2  0  0  0
 11 24  1  0  0  0
 12 13  1  0  0  0
 13 14  2  0  0  0
 13 36  1  0  0  0
 14 15  1  0  0  0
 14 16  1  0  0  0
 16 17  1  0  0  0
 16 24  2  0  0  0
 17 18  1  0  0  0
 17 37  1  0  0  0
 18 19  1  0  0  0
 18 20  1  0  0  0
 18 38  1  0  0  0
 19 39  1  0  0  0
 19 40  1  0  0  0
 19 41  1  0  0  0
 20 21  1  0  0  0
 20 22  1  0  0  0
 20 23  1  0  0  0
 21 42  1  0  0  0
 21 43  1  0  0  0
 21 44  1  0  0  0
 22 45  1  0  0  0
 22 46  1  0  0  0
 22 47  1  0  0  0
 23 48  1  0  0  0
 25 26  2  0  0  0
 25 49  1  0  0  0
 26 50  1  0  0  0
M  END
> <s_m_entry_id>
32839

> <s_m_entry_name>
dock_pv.240

> <s_m_Source_Path>
/home/csk/Desktop/cluster/DUD-E-result/cdk2

> <s_m_Source_File>
dock_pv.maegz

> <i_m_Source_File_Index>
240

> <chembl_id>
CHEMBL3648124

> <chembl_pref_name>
None

> <i_lp_mmshare_version>
53161

> <i_f3d_flags>
0

> <r_lp_tautomer_probability>
0.999999624730965

> <s_lp_Force_Field>
OPLS_2005

> <r_lp_Energy>
10.394089

> <b_lp_Chiralities_Consistent>
1

> <s_lp_Variant>
CHEMBL301_lig1330-2

> <s_i_glide_gridfile>
glide-grid_1h00

> <i_i_glide_lignum>
1756

> <i_i_glide_rotatable_bonds>
8

> <r_i_docking_score>
-7.63780205816022

> <r_i_glide_ligand_efficiency>
-0.293761617621547

> <r_i_glide_ligand_efficiency_sa>
-0.870267636307683

> <r_i_glide_ligand_efficiency_ln>
-1.79371275168625

> <r_i_glide_gscore>
-7.63780205816022

> <r_i_glide_lipo>
-2.51267631458769

> <r_i_glide_hbond>
-0.573305060512464

> <r_i_glide_metal>
0

> <r_i_glide_rewards>
-1.68197483393624

> <r_i_glide_evdw>
-35.4868583679199

> <r_i_glide_ecoul>
-12.0685739517212

> <r_i_glide_erotb>
0.714783162030355

> <r_i_glide_esite>
0

> <r_i_glide_emodel>
-67.6301408450162

> <r_i_glide_energy>
-47.5554323196411

> <r_i_glide_einternal>
7.59497356414795

> <i_i_glide_confnum>
127

> <i_i_glide_posenum>
224

> <r_i_glide_eff_state_penalty>
0

> <s_user_duplicate_titles>
CHEMBL301_lig1330

> <s_m_subgroup_title>
dock_pv

> <s_m_subgroupid>
dock_pv

> <b_m_subgroup_collapsed>
1

$$$$
CHEMBL301_lig1340
                    3D
 Schrodinger Suite 2021-1.
 55 57  0  0  1  0            999 V2000
   -1.6474   25.2451    9.8529 C   0  0  0  0  0  0
   -1.5811   26.2501   11.0150 C   0  0  0  0  0  0
   -0.1839   26.4554   11.6713 C   0  0  2  0  0  0
    0.8677   26.8559   10.7322 N   0  0  0  0  0  0
    0.9039   28.0801   10.0633 C   0  0  0  0  0  0
    2.0531   28.2771    9.3757 N   0  0  0  0  0  0
    2.1353   29.3753    8.5758 C   0  0  0  0  0  0
    3.3140   29.6614    7.8724 N   0  0  0  0  0  0
    4.5321   28.8643    7.9880 C   0  0  0  0  0  0
    4.5808   27.7797    6.9242 C   0  0  0  0  0  0
    4.8226   26.4505    7.2850 C   0  0  0  0  0  0
    4.8634   25.4562    6.3064 C   0  0  0  0  0  0
    4.6767   25.7877    4.9630 C   0  0  0  0  0  0
    4.4599   27.1149    4.5963 C   0  0  0  0  0  0
    4.2779   27.4437    3.2969 F   0  0  0  0  0  0
    4.4205   28.1078    5.5726 C   0  0  0  0  0  0
    1.0474   30.2554    8.4867 C   0  0  0  0  0  0
    0.8559   31.4115    7.7757 N   0  0  0  0  0  0
   -0.2766   31.8790    8.2385 C   0  0  0  0  0  0
   -0.8819   31.0894    9.2009 N   0  0  0  0  0  0
   -2.1209   31.3769    9.9405 C   0  0  0  0  0  0
   -3.3434   30.9046    9.1373 C   0  0  0  0  0  0
   -2.2257   32.8730   10.3011 C   0  0  0  0  0  0
   -0.0511   29.9887    9.3337 C   0  0  0  0  0  0
   -0.1681   28.9199   10.1256 N   0  0  0  0  0  0
    0.3062   25.2865   12.5672 C   0  0  1  0  0  0
   -0.6352   24.9091   13.7228 C   0  0  0  0  0  0
    0.5951   24.1200   11.8182 O   0  0  0  0  0  0
   -2.6641   25.1524    9.4705 H   0  0  0  0  0  0
   -1.0051   25.5391    9.0234 H   0  0  0  0  0  0
   -1.3530   24.2520   10.1769 H   0  0  0  0  0  0
   -2.3073   25.9566   11.7728 H   0  0  0  0  0  0
   -1.9426   27.2101   10.6537 H   0  0  0  0  0  0
   -0.3093   27.3065   12.3453 H   0  0  0  0  0  0
    1.7554   26.3781   10.7684 H   0  0  0  0  0  0
    3.3568   30.5079    7.3193 H   0  0  0  0  0  0
    5.3921   29.5219    7.8557 H   0  0  0  0  0  0
    4.6213   28.4305    8.9848 H   0  0  0  0  0  0
    4.9615   26.1854    8.3253 H   0  0  0  0  0  0
    5.0372   24.4282    6.5879 H   0  0  0  0  0  0
    4.7042   25.0207    4.2016 H   0  0  0  0  0  0
    4.2562   29.1339    5.2782 H   0  0  0  0  0  0
   -0.7317   32.8123    7.9386 H   0  0  0  0  0  0
   -2.0808   30.8163   10.8769 H   0  0  0  0  0  0
   -4.2679   31.1167    9.6760 H   0  0  0  0  0  0
   -3.3114   29.8310    8.9761 H   0  0  0  0  0  0
   -3.4071   31.3961    8.1647 H   0  0  0  0  0  0
   -3.0903   33.0598   10.9395 H   0  0  0  0  0  0
   -1.3434   33.2277   10.8340 H   0  0  0  0  0  0
   -2.3426   33.4906    9.4116 H   0  0  0  0  0  0
    1.2582   25.6108   12.9756 H   0  0  0  0  0  0
   -0.8806   25.7814   14.3279 H   0  0  0  0  0  0
   -1.5687   24.4778   13.3607 H   0  0  0  0  0  0
   -0.1709   24.1738   14.3801 H   0  0  0  0  0  0
    0.8885   24.4005   10.9470 H   0  0  0  0  0  0
  1  2  1  0  0  0
  1 29  1  0  0  0
  1 30  1  0  0  0
  1 31  1  0  0  0
  2  3  1  0  0  0
  2 32  1  0  0  0
  2 33  1  0  0  0
  3  4  1  0  0  0
  3 26  1  0  0  0
  3 34  1  0  0  0
  4  5  1  0  0  0
  4 35  1  0  0  0
  5  6  2  0  0  0
  5 25  1  0  0  0
  6  7  1  0  0  0
  7  8  1  0  0  0
  7 17  2  0  0  0
  8  9  1  0  0  0
  8 36  1  0  0  0
  9 10  1  0  0  0
  9 37  1  0  0  0
  9 38  1  0  0  0
 10 11  2  0  0  0
 10 16  1  0  0  0
 11 12  1  0  0  0
 11 39  1  0  0  0
 12 13  2  0  0  0
 12 40  1  0  0  0
 13 14  1  0  0  0
 13 41  1  0  0  0
 14 15  1  0  0  0
 14 16  2  0  0  0
 16 42  1  0  0  0
 17 18  1  0  0  0
 17 24  1  0  0  0
 18 19  2  0  0  0
 19 20  1  0  0  0
 19 43  1  0  0  0
 20 21  1  0  0  0
 20 24  1  0  0  0
 21 22  1  0  0  0
 21 23  1  0  0  0
 21 44  1  0  0  0
 22 45  1  0  0  0
 22 46  1  0  0  0
 22 47  1  0  0  0
 23 48  1  0  0  0
 23 49  1  0  0  0
 23 50  1  0  0  0
 24 25  2  0  0  0
 26 27  1  0  0  0
 26 28  1  0  0  0
 26 51  1  0  0  0
 27 52  1  0  0  0
 27 53  1  0  0  0
 27 54  1  0  0  0
 28 55  1  0  0  0
M  END
> <s_m_entry_id>
32840

> <s_m_entry_name>
dock_pv.241

> <s_m_Source_Path>
/home/csk/Desktop/cluster/DUD-E-result/cdk2

> <s_m_Source_File>
dock_pv.maegz

> <i_m_Source_File_Index>
241

> <chembl_id>
CHEMBL3655765

> <chembl_pref_name>
None

> <i_lp_mmshare_version>
53161

> <i_f3d_flags>
0

> <r_lp_tautomer_probability>
1

> <s_lp_Force_Field>
OPLS_2005

> <r_lp_Energy>
18.466984

> <b_lp_Chiralities_Consistent>
1

> <s_lp_Variant>
CHEMBL301_lig1340-1

> <s_i_glide_gridfile>
glide-grid_1h00

> <i_i_glide_lignum>
1772

> <i_i_glide_rotatable_bonds>
9

> <r_i_docking_score>
-7.63761799005987

> <r_i_glide_ligand_efficiency>
-0.272772071073567

> <r_i_glide_ligand_efficiency_sa>
-0.828296661937659

> <r_i_glide_ligand_efficiency_ln>
-1.76298648231429

> <r_i_glide_gscore>
-7.63761799005987

> <r_i_glide_lipo>
-3.15871206477832

> <r_i_glide_hbond>
-0.204726285403556

> <r_i_glide_metal>
0

> <r_i_glide_rewards>
-2.28986789899387

> <r_i_glide_evdw>
-44.9182548522949

> <r_i_glide_ecoul>
-3.41861987113953

> <r_i_glide_erotb>
0.78190281783877

> <r_i_glide_esite>
-0.00750883543721936

> <r_i_glide_emodel>
-67.504755350794

> <r_i_glide_energy>
-48.3368747234344

> <r_i_glide_einternal>
5.37766027450562

> <i_i_glide_confnum>
15

> <i_i_glide_posenum>
45

> <r_i_glide_eff_state_penalty>
0

> <s_user_duplicate_titles>
CHEMBL301_lig1340

> <s_m_subgroup_title>
dock_pv

> <s_m_subgroupid>
dock_pv

> <b_m_subgroup_collapsed>
1

$$$$
CHEMBL301_lig341
                    3D
 Schrodinger Suite 2021-1.
 49 53  0  0  1  0            999 V2000
    6.7623   24.6182    6.1838 S   0  0  0  0  0  0
    1.2458   30.3425    8.1963 C   0  0  0  0  0  0
    0.0213   30.4137    8.9756 C   0  0  0  0  0  0
    6.4538   24.2243    4.4499 N   0  0  0  0  0  0
    1.2581   31.5371    7.3759 C   0  0  0  0  0  0
    0.2146   32.2795    7.7761 N   0  0  0  0  0  0
   -0.5814   31.6194    8.6863 C   0  0  0  0  0  0
    2.2179   29.4082    8.1682 C   0  0  0  0  0  0
   -0.5972   29.5688    9.9061 C   0  0  0  0  0  0
    7.3580   24.4653    3.3813 C   0  0  0  0  0  0
   -2.3421   29.0462   11.3760 N   0  0  0  0  0  0
    5.7254   26.0286    6.5377 C   0  0  0  0  0  0
   -0.1124   27.9949   10.5387 S   0  0  0  0  0  0
   -1.5656   28.0091   11.5005 C   0  0  0  0  0  0
    8.1465   25.0598    6.3808 O   0  0  0  0  0  0
    6.2295   23.5002    6.9752 O   0  0  0  0  0  0
   -1.8301   29.9493   10.5028 C   0  0  0  0  0  0
    3.3613   29.3707    7.3993 N   0  0  0  0  0  0
    8.5300   25.1057    3.6498 N   0  0  0  0  0  0
    2.0580   31.8521    6.5029 O   0  0  0  0  0  0
   -1.7830   32.0205    9.2660 C   0  0  0  0  0  0
   -2.4291   31.1797   10.1763 C   0  0  0  0  0  0
    5.5789   27.0513    5.6006 C   0  0  0  0  0  0
    5.1103   26.1241    7.7805 C   0  0  0  0  0  0
    4.1636   28.2519    7.1469 C   0  0  0  0  0  0
    5.1080   23.7295    4.1513 C   0  0  0  0  0  0
    4.3345   27.2347    8.0907 C   0  0  0  0  0  0
    4.7985   28.1633    5.9086 C   0  0  0  0  0  0
    7.0743   24.0328    2.0714 C   0  0  0  0  0  0
    9.4206   25.3255    2.6495 C   0  0  0  0  0  0
    7.9971   24.2597    1.0496 C   0  0  0  0  0  0
    9.1935   24.9126    1.3385 C   0  0  0  0  0  0
    0.0308   33.2001    7.4009 H   0  0  0  0  0  0
    2.1310   28.5507    8.8167 H   0  0  0  0  0  0
   -1.8002   27.1897   12.1643 H   0  0  0  0  0  0
    3.5051   30.1300    6.7377 H   0  0  0  0  0  0
   -2.2269   32.9735    9.0179 H   0  0  0  0  0  0
   -3.3583   31.4757   10.6422 H   0  0  0  0  0  0
    6.0857   27.0014    4.6467 H   0  0  0  0  0  0
    5.2488   25.3546    8.5259 H   0  0  0  0  0  0
    5.1506   22.7187    3.7432 H   0  0  0  0  0  0
    4.4809   23.6976    5.0442 H   0  0  0  0  0  0
    4.6064   24.3734    3.4259 H   0  0  0  0  0  0
    3.8860   27.2941    9.0714 H   0  0  0  0  0  0
    4.6927   28.9538    5.1792 H   0  0  0  0  0  0
    6.1530   23.5279    1.8201 H   0  0  0  0  0  0
   10.3353   25.8405    2.9101 H   0  0  0  0  0  0
    7.7818   23.9361    0.0423 H   0  0  0  0  0  0
    9.9290   25.0974    0.5684 H   0  0  0  0  0  0
  1  4  1  0  0  0
  1 12  1  0  0  0
  1 15  2  0  0  0
  1 16  2  0  0  0
  2  8  2  0  0  0
  2  3  1  0  0  0
  2  5  1  0  0  0
  3  7  2  0  0  0
  3  9  1  0  0  0
  4 10  1  0  0  0
  4 26  1  0  0  0
  5  6  1  0  0  0
  5 20  2  0  0  0
  6  7  1  0  0  0
  6 33  1  0  0  0
  7 21  1  0  0  0
  8 18  1  0  0  0
  8 34  1  0  0  0
  9 13  1  0  0  0
  9 17  2  0  0  0
 10 19  1  0  0  0
 10 29  2  0  0  0
 11 17  1  0  0  0
 11 14  2  0  0  0
 12 23  2  0  0  0
 12 24  1  0  0  0
 13 14  1  0  0  0
 14 35  1  0  0  0
 17 22  1  0  0  0
 18 25  1  0  0  0
 18 36  1  0  0  0
 19 30  2  0  0  0
 21 22  2  0  0  0
 21 37  1  0  0  0
 22 38  1  0  0  0
 23 28  1  0  0  0
 23 39  1  0  0  0
 24 27  2  0  0  0
 24 40  1  0  0  0
 25 27  1  0  0  0
 25 28  2  0  0  0
 26 41  1  0  0  0
 26 42  1  0  0  0
 26 43  1  0  0  0
 27 44  1  0  0  0
 28 45  1  0  0  0
 29 31  1  0  0  0
 29 46  1  0  0  0
 30 32  1  0  0  0
 30 47  1  0  0  0
 31 32  2  0  0  0
 31 48  1  0  0  0
 32 49  1  0  0  0
M  END
> <s_m_entry_id>
32841

> <s_m_entry_name>
dock_pv.242

> <s_m_Source_Path>
/home/csk/Desktop/cluster/DUD-E-result/cdk2

> <s_m_Source_File>
dock_pv.maegz

> <i_m_Source_File_Index>
242

> <chembl_id>
CHEMBL1964253

> <chembl_pref_name>
None

> <i_lp_mmshare_version>
53161

> <i_f3d_flags>
0

> <r_lp_tautomer_probability>
0.499999999999422

> <s_lp_Force_Field>
OPLS_2005

> <r_lp_Energy>
40.863661

> <b_lp_Chiralities_Consistent>
1

> <s_lp_Variant>
CHEMBL301_lig341-1

> <s_i_glide_gridfile>
glide-grid_1h00

> <i_i_glide_lignum>
521

> <i_i_glide_rotatable_bonds>
5

> <r_i_docking_score>
-7.63635058787784

> <r_i_glide_ligand_efficiency>
-0.238635955871182

> <r_i_glide_ligand_efficiency_sa>
-0.757621933899465

> <r_i_glide_ligand_efficiency_ln>
-1.70998705568109

> <r_i_glide_gscore>
-7.63635058787784

> <r_i_glide_lipo>
-2.50232949079795

> <r_i_glide_hbond>
-0.632703018705627

> <r_i_glide_metal>
0

> <r_i_glide_rewards>
-1.26886459896044

> <r_i_glide_evdw>
-41.4250793457031

> <r_i_glide_ecoul>
-9.83540916442871

> <r_i_glide_erotb>
0.328270815063736

> <r_i_glide_esite>
-0.0141589525280947

> <r_i_glide_emodel>
-70.5176985993524

> <r_i_glide_energy>
-51.2604885101318

> <r_i_glide_einternal>
8.14372444152832

> <i_i_glide_confnum>
50

> <i_i_glide_posenum>
79

> <r_i_glide_eff_state_penalty>
0

> <s_user_duplicate_titles>
CHEMBL301_lig341

> <s_m_subgroup_title>
dock_pv

> <s_m_subgroupid>
dock_pv

> <b_m_subgroup_collapsed>
1

$$$$
CHEMBL301_lig1391
                    3D
 Schrodinger Suite 2021-1.
 46 47  0  0  1  0            999 V2000
    1.1243   27.3556   10.3573 C   0  0  0  0  0  0
   -0.0073   27.9603   11.2165 C   0  0  1  0  0  0
   -1.1263   29.1022   10.3036 S   0  0  0  0  0  0
   -0.2685   30.2532    9.2487 C   0  0  0  0  0  0
    0.8245   29.8107    8.5759 N   0  0  0  0  0  0
    1.3984   30.6519    7.6752 C   0  0  0  0  0  0
    2.4578   30.1970    6.8800 N   0  0  0  0  0  0
    3.3497   29.1244    7.0257 C   0  0  0  0  0  0
    3.9040   28.5469    5.8821 C   0  0  0  0  0  0
    4.8578   27.5376    5.9906 C   0  0  0  0  0  0
    5.2865   27.1312    7.2546 C   0  0  0  0  0  0
    4.7595   27.7340    8.3957 C   0  0  0  0  0  0
    3.7867   28.7170    8.2803 C   0  0  0  0  0  0
    6.5048   25.8330    7.4494 S   0  0  2  0  0  0
    5.6405   24.5765    7.3756 N   0  0  0  0  0  0
    7.3820   26.1666    8.5758 O   0  0  0  0  0  0
    7.5073   25.7073    5.8633 C   0  0  0  0  0  0
    0.9954   31.9243    7.4339 N   0  0  0  0  0  0
   -0.0503   32.3770    8.1759 C   0  0  0  0  0  0
   -0.7423   31.5651    9.0799 C   0  0  0  0  0  0
   -2.2527   32.2604   10.0164 Br  0  0  0  0  0  0
   -0.7627   26.8781   12.0625 C   0  0  0  0  0  0
   -1.7407   27.5030   13.0746 C   0  0  0  0  0  0
   -1.4863   25.8289   11.1897 C   0  0  0  0  0  0
    0.1628   26.1533   12.8522 O   0  0  0  0  0  0
    1.5993   26.4871   10.8118 H   0  0  0  0  0  0
    0.7614   27.0556    9.3767 H   0  0  0  0  0  0
    1.9172   28.0829   10.2193 H   0  0  0  0  0  0
    0.4890   28.6180   11.9331 H   0  0  0  0  0  0
    2.7930   30.8903    6.2256 H   0  0  0  0  0  0
    3.6063   28.8842    4.9055 H   0  0  0  0  0  0
    5.2642   27.0946    5.0946 H   0  0  0  0  0  0
    5.1054   27.4519    9.3758 H   0  0  0  0  0  0
    3.3990   29.1907    9.1639 H   0  0  0  0  0  0
    6.1904   23.7431    7.2414 H   0  0  0  0  0  0
    6.8481   25.4762    5.0284 H   0  0  0  0  0  0
    8.0184   26.6517    5.6926 H   0  0  0  0  0  0
    8.2448   24.9149    5.9814 H   0  0  0  0  0  0
   -0.3543   33.3998    8.0004 H   0  0  0  0  0  0
   -2.5729   27.9945   12.5710 H   0  0  0  0  0  0
   -1.2553   28.2506   13.7018 H   0  0  0  0  0  0
   -2.1747   26.7541   13.7387 H   0  0  0  0  0  0
   -2.2728   26.2769   10.5839 H   0  0  0  0  0  0
   -0.7993   25.3249   10.5091 H   0  0  0  0  0  0
   -1.9536   25.0549   11.8004 H   0  0  0  0  0  0
    0.9048   26.7307   13.0730 H   0  0  0  0  0  0
  1  2  1  0  0  0
  1 26  1  0  0  0
  1 27  1  0  0  0
  1 28  1  0  0  0
  2  3  1  0  0  0
  2 22  1  0  0  0
  2 29  1  0  0  0
  3  4  1  0  0  0
  4  5  2  0  0  0
  4 20  1  0  0  0
  5  6  1  0  0  0
  6  7  1  0  0  0
  6 18  2  0  0  0
  7  8  1  0  0  0
  7 30  1  0  0  0
  8  9  2  0  0  0
  8 13  1  0  0  0
  9 10  1  0  0  0
  9 31  1  0  0  0
 10 11  2  0  0  0
 10 32  1  0  0  0
 11 12  1  0  0  0
 11 14  1  0  0  0
 12 13  2  0  0  0
 12 33  1  0  0  0
 13 34  1  0  0  0
 14 15  2  0  0  0
 14 16  2  0  0  0
 14 17  1  0  0  0
 15 35  1  0  0  0
 17 36  1  0  0  0
 17 37  1  0  0  0
 17 38  1  0  0  0
 18 19  1  0  0  0
 19 20  2  0  0  0
 19 39  1  0  0  0
 20 21  1  0  0  0
 22 23  1  0  0  0
 22 24  1  0  0  0
 22 25  1  0  0  0
 23 40  1  0  0  0
 23 41  1  0  0  0
 23 42  1  0  0  0
 24 43  1  0  0  0
 24 44  1  0  0  0
 24 45  1  0  0  0
 25 46  1  0  0  0
M  END
> <s_m_entry_id>
32843

> <s_m_entry_name>
dock_pv.244

> <s_m_Source_Path>
/home/csk/Desktop/cluster/DUD-E-result/cdk2

> <s_m_Source_File>
dock_pv.maegz

> <i_m_Source_File_Index>
244

> <chembl_id>
CHEMBL3648104

> <chembl_pref_name>
None

> <i_lp_mmshare_version>
53161

> <i_f3d_flags>
0

> <r_lp_tautomer_probability>
0.999999987636

> <s_lp_Force_Field>
OPLS_2005

> <r_lp_Energy>
5.552752

> <b_lp_Chiralities_Consistent>
1

> <s_lp_Variant>
CHEMBL301_lig1391-2

> <s_i_glide_gridfile>
glide-grid_1h00

> <i_i_glide_lignum>
1880

> <i_i_glide_rotatable_bonds>
7

> <r_i_docking_score>
-7.6307869289392

> <r_i_glide_ligand_efficiency>
-0.305231477157568

> <r_i_glide_ligand_efficiency_sa>
-0.892502252512026

> <r_i_glide_ligand_efficiency_ln>
-1.80872517838981

> <r_i_glide_gscore>
-7.6307869289392

> <r_i_glide_lipo>
-2.84819271789808

> <r_i_glide_hbond>
-0.601697159276014

> <r_i_glide_metal>
0

> <r_i_glide_rewards>
-1.35293415510153

> <r_i_glide_evdw>
-40.6199417114258

> <r_i_glide_ecoul>
-8.67497062683105

> <r_i_glide_erotb>
0.504279782932377

> <r_i_glide_esite>
0

> <r_i_glide_emodel>
-68.9418659316964

> <r_i_glide_energy>
-49.2949123382568

> <r_i_glide_einternal>
5.38872480392456

> <i_i_glide_confnum>
43

> <i_i_glide_posenum>
306

> <r_i_glide_eff_state_penalty>
0

> <s_user_duplicate_titles>
CHEMBL301_lig1391

> <s_m_subgroup_title>
dock_pv

> <s_m_subgroupid>
dock_pv

> <b_m_subgroup_collapsed>
1

$$$$
CHEMBL301_lig1402
                    3D
 Schrodinger Suite 2021-1.
 46 47  0  0  1  0            999 V2000
    2.0353   26.5958   10.9757 C   0  0  0  0  0  0
    1.0325   27.7536   11.1404 C   0  0  0  0  0  0
   -0.3250   27.5511   10.4347 C   0  0  2  0  0  0
   -1.2422   29.1362   10.2558 S   0  0  0  0  0  0
   -0.3835   30.2777    9.1892 C   0  0  0  0  0  0
    0.7015   29.8277    8.5112 N   0  0  0  0  0  0
    1.3277   30.6852    7.6615 C   0  0  0  0  0  0
    2.4396   30.2525    6.9246 N   0  0  0  0  0  0
    3.2585   29.1246    7.0524 C   0  0  0  0  0  0
    3.4789   28.5290    8.2846 C   0  0  0  0  0  0
    4.3757   27.4821    8.3923 C   0  0  0  0  0  0
    5.1048   27.0440    7.2829 C   0  0  0  0  0  0
    4.8580   27.6173    6.0371 C   0  0  0  0  0  0
    3.9381   28.6519    5.9302 C   0  0  0  0  0  0
    6.3593   25.7710    7.4628 S   0  0  2  0  0  0
    5.5298   24.4917    7.3760 N   0  0  0  0  0  0
    7.2503   26.1165    8.5757 O   0  0  0  0  0  0
    7.3541   25.6859    5.8680 C   0  0  0  0  0  0
    0.9569   31.9723    7.4515 N   0  0  0  0  0  0
   -0.1017   32.4206    8.1761 C   0  0  0  0  0  0
   -0.8218   31.6037    9.0515 C   0  0  0  0  0  0
   -2.3190   32.3141    9.9977 Br  0  0  0  0  0  0
   -1.1302   26.3921   11.1106 C   0  0  1  0  0  0
   -1.9931   26.8040   12.3184 C   0  0  0  0  0  0
   -1.9419   25.7154   10.1761 O   0  0  0  0  0  0
    3.0223   26.8915   11.3330 H   0  0  0  0  0  0
    1.7500   25.7142   11.5476 H   0  0  0  0  0  0
    2.1391   26.3004    9.9316 H   0  0  0  0  0  0
    1.5051   28.6520   10.7621 H   0  0  0  0  0  0
    0.8580   27.9504   12.1968 H   0  0  0  0  0  0
   -0.0971   27.2450    9.4126 H   0  0  0  0  0  0
    2.8859   30.9746    6.3732 H   0  0  0  0  0  0
    2.9779   28.8815    9.1684 H   0  0  0  0  0  0
    4.4580   27.0521    9.3643 H   0  0  0  0  0  0
    5.3902   27.3010    5.1542 H   0  0  0  0  0  0
    3.7930   29.1154    4.9761 H   0  0  0  0  0  0
    6.1037   23.6700    7.2687 H   0  0  0  0  0  0
    6.6957   25.4261    5.0403 H   0  0  0  0  0  0
    7.8246   26.6517    5.6951 H   0  0  0  0  0  0
    8.1232   24.9241    5.9824 H   0  0  0  0  0  0
   -0.3823   33.4518    8.0338 H   0  0  0  0  0  0
   -0.4424   25.6224   11.4584 H   0  0  0  0  0  0
   -1.3941   27.3128   13.0741 H   0  0  0  0  0  0
   -2.4528   25.9379   12.7954 H   0  0  0  0  0  0
   -2.7977   27.4829   12.0329 H   0  0  0  0  0  0
   -2.6268   25.2344   10.6522 H   0  0  0  0  0  0
  1  2  1  0  0  0
  1 26  1  0  0  0
  1 27  1  0  0  0
  1 28  1  0  0  0
  2  3  1  0  0  0
  2 29  1  0  0  0
  2 30  1  0  0  0
  3  4  1  0  0  0
  3 23  1  0  0  0
  3 31  1  0  0  0
  4  5  1  0  0  0
  5  6  2  0  0  0
  5 21  1  0  0  0
  6  7  1  0  0  0
  7  8  1  0  0  0
  7 19  2  0  0  0
  8  9  1  0  0  0
  8 32  1  0  0  0
  9 10  2  0  0  0
  9 14  1  0  0  0
 10 11  1  0  0  0
 10 33  1  0  0  0
 11 12  2  0  0  0
 11 34  1  0  0  0
 12 13  1  0  0  0
 12 15  1  0  0  0
 13 14  2  0  0  0
 13 35  1  0  0  0
 14 36  1  0  0  0
 15 16  2  0  0  0
 15 17  2  0  0  0
 15 18  1  0  0  0
 16 37  1  0  0  0
 18 38  1  0  0  0
 18 39  1  0  0  0
 18 40  1  0  0  0
 19 20  1  0  0  0
 20 21  2  0  0  0
 20 41  1  0  0  0
 21 22  1  0  0  0
 23 24  1  0  0  0
 23 25  1  0  0  0
 23 42  1  0  0  0
 24 43  1  0  0  0
 24 44  1  0  0  0
 24 45  1  0  0  0
 25 46  1  0  0  0
M  END
> <s_m_entry_id>
32844

> <s_m_entry_name>
dock_pv.245

> <s_m_Source_Path>
/home/csk/Desktop/cluster/DUD-E-result/cdk2

> <s_m_Source_File>
dock_pv.maegz

> <i_m_Source_File_Index>
245

> <chembl_id>
CHEMBL3648103

> <chembl_pref_name>
None

> <i_lp_mmshare_version>
53161

> <i_f3d_flags>
0

> <r_lp_tautomer_probability>
0.999999987636

> <s_lp_Force_Field>
OPLS_2005

> <r_lp_Energy>
5.149735

> <b_lp_Chiralities_Consistent>
1

> <s_lp_Variant>
CHEMBL301_lig1402-5

> <s_i_glide_gridfile>
glide-grid_1h00

> <i_i_glide_lignum>
1908

> <i_i_glide_rotatable_bonds>
8

> <r_i_docking_score>
-7.63061618398044

> <r_i_glide_ligand_efficiency>
-0.305224647359217

> <r_i_glide_ligand_efficiency_sa>
-0.892482282060522

> <r_i_glide_ligand_efficiency_ln>
-1.80868470671777

> <r_i_glide_gscore>
-7.63061618398044

> <r_i_glide_lipo>
-2.60252973223959

> <r_i_glide_hbond>
-0.512429663246414

> <r_i_glide_metal>
0

> <r_i_glide_rewards>
-1.6901046851353

> <r_i_glide_evdw>
-38.5067138671875

> <r_i_glide_ecoul>
-9.36330795288086

> <r_i_glide_erotb>
0.504279782932378

> <r_i_glide_esite>
0

> <r_i_glide_emodel>
-68.3156358233593

> <r_i_glide_energy>
-47.8700218200684

> <r_i_glide_einternal>
5.19331932067871

> <i_i_glide_confnum>
78

> <i_i_glide_posenum>
234

> <r_i_glide_eff_state_penalty>
0

> <s_user_duplicate_titles>
CHEMBL301_lig1402

> <s_m_subgroup_title>
dock_pv

> <s_m_subgroupid>
dock_pv

> <b_m_subgroup_collapsed>
1

$$$$
CHEMBL301_lig272
                    3D
 Schrodinger Suite 2021-1.
 45 47  0  0  1  0            999 V2000
   -0.2130   30.5206    8.8234 C   0  0  0  0  0  0
   -0.0218   29.2876    9.4749 C   0  0  0  0  0  0
   -1.0096   28.7180   10.2980 C   0  0  0  0  0  0
    0.8639   31.0521    7.9258 C   0  0  0  0  0  0
    2.0392   30.2166    7.8488 C   0  0  0  0  0  0
    2.1578   29.0951    8.5777 C   0  0  0  0  0  0
   -1.3874   31.2366    9.0946 C   0  0  0  0  0  0
   -2.1731   29.4638   10.5328 C   0  0  0  0  0  0
    1.1795   28.6070    9.3753 O   0  0  0  0  0  0
   -0.7476   27.3598   11.0031 C   0  0  1  0  0  0
   -2.3528   30.7061    9.9393 C   0  0  0  0  0  0
   -0.7269   27.4405   12.5416 C   0  0  1  0  0  0
   -1.0781   24.9609   12.7022 N   0  0  1  0  0  0
   -1.6992   26.2133   10.6168 C   0  0  0  0  0  0
   -0.2606   26.0991   13.1562 C   0  0  0  0  0  0
    0.8094   32.1493    7.3768 O   0  0  0  0  0  0
    3.5411   27.9756    8.6931 S   0  0  0  0  0  0
   -1.2265   24.8803   11.2401 C   0  0  0  0  0  0
   -1.6135   32.4826    8.5763 O   0  0  0  0  0  0
   -3.1561   29.0171   11.3659 O   0  0  0  0  0  0
    0.0580   28.5200   12.9761 O   0  0  0  0  0  0
   -0.5649   23.7044   13.2393 C   0  0  0  0  0  0
    4.7784   28.6485    7.5432 C   0  0  0  0  0  0
    4.4648   28.4459    6.0532 C   0  0  0  0  0  0
    2.8578   30.5460    7.2365 H   0  0  0  0  0  0
    0.2440   27.0220   10.7031 H   0  0  0  0  0  0
   -3.2487   31.2738   10.1457 H   0  0  0  0  0  0
   -1.7308   27.6394   12.9185 H   0  0  0  0  0  0
   -2.7140   26.4024   10.9751 H   0  0  0  0  0  0
   -1.7270   26.0911    9.5336 H   0  0  0  0  0  0
    0.7810   25.9130   12.8859 H   0  0  0  0  0  0
   -0.2875   26.1539   14.2455 H   0  0  0  0  0  0
   -0.2679   24.5927   10.8018 H   0  0  0  0  0  0
   -1.9278   24.0839   10.9926 H   0  0  0  0  0  0
   -0.8643   32.7654    8.0384 H   0  0  0  0  0  0
   -3.5241   29.7243   11.9264 H   0  0  0  0  0  0
    0.9879   28.2463   12.9638 H   0  0  0  0  0  0
   -1.2148   22.8717   12.9659 H   0  0  0  0  0  0
    0.4382   23.4888   12.8674 H   0  0  0  0  0  0
   -0.5218   23.7395   14.3283 H   0  0  0  0  0  0
    5.7222   28.1557    7.7716 H   0  0  0  0  0  0
    4.9370   29.7045    7.7668 H   0  0  0  0  0  0
    5.2524   28.8727    5.4311 H   0  0  0  0  0  0
    3.5255   28.9167    5.7642 H   0  0  0  0  0  0
    4.3917   27.3856    5.8096 H   0  0  0  0  0  0
  1  2  2  0  0  0
  1  4  1  0  0  0
  1  7  1  0  0  0
  2  3  1  0  0  0
  2  9  1  0  0  0
  3 10  1  0  0  0
  3  8  2  0  0  0
  4  5  1  0  0  0
  4 16  2  0  0  0
  5  6  2  0  0  0
  5 25  1  0  0  0
  6 17  1  0  0  0
  6  9  1  0  0  0
  7 11  2  0  0  0
  7 19  1  0  0  0
  8 11  1  0  0  0
  8 20  1  0  0  0
 10 12  1  0  0  0
 10 14  1  0  0  0
 10 26  1  0  0  0
 11 27  1  0  0  0
 12 15  1  0  0  0
 12 21  1  0  0  0
 12 28  1  0  0  0
 13 18  1  0  0  0
 13 22  1  0  0  0
 13 15  1  0  0  0
 14 18  1  0  0  0
 14 29  1  0  0  0
 14 30  1  0  0  0
 15 31  1  0  0  0
 15 32  1  0  0  0
 17 23  1  0  0  0
 18 33  1  0  0  0
 18 34  1  0  0  0
 19 35  1  0  0  0
 20 36  1  0  0  0
 21 37  1  0  0  0
 22 38  1  0  0  0
 22 39  1  0  0  0
 22 40  1  0  0  0
 23 24  1  0  0  0
 23 41  1  0  0  0
 23 42  1  0  0  0
 24 43  1  0  0  0
 24 44  1  0  0  0
 24 45  1  0  0  0
M  END
> <s_m_entry_id>
32845

> <s_m_entry_name>
dock_pv.246

> <s_m_Source_Path>
/home/csk/Desktop/cluster/DUD-E-result/cdk2

> <s_m_Source_File>
dock_pv.maegz

> <i_m_Source_File_Index>
246

> <chembl_id>
CHEMBL326843

> <chembl_pref_name>
None

> <i_lp_mmshare_version>
53161

> <i_f3d_flags>
0

> <r_lp_tautomer_probability>
1

> <s_lp_Force_Field>
OPLS_2005

> <r_lp_Energy>
25.628464

> <b_lp_Chiralities_Consistent>
1

> <s_lp_Variant>
CHEMBL301_lig272-4

> <s_i_glide_gridfile>
glide-grid_1h00

> <i_i_glide_lignum>
428

> <i_i_glide_rotatable_bonds>
6

> <r_i_docking_score>
-7.62658012474199

> <r_i_glide_ligand_efficiency>
-0.317774171864249

> <r_i_glide_ligand_efficiency_sa>
-0.916619324680991

> <r_i_glide_ligand_efficiency_ln>
-1.82539058480892

> <r_i_glide_gscore>
-7.62658012474199

> <r_i_glide_lipo>
-3.31292111247638

> <r_i_glide_hbond>
-0.456

> <r_i_glide_metal>
0

> <r_i_glide_rewards>
-1.1963901060606

> <r_i_glide_evdw>
-32.8433074951172

> <r_i_glide_ecoul>
-8.85323619842529

> <r_i_glide_erotb>
0.30888189831465

> <r_i_glide_esite>
0

> <r_i_glide_emodel>
-57.053064560723

> <r_i_glide_energy>
-41.6965436935425

> <r_i_glide_einternal>
4.53124046325684

> <i_i_glide_confnum>
2

> <i_i_glide_posenum>
373

> <r_i_glide_eff_state_penalty>
0

> <s_user_duplicate_titles>
CHEMBL301_lig272

> <s_m_subgroup_title>
dock_pv

> <s_m_subgroupid>
dock_pv

> <b_m_subgroup_collapsed>
1

$$$$
CHEMBL301_lig35
                    3D
 Schrodinger Suite 2021-1.
 61 64  0  0  1  0            999 V2000
    1.3489   27.8965    9.9624 C   0  0  0  0  0  0
    0.3883   28.8391    9.7758 N   0  0  0  0  0  0
    0.6822   29.8221    8.9233 C   0  0  0  0  0  0
    1.9045   29.8489    8.2190 C   0  0  0  0  0  0
    2.8641   28.8648    8.4695 C   0  0  0  0  0  0
    2.5720   27.8887    9.3771 N   0  0  0  0  0  0
    0.6948   31.6346    7.6132 N   0  0  0  0  0  0
    1.8213   30.9368    7.3763 N   0  0  0  0  0  0
   -0.0273   30.9964    8.5154 C   0  0  0  0  0  0
    4.0819   28.8621    7.7749 N   0  0  0  0  0  0
    5.0999   27.8347    7.9735 C   0  0  0  0  0  0
    4.8145   26.5730    7.1678 C   0  0  0  0  0  0
    4.6995   26.6207    5.7775 C   0  0  0  0  0  0
    4.4597   25.4525    5.0565 C   0  0  0  0  0  0
    4.3430   24.2108    5.7040 C   0  0  0  0  0  0
    4.4592   24.1875    7.1017 C   0  0  0  0  0  0
    4.6914   25.3516    7.8253 C   0  0  0  0  0  0
    4.0945   22.9452    4.9298 C   0  0  0  0  0  0
    4.3176   22.8476    3.5494 C   0  0  0  0  0  0
    4.0629   21.6438    2.8899 C   0  0  0  0  0  0
    3.6058   20.5460    3.6162 C   0  0  0  0  0  0
    3.4186   20.6956    4.9893 C   0  0  0  0  0  0
    3.6575   21.8627    5.6395 N   0  0  0  0  0  0
   -1.3944   31.5364    8.9622 C   0  0  0  0  0  0
   -1.3646   33.0521    9.2113 C   0  0  0  0  0  0
   -1.9660   30.8253   10.2002 C   0  0  0  0  0  0
    1.0578   26.7957   10.7776 N   0  0  0  0  0  0
   -0.3198   26.4295   11.1398 C   0  0  0  0  0  0
   -0.8377   26.8505   12.5459 C   0  0  0  0  0  0
    0.0580   26.3541   13.5220 O   0  0  0  0  0  0
   -0.7905   28.3699   12.7809 C   0  0  0  0  0  0
   -2.2252   26.2568   12.8471 C   0  0  0  0  0  0
    2.5158   31.2665    6.7177 H   0  0  0  0  0  0
    4.3584   29.7134    7.3044 H   0  0  0  0  0  0
    6.0579   28.2351    7.6603 H   0  0  0  0  0  0
    5.1953   27.6001    9.0336 H   0  0  0  0  0  0
    4.7956   27.5625    5.2570 H   0  0  0  0  0  0
    4.3627   25.5343    3.9840 H   0  0  0  0  0  0
    4.3669   23.2609    7.6478 H   0  0  0  0  0  0
    4.7708   25.3030    8.9019 H   0  0  0  0  0  0
    4.6835   23.6844    2.9762 H   0  0  0  0  0  0
    4.2217   21.5711    1.8235 H   0  0  0  0  0  0
    3.4121   19.6051    3.1251 H   0  0  0  0  0  0
    3.0771   19.8746    5.6009 H   0  0  0  0  0  0
   -2.1214   31.3497    8.1760 H   0  0  0  0  0  0
   -1.0047   33.6060    8.3414 H   0  0  0  0  0  0
   -2.3487   33.4400    9.4615 H   0  0  0  0  0  0
   -0.7133   33.2703   10.0553 H   0  0  0  0  0  0
   -2.1569   29.7707   10.0028 H   0  0  0  0  0  0
   -1.2761   30.8935   11.0416 H   0  0  0  0  0  0
   -2.9084   31.2661   10.5230 H   0  0  0  0  0  0
    1.8159   26.1661   10.9946 H   0  0  0  0  0  0
   -0.3572   25.3401   11.0740 H   0  0  0  0  0  0
   -1.0166   26.7716   10.3744 H   0  0  0  0  0  0
    0.9205   26.7680   13.3730 H   0  0  0  0  0  0
   -1.4538   28.8720   12.0841 H   0  0  0  0  0  0
    0.2068   28.7882   12.6535 H   0  0  0  0  0  0
   -1.1420   28.6374   13.7759 H   0  0  0  0  0  0
   -2.9710   26.6275   12.1449 H   0  0  0  0  0  0
   -2.2213   25.1687   12.7805 H   0  0  0  0  0  0
   -2.5635   26.5251   13.8496 H   0  0  0  0  0  0
  1  2  1  0  0  0
  1  6  2  0  0  0
  1 27  1  0  0  0
  2  3  2  0  0  0
  3  4  1  0  0  0
  3  9  1  0  0  0
  4  5  2  0  0  0
  4  8  1  0  0  0
  5  6  1  0  0  0
  5 10  1  0  0  0
  7  8  1  0  0  0
  7  9  2  0  0  0
  8 33  1  0  0  0
  9 24  1  0  0  0
 10 11  1  0  0  0
 10 34  1  0  0  0
 11 12  1  0  0  0
 11 35  1  0  0  0
 11 36  1  0  0  0
 12 13  1  0  0  0
 12 17  2  0  0  0
 13 14  2  0  0  0
 13 37  1  0  0  0
 14 15  1  0  0  0
 14 38  1  0  0  0
 15 16  2  0  0  0
 15 18  1  0  0  0
 16 17  1  0  0  0
 16 39  1  0  0  0
 17 40  1  0  0  0
 18 19  1  0  0  0
 18 23  2  0  0  0
 19 20  2  0  0  0
 19 41  1  0  0  0
 20 21  1  0  0  0
 20 42  1  0  0  0
 21 22  2  0  0  0
 21 43  1  0  0  0
 22 23  1  0  0  0
 22 44  1  0  0  0
 24 25  1  0  0  0
 24 26  1  0  0  0
 24 45  1  0  0  0
 25 46  1  0  0  0
 25 47  1  0  0  0
 25 48  1  0  0  0
 26 49  1  0  0  0
 26 50  1  0  0  0
 26 51  1  0  0  0
 27 28  1  0  0  0
 27 52  1  0  0  0
 28 29  1  0  0  0
 28 53  1  0  0  0
 28 54  1  0  0  0
 29 30  1  0  0  0
 29 31  1  0  0  0
 29 32  1  0  0  0
 30 55  1  0  0  0
 31 56  1  0  0  0
 31 57  1  0  0  0
 31 58  1  0  0  0
 32 59  1  0  0  0
 32 60  1  0  0  0
 32 61  1  0  0  0
M  END
> <s_m_entry_id>
32846

> <s_m_entry_name>
dock_pv.247

> <s_m_Source_Path>
/home/csk/Desktop/cluster/DUD-E-result/cdk2

> <s_m_Source_File>
dock_pv.maegz

> <i_m_Source_File_Index>
247

> <chembl_id>
CHEMBL3775792

> <chembl_pref_name>
None

> <i_lp_mmshare_version>
53161

> <i_f3d_flags>
0

> <r_lp_tautomer_probability>
1

> <s_lp_Force_Field>
OPLS_2005

> <r_lp_Energy>
12.76512

> <b_lp_Chiralities_Consistent>
1

> <s_lp_Variant>
CHEMBL301_lig35-1

> <s_i_glide_gridfile>
glide-grid_1h00

> <i_i_glide_lignum>
110

> <i_i_glide_rotatable_bonds>
9

> <r_i_docking_score>
-7.62503092689339

> <r_i_glide_ligand_efficiency>
-0.238282216465418

> <r_i_glide_ligand_efficiency_sa>
-0.756498881291097

> <r_i_glide_ligand_efficiency_ln>
-1.70745227502437

> <r_i_glide_gscore>
-7.62503092689339

> <r_i_glide_lipo>
-3.15978603202894

> <r_i_glide_hbond>
-0.579395477840249

> <r_i_glide_metal>
0

> <r_i_glide_rewards>
-1.57366143275309

> <r_i_glide_evdw>
-45.2016830444336

> <r_i_glide_ecoul>
-5.28522634506226

> <r_i_glide_erotb>
0.747685955152931

> <r_i_glide_esite>
-0.00700583544302838

> <r_i_glide_emodel>
-68.9758929913486

> <r_i_glide_energy>
-50.4869093894958

> <r_i_glide_einternal>
9.4841775894165

> <i_i_glide_confnum>
13

> <i_i_glide_posenum>
173

> <r_i_glide_eff_state_penalty>
0

> <s_user_duplicate_titles>
CHEMBL301_lig35

> <s_m_subgroup_title>
dock_pv

> <s_m_subgroupid>
dock_pv

> <b_m_subgroup_collapsed>
1

$$$$
CHEMBL301_lig125
                    3D
 Schrodinger Suite 2021-1.
 34 36  0  0  1  0            999 V2000
    8.5437   25.6328    6.5760 N   0  0  0  0  0  0
    7.0146   24.9646    6.0770 S   0  0  0  0  0  0
    6.7272   23.8420    6.9760 O   0  0  0  0  0  0
    7.0684   24.7866    4.6236 O   0  0  0  0  0  0
    5.8347   26.2511    6.4457 C   0  0  0  0  0  0
    5.2915   27.0337    5.4239 C   0  0  0  0  0  0
    4.4580   28.1007    5.7454 C   0  0  0  0  0  0
    4.1431   28.3605    7.0781 C   0  0  0  0  0  0
    3.3333   29.4520    7.3760 N   0  0  0  0  0  0
    2.2117   29.3675    8.2103 N   0  0  0  0  0  0
    1.2906   30.2520    8.1760 C   0  0  0  0  0  0
    1.2580   31.4866    7.3760 C   0  0  0  0  0  0
    2.0580   31.8520    6.5225 O   0  0  0  0  0  0
    0.1829   32.1732    7.7819 N   0  0  0  0  0  0
   -0.5754   31.4574    8.6771 C   0  0  0  0  0  0
   -1.7875   31.7894    9.2820 C   0  0  0  0  0  0
   -2.3606   30.8810   10.1760 C   0  0  0  0  0  0
   -1.7186   29.6702   10.4589 C   0  0  0  0  0  0
   -2.4242   28.5479   11.5607 Cl  0  0  0  0  0  0
   -0.5016   29.3604    9.8481 C   0  0  0  0  0  0
    0.0635   30.2629    8.9454 C   0  0  0  0  0  0
    4.6489   27.5469    8.0923 C   0  0  0  0  0  0
    5.5030   26.4972    7.7760 C   0  0  0  0  0  0
    9.1637   24.9266    6.9761 H   0  0  0  0  0  0
    9.0077   26.1549    5.8280 H   0  0  0  0  0  0
    5.5512   26.8495    4.3910 H   0  0  0  0  0  0
    4.0692   28.7320    4.9600 H   0  0  0  0  0  0
    3.2935   30.2232    6.7131 H   0  0  0  0  0  0
   -0.0434   33.0941    7.4313 H   0  0  0  0  0  0
   -2.2854   32.7256    9.0751 H   0  0  0  0  0  0
   -3.2983   31.1187   10.6577 H   0  0  0  0  0  0
   -0.0100   28.4261   10.0788 H   0  0  0  0  0  0
    4.4066   27.7435    9.1270 H   0  0  0  0  0  0
    5.9179   25.8925    8.5709 H   0  0  0  0  0  0
  1  2  1  0  0  0
  1 24  1  0  0  0
  1 25  1  0  0  0
  2  3  2  0  0  0
  2  4  2  0  0  0
  2  5  1  0  0  0
  5  6  2  0  0  0
  5 23  1  0  0  0
  6  7  1  0  0  0
  6 26  1  0  0  0
  7  8  2  0  0  0
  7 27  1  0  0  0
  8  9  1  0  0  0
  8 22  1  0  0  0
  9 10  1  0  0  0
  9 28  1  0  0  0
 10 11  2  0  0  0
 11 12  1  0  0  0
 11 21  1  0  0  0
 12 13  2  0  0  0
 12 14  1  0  0  0
 14 15  1  0  0  0
 14 29  1  0  0  0
 15 16  2  0  0  0
 15 21  1  0  0  0
 16 17  1  0  0  0
 16 30  1  0  0  0
 17 18  2  0  0  0
 17 31  1  0  0  0
 18 19  1  0  0  0
 18 20  1  0  0  0
 20 21  2  0  0  0
 20 32  1  0  0  0
 22 23  2  0  0  0
 22 33  1  0  0  0
 23 34  1  0  0  0
M  END
> <s_m_entry_id>
32847

> <s_m_entry_name>
dock_pv.248

> <s_m_Source_Path>
/home/csk/Desktop/cluster/DUD-E-result/cdk2

> <s_m_Source_File>
dock_pv.maegz

> <i_m_Source_File_Index>
248

> <chembl_id>
CHEMBL270054

> <chembl_pref_name>
GW280670X

> <i_lp_mmshare_version>
53161

> <i_f3d_flags>
0

> <r_lp_tautomer_probability>
1

> <s_lp_Force_Field>
OPLS_2005

> <r_lp_Energy>
43.397603

> <b_lp_Chiralities_Consistent>
1

> <s_lp_Variant>
CHEMBL301_lig125-1

> <s_i_glide_gridfile>
glide-grid_1h00

> <i_i_glide_lignum>
261

> <i_i_glide_rotatable_bonds>
3

> <r_i_docking_score>
-7.62464375220772

> <r_i_glide_ligand_efficiency>
-0.331506250095988

> <r_i_glide_ligand_efficiency_sa>
-0.942759677277055

> <r_i_glide_ligand_efficiency_ln>
-1.84370799573096

> <r_i_glide_gscore>
-7.62464375220772

> <r_i_glide_lipo>
-1.98597599445857

> <r_i_glide_hbond>
-0.508618908786521

> <r_i_glide_metal>
0

> <r_i_glide_rewards>
-2.66659576690492

> <r_i_glide_evdw>
-35.8825759887695

> <r_i_glide_ecoul>
-6.49278831481934

> <r_i_glide_erotb>
0.309880870849753

> <r_i_glide_esite>
-0.00528690624608516

> <r_i_glide_emodel>
-59.7089718992996

> <r_i_glide_energy>
-42.3753643035889

> <r_i_glide_einternal>
3.95454668998718

> <i_i_glide_confnum>
3

> <i_i_glide_posenum>
103

> <r_i_glide_eff_state_penalty>
0

> <s_user_duplicate_titles>
CHEMBL301_lig125,441004,136781

> <s_m_subgroup_title>
dock_pv

> <s_m_subgroupid>
dock_pv

> <b_m_subgroup_collapsed>
1

$$$$
CHEMBL301_lig289
                    3D
 Schrodinger Suite 2021-1.
 37 39  0  0  1  0            999 V2000
   -3.4121   26.2520   13.8641 N   0  0  0  0  0  0
   -1.7038   26.0385   14.0859 S   0  0  0  0  0  0
   -1.3952   24.6297   13.8205 O   0  0  0  0  0  0
   -1.3788   26.6520   15.3759 O   0  0  0  0  0  0
   -0.9691   27.0392   12.8042 C   0  0  0  0  0  0
   -1.0653   28.4254   12.9105 C   0  0  0  0  0  0
   -0.5537   29.2327   11.9043 C   0  0  0  0  0  0
    0.0753   28.6643   10.7987 C   0  0  0  0  0  0
    0.5416   29.5414    9.8109 N   0  0  0  0  0  0
    1.6176   29.3932    8.9760 C   0  0  0  0  0  0
    2.6477   28.4363    8.9760 C   0  0  0  0  0  0
    3.3949   28.6626    7.8283 C   0  0  0  0  0  0
    2.8579   29.8225    7.3341 N   0  0  0  0  0  0
    1.7803   30.2519    7.9957 N   0  0  0  0  0  0
    4.4571   27.8674    7.1547 C   0  0  0  0  0  0
    4.4892   27.7978    5.7567 C   0  0  0  0  0  0
    5.3869   26.9462    5.1133 C   0  0  0  0  0  0
    6.2773   26.1744    5.8624 C   0  0  0  0  0  0
    7.1708   25.3563    5.2211 O   0  0  0  0  0  0
    6.2611   26.2519    7.2588 C   0  0  0  0  0  0
    7.1238   25.5203    8.0014 F   0  0  0  0  0  0
    5.3475   27.0905    7.8974 C   0  0  0  0  0  0
    0.1789   27.2720   10.6958 C   0  0  0  0  0  0
   -0.3427   26.4573   11.6995 C   0  0  0  0  0  0
   -3.9530   25.5239   14.3315 H   0  0  0  0  0  0
   -3.7128   27.1909   14.1759 H   0  0  0  0  0  0
   -1.5421   28.8821   13.7661 H   0  0  0  0  0  0
   -0.6499   30.3022   11.9939 H   0  0  0  0  0  0
    0.1777   30.4742    9.9285 H   0  0  0  0  0  0
    2.7785   27.6209    9.6715 H   0  0  0  0  0  0
    3.2296   30.3222    6.5350 H   0  0  0  0  0  0
    3.7944   28.3727    5.1624 H   0  0  0  0  0  0
    5.3917   26.8921    4.0347 H   0  0  0  0  0  0
    7.2255   25.5242    4.2770 H   0  0  0  0  0  0
    5.3234   27.1201    8.9759 H   0  0  0  0  0  0
    0.6341   26.8154    9.8304 H   0  0  0  0  0  0
   -0.2744   25.3827   11.6082 H   0  0  0  0  0  0
  1  2  1  0  0  0
  1 25  1  0  0  0
  1 26  1  0  0  0
  2  3  2  0  0  0
  2  4  2  0  0  0
  2  5  1  0  0  0
  5  6  2  0  0  0
  5 24  1  0  0  0
  6  7  1  0  0  0
  6 27  1  0  0  0
  7  8  2  0  0  0
  7 28  1  0  0  0
  8 23  1  0  0  0
  8  9  1  0  0  0
  9 10  1  0  0  0
  9 29  1  0  0  0
 10 14  2  0  0  0
 10 11  1  0  0  0
 11 12  2  0  0  0
 11 30  1  0  0  0
 12 15  1  0  0  0
 12 13  1  0  0  0
 13 31  1  0  0  0
 13 14  1  0  0  0
 15 16  2  0  0  0
 15 22  1  0  0  0
 16 17  1  0  0  0
 16 32  1  0  0  0
 17 18  2  0  0  0
 17 33  1  0  0  0
 18 19  1  0  0  0
 18 20  1  0  0  0
 19 34  1  0  0  0
 20 21  1  0  0  0
 20 22  2  0  0  0
 22 35  1  0  0  0
 23 24  2  0  0  0
 23 36  1  0  0  0
 24 37  1  0  0  0
M  END
> <s_m_entry_id>
32848

> <s_m_entry_name>
dock_pv.249

> <s_m_Source_Path>
/home/csk/Desktop/cluster/DUD-E-result/cdk2

> <s_m_Source_File>
dock_pv.maegz

> <i_m_Source_File_Index>
249

> <chembl_id>
CHEMBL103115

> <chembl_pref_name>
GW831091X

> <i_lp_mmshare_version>
53161

> <i_f3d_flags>
0

> <r_lp_tautomer_probability>
0.842599999160842

> <s_lp_Force_Field>
OPLS_2005

> <r_lp_Energy>
18.29709

> <b_lp_Chiralities_Consistent>
1

> <s_lp_Variant>
CHEMBL301_lig289-1

> <s_i_glide_gridfile>
glide-grid_1h00

> <i_i_glide_lignum>
460

> <i_i_glide_rotatable_bonds>
5

> <r_i_docking_score>
-7.62235647613388

> <r_i_glide_ligand_efficiency>
-0.317598186505578

> <r_i_glide_ligand_efficiency_sa>
-0.916111695065681

> <r_i_glide_ligand_efficiency_ln>
-1.82437967188639

> <r_i_glide_gscore>
-7.62235647613388

> <r_i_glide_lipo>
-2.53032393031804

> <r_i_glide_hbond>
-0.403269763388576

> <r_i_glide_metal>
0

> <r_i_glide_rewards>
-1.81323006777475

> <r_i_glide_evdw>
-36.0220260620117

> <r_i_glide_ecoul>
-9.15929508209229

> <r_i_glide_erotb>
0.470595133276894

> <r_i_glide_esite>
-0.171132282514981

> <r_i_glide_emodel>
-63.88037558675

> <r_i_glide_energy>
-45.181321144104

> <r_i_glide_einternal>
3.09121894836426

> <i_i_glide_confnum>
2

> <i_i_glide_posenum>
220

> <r_i_glide_eff_state_penalty>
0

> <s_user_duplicate_titles>
CHEMBL301_lig289,CHEMBL301_lig289,166119

> <s_m_subgroup_title>
dock_pv

> <s_m_subgroupid>
dock_pv

> <b_m_subgroup_collapsed>
1

$$$$
CHEMBL301_lig1395
                    3D
 Schrodinger Suite 2021-1.
 40 41  0  0  1  0            999 V2000
    1.1232   27.4779   10.5107 C   0  0  0  0  0  0
   -0.4008   27.6594   10.6560 C   0  0  1  0  0  0
   -0.9350   26.8712   11.8731 C   0  0  0  0  0  0
   -0.3420   27.3095   13.0834 O   0  0  0  0  0  0
   -1.0155   29.3841   10.6280 S   0  0  0  0  0  0
   -0.3153   30.3729    9.3252 C   0  0  0  0  0  0
    0.6960   29.8526    8.5768 N   0  0  0  0  0  0
    1.2875   30.6787    7.6706 C   0  0  0  0  0  0
    2.3879   30.2430    6.9265 N   0  0  0  0  0  0
    3.2595   29.1576    7.0745 C   0  0  0  0  0  0
    3.8758   28.6487    5.9316 C   0  0  0  0  0  0
    4.7765   27.5906    6.0233 C   0  0  0  0  0  0
    5.0624   27.0369    7.2712 C   0  0  0  0  0  0
    4.4527   27.5585    8.4123 C   0  0  0  0  0  0
    3.5753   28.6304    8.3214 C   0  0  0  0  0  0
    6.1615   25.6249    7.4193 S   0  0  1  0  0  0
    7.0918   26.0004    8.5753 N   0  0  0  0  0  0
    5.3634   24.3965    7.3759 O   0  0  0  0  0  0
    7.3474   25.6741    5.9620 C   0  0  0  0  0  0
    0.9189   31.9590    7.4210 N   0  0  0  0  0  0
   -0.0908   32.4562    8.1768 C   0  0  0  0  0  0
   -0.7477   31.6975    9.1457 C   0  0  0  0  0  0
   -2.1435   32.4966   10.1745 Br  0  0  0  0  0  0
    1.4618   26.5053   10.8680 H   0  0  0  0  0  0
    1.4159   27.5267    9.4659 H   0  0  0  0  0  0
    1.6712   28.2420   11.0635 H   0  0  0  0  0  0
   -0.8558   27.2048    9.7745 H   0  0  0  0  0  0
   -0.7322   25.8062   11.7545 H   0  0  0  0  0  0
   -2.0176   26.9742   11.9524 H   0  0  0  0  0  0
    0.6167   27.3011   12.9846 H   0  0  0  0  0  0
    2.7451   30.9392    6.2876 H   0  0  0  0  0  0
    3.6572   29.0791    4.9704 H   0  0  0  0  0  0
    5.2348   27.2072    5.1245 H   0  0  0  0  0  0
    4.6505   27.1353    9.3759 H   0  0  0  0  0  0
    3.1449   29.0472    9.2186 H   0  0  0  0  0  0
    6.5970   25.9874    9.4691 H   0  0  0  0  0  0
    7.8287   26.6503    5.9283 H   0  0  0  0  0  0
    8.0984   24.8990    6.1049 H   0  0  0  0  0  0
    6.7963   25.4875    5.0421 H   0  0  0  0  0  0
   -0.3690   33.4833    7.9910 H   0  0  0  0  0  0
  1  2  1  0  0  0
  1 24  1  0  0  0
  1 25  1  0  0  0
  1 26  1  0  0  0
  2  3  1  0  0  0
  2  5  1  0  0  0
  2 27  1  0  0  0
  3  4  1  0  0  0
  3 28  1  0  0  0
  3 29  1  0  0  0
  4 30  1  0  0  0
  5  6  1  0  0  0
  6  7  2  0  0  0
  6 22  1  0  0  0
  7  8  1  0  0  0
  8  9  1  0  0  0
  8 20  2  0  0  0
  9 10  1  0  0  0
  9 31  1  0  0  0
 10 11  2  0  0  0
 10 15  1  0  0  0
 11 12  1  0  0  0
 11 32  1  0  0  0
 12 13  2  0  0  0
 12 33  1  0  0  0
 13 14  1  0  0  0
 13 16  1  0  0  0
 14 15  2  0  0  0
 14 34  1  0  0  0
 15 35  1  0  0  0
 16 17  2  0  0  0
 16 18  2  0  0  0
 16 19  1  0  0  0
 17 36  1  0  0  0
 19 37  1  0  0  0
 19 38  1  0  0  0
 19 39  1  0  0  0
 20 21  1  0  0  0
 21 22  2  0  0  0
 21 40  1  0  0  0
 22 23  1  0  0  0
M  END
> <s_m_entry_id>
32849

> <s_m_entry_name>
dock_pv.250

> <s_m_Source_Path>
/home/csk/Desktop/cluster/DUD-E-result/cdk2

> <s_m_Source_File>
dock_pv.maegz

> <i_m_Source_File_Index>
250

> <chembl_id>
CHEMBL3648106

> <chembl_pref_name>
None

> <i_lp_mmshare_version>
53161

> <i_f3d_flags>
0

> <r_lp_tautomer_probability>
0.999999987636

> <s_lp_Force_Field>
OPLS_2005

> <r_lp_Energy>
0.345334

> <b_lp_Chiralities_Consistent>
1

> <s_lp_Variant>
CHEMBL301_lig1395-4

> <s_i_glide_gridfile>
glide-grid_1h00

> <i_i_glide_lignum>
1893

> <i_i_glide_rotatable_bonds>
7

> <r_i_docking_score>
-7.62229837899582

> <r_i_glide_ligand_efficiency>
-0.331404277347644

> <r_i_glide_ligand_efficiency_sa>
-0.9424696803455

> <r_i_glide_ligand_efficiency_ln>
-1.84314086322166

> <r_i_glide_gscore>
-7.62229837899582

> <r_i_glide_lipo>
-2.58056258964679

> <r_i_glide_hbond>
-0.547175548092684

> <r_i_glide_metal>
0

> <r_i_glide_rewards>
-1.56084278376068

> <r_i_glide_evdw>
-38.2461090087891

> <r_i_glide_ecoul>
-10.5918073654175

> <r_i_glide_erotb>
0.567359097756403

> <r_i_glide_esite>
0

> <r_i_glide_emodel>
-68.6109987478415

> <r_i_glide_energy>
-48.8379163742065

> <r_i_glide_einternal>
5.20344114303589

> <i_i_glide_confnum>
92

> <i_i_glide_posenum>
186

> <r_i_glide_eff_state_penalty>
0

> <s_user_duplicate_titles>
CHEMBL301_lig1395

> <s_m_subgroup_title>
dock_pv

> <s_m_subgroupid>
dock_pv

> <b_m_subgroup_collapsed>
1

$$$$
CHEMBL301_lig1362
                    3D
 Schrodinger Suite 2021-1.
 47 48  0  0  1  0            999 V2000
   -0.5976   27.1480   13.1491 C   0  0  0  0  0  0
   -1.2945   28.2099   12.2878 C   0  0  2  0  0  0
   -2.6607   27.8493   12.1758 O   0  0  0  0  0  0
   -0.6511   28.4325   10.8901 C   0  0  1  0  0  0
   -0.6402   27.1627   10.0153 C   0  0  0  0  0  0
   -1.2817   29.5525   10.1881 N   0  0  0  0  0  0
   -0.5667   30.3514    9.2794 C   0  0  0  0  0  0
    0.5530   29.8592    8.6772 N   0  0  0  0  0  0
    1.2368   30.6834    7.8390 C   0  0  0  0  0  0
    2.4460   30.2644    7.2596 N   0  0  0  0  0  0
    3.1941   29.0902    7.4031 C   0  0  0  0  0  0
    3.1708   28.3265    8.5703 C   0  0  0  0  0  0
    3.7786   27.0780    8.5758 C   0  0  0  0  0  0
    4.4551   26.5893    7.4544 C   0  0  0  0  0  0
    4.5763   27.4099    6.3162 C   0  0  0  0  0  0
    5.3784   27.0336    5.0853 C   0  0  0  0  0  0
    3.9339   28.6523    6.3063 C   0  0  0  0  0  0
    4.9604   24.8803    7.5591 S   0  0  1  0  0  0
    6.4631   25.0191    7.7704 N   0  0  0  0  0  0
    4.0579   24.1859    8.4841 O   0  0  0  0  0  0
    4.8296   24.0637    5.8713 C   0  0  0  0  0  0
    0.8597   31.9544    7.5416 N   0  0  0  0  0  0
   -0.2345   32.4391    8.1761 C   0  0  0  0  0  0
   -0.9824   31.6712    9.0688 C   0  0  0  0  0  0
   -2.4789   32.4363    9.9682 Br  0  0  0  0  0  0
    0.4515   27.3930   13.2985 H   0  0  0  0  0  0
   -0.6481   26.1603   12.6899 H   0  0  0  0  0  0
   -1.0560   27.0725   14.1367 H   0  0  0  0  0  0
   -1.2623   29.1590   12.8251 H   0  0  0  0  0  0
   -3.1455   28.2598   12.9105 H   0  0  0  0  0  0
    0.3946   28.7036   11.0592 H   0  0  0  0  0  0
    0.0831   26.4289   10.3725 H   0  0  0  0  0  0
   -1.6170   26.6838    9.9581 H   0  0  0  0  0  0
   -0.3659   27.4151    8.9926 H   0  0  0  0  0  0
   -2.0919   29.9618   10.6303 H   0  0  0  0  0  0
    2.9040   30.9539    6.6798 H   0  0  0  0  0  0
    2.6202   28.6396    9.4410 H   0  0  0  0  0  0
    3.6498   26.4553    9.4458 H   0  0  0  0  0  0
    6.3105   26.5383    5.3549 H   0  0  0  0  0  0
    4.8007   26.3987    4.4181 H   0  0  0  0  0  0
    5.6699   27.9227    4.5319 H   0  0  0  0  0  0
    3.9582   29.2606    5.4132 H   0  0  0  0  0  0
    6.6622   25.4630    8.6540 H   0  0  0  0  0  0
    5.6416   24.3900    5.2282 H   0  0  0  0  0  0
    4.9040   22.9848    6.0164 H   0  0  0  0  0  0
    3.8593   24.3010    5.4373 H   0  0  0  0  0  0
   -0.5140   33.4538    7.9572 H   0  0  0  0  0  0
  1  2  1  0  0  0
  1 26  1  0  0  0
  1 27  1  0  0  0
  1 28  1  0  0  0
  2  3  1  0  0  0
  2  4  1  0  0  0
  2 29  1  0  0  0
  3 30  1  0  0  0
  4  5  1  0  0  0
  4  6  1  0  0  0
  4 31  1  0  0  0
  5 32  1  0  0  0
  5 33  1  0  0  0
  5 34  1  0  0  0
  6  7  1  0  0  0
  6 35  1  0  0  0
  7  8  2  0  0  0
  7 24  1  0  0  0
  8  9  1  0  0  0
  9 10  1  0  0  0
  9 22  2  0  0  0
 10 11  1  0  0  0
 10 36  1  0  0  0
 11 12  2  0  0  0
 11 17  1  0  0  0
 12 13  1  0  0  0
 12 37  1  0  0  0
 13 14  2  0  0  0
 13 38  1  0  0  0
 14 15  1  0  0  0
 14 18  1  0  0  0
 15 16  1  0  0  0
 15 17  2  0  0  0
 16 39  1  0  0  0
 16 40  1  0  0  0
 16 41  1  0  0  0
 17 42  1  0  0  0
 18 19  2  0  0  0
 18 20  2  0  0  0
 18 21  1  0  0  0
 19 43  1  0  0  0
 21 44  1  0  0  0
 21 45  1  0  0  0
 21 46  1  0  0  0
 22 23  1  0  0  0
 23 24  2  0  0  0
 23 47  1  0  0  0
 24 25  1  0  0  0
M  END
> <s_m_entry_id>
32850

> <s_m_entry_name>
dock_pv.251

> <s_m_Source_Path>
/home/csk/Desktop/cluster/DUD-E-result/cdk2

> <s_m_Source_File>
dock_pv.maegz

> <i_m_Source_File_Index>
251

> <chembl_id>
CHEMBL3648096

> <chembl_pref_name>
None

> <i_lp_mmshare_version>
53161

> <i_f3d_flags>
0

> <r_lp_tautomer_probability>
0.999999624730965

> <s_lp_Force_Field>
OPLS_2005

> <r_lp_Energy>
7.57645

> <b_lp_Chiralities_Consistent>
1

> <s_lp_Variant>
CHEMBL301_lig1362-2

> <s_i_glide_gridfile>
glide-grid_1h00

> <i_i_glide_lignum>
1821

> <i_i_glide_rotatable_bonds>
7

> <r_i_docking_score>
-7.62134433147896

> <r_i_glide_ligand_efficiency>
-0.304853773259158

> <r_i_glide_ligand_efficiency_sa>
-0.891397839614469

> <r_i_glide_ligand_efficiency_ln>
-1.80648699981992

> <r_i_glide_gscore>
-7.62134433147896

> <r_i_glide_lipo>
-2.68928777709694

> <r_i_glide_hbond>
-0.413721004752379

> <r_i_glide_metal>
0

> <r_i_glide_rewards>
-1.84849273699482

> <r_i_glide_evdw>
-35.6930351257324

> <r_i_glide_ecoul>
-9.50978183746338

> <r_i_glide_erotb>
0.541276219271308

> <r_i_glide_esite>
0

> <r_i_glide_emodel>
-60.0865548115951

> <r_i_glide_energy>
-45.2028169631958

> <r_i_glide_einternal>
9.35024166107178

> <i_i_glide_confnum>
17

> <i_i_glide_posenum>
389

> <r_i_glide_eff_state_penalty>
0

> <s_user_duplicate_titles>
CHEMBL301_lig1362

> <s_m_subgroup_title>
dock_pv

> <s_m_subgroupid>
dock_pv

> <b_m_subgroup_collapsed>
1

$$$$
CHEMBL301_lig1145
                    3D
 Schrodinger Suite 2021-1.
 61 64  0  0  1  0            999 V2000
    3.8425   28.9468    8.1766 C   0  0  0  0  0  0
    4.8138   27.9739    8.3918 C   0  0  0  0  0  0
    5.2580   27.1719    7.3458 C   0  0  0  0  0  0
    4.6923   27.3313    6.0664 C   0  0  0  0  0  0
    3.7510   28.3527    5.8571 C   0  0  0  0  0  0
    3.3131   29.1537    6.9100 C   0  0  0  0  0  0
    2.4579   30.2406    6.6767 N   0  0  0  0  0  0
    1.4231   30.7234    7.4840 C   0  0  0  0  0  0
    1.1145   32.0399    7.3755 N   0  0  0  0  0  0
    0.0801   32.4922    8.1331 C   0  0  0  0  0  0
   -0.6461   31.6553    8.9768 C   0  0  0  0  0  0
   -0.2451   30.3126    9.0534 C   0  0  0  0  0  0
    0.7945   29.8524    8.3105 N   0  0  0  0  0  0
   -0.8869   29.3191    9.9653 C   0  0  0  0  0  0
   -0.2970   28.0706   10.2520 C   0  0  0  0  0  0
   -0.9334   27.1502   11.1056 C   0  0  0  0  0  0
   -2.1307   27.4615   11.6746 N   0  0  0  0  0  0
   -2.7063   28.6519   11.3818 C   0  0  0  0  0  0
   -2.1221   29.5964   10.5519 C   0  0  0  0  0  0
   -0.3953   25.7721   11.3968 C   0  0  0  0  0  0
   -1.1717   24.8234   12.0821 C   0  0  0  0  0  0
   -0.7065   23.5346   12.3265 C   0  0  0  0  0  0
    0.5594   23.1498   11.8880 C   0  0  0  0  0  0
    1.3625   24.0849   11.2213 C   0  0  0  0  0  0
    0.8889   25.3759   10.9837 C   0  0  0  0  0  0
    0.9242   21.8185   12.1748 N   0  0  0  0  0  0
    1.9867   21.1064   11.7587 C   0  0  0  0  0  0
    2.0182   19.9076   12.3511 N   0  0  0  0  0  0
    2.8576   21.4962   10.9759 O   0  0  0  0  0  0
    3.2238   19.1004   12.4777 C   0  0  0  0  0  0
    5.1060   26.2783    4.6682 S   0  0  0  0  0  0
    4.0867   24.8364    4.8724 N   0  0  0  0  0  0
    4.6556   26.9919    3.4660 O   0  0  0  0  0  0
    6.5098   25.8668    4.7773 O   0  0  0  0  0  0
    3.6599   24.1647    3.6325 C   0  0  0  0  0  0
    6.4939   26.0184    7.7159 Cl  0  0  0  0  0  0
    4.4082   23.9328    5.9967 C   0  0  0  0  0  0
    3.5137   29.5778    8.9760 H   0  0  0  0  0  0
    5.2379   27.8519    9.3759 H   0  0  0  0  0  0
    3.3412   28.5173    4.8739 H   0  0  0  0  0  0
    2.9512   30.9716    6.1727 H   0  0  0  0  0  0
   -0.1623   33.5419    8.0447 H   0  0  0  0  0  0
   -1.4552   32.0607    9.5655 H   0  0  0  0  0  0
    0.6442   27.8181    9.7934 H   0  0  0  0  0  0
   -3.6781   28.8418   11.8064 H   0  0  0  0  0  0
   -2.6597   30.5137   10.3762 H   0  0  0  0  0  0
   -2.1667   25.0658   12.4226 H   0  0  0  0  0  0
   -1.3458   22.8393   12.8484 H   0  0  0  0  0  0
    2.3533   23.8466   10.8753 H   0  0  0  0  0  0
    1.5495   26.0548   10.4729 H   0  0  0  0  0  0
    0.2607   21.3213   12.7479 H   0  0  0  0  0  0
    1.1611   19.5086   12.7198 H   0  0  0  0  0  0
    3.1553   18.4625   13.3602 H   0  0  0  0  0  0
    4.1182   19.7177   12.5790 H   0  0  0  0  0  0
    3.3493   18.4647   11.5990 H   0  0  0  0  0  0
    2.9452   23.3690    3.8415 H   0  0  0  0  0  0
    3.1888   24.8944    2.9764 H   0  0  0  0  0  0
    4.5219   23.7484    3.1055 H   0  0  0  0  0  0
    3.6558   23.1477    6.0752 H   0  0  0  0  0  0
    5.3867   23.4772    5.8366 H   0  0  0  0  0  0
    4.4226   24.4933    6.9289 H   0  0  0  0  0  0
  1  6  1  0  0  0
  1  2  2  0  0  0
  1 38  1  0  0  0
  2  3  1  0  0  0
  2 39  1  0  0  0
  3  4  2  0  0  0
  3 36  1  0  0  0
  4  5  1  0  0  0
  4 31  1  0  0  0
  5  6  2  0  0  0
  5 40  1  0  0  0
  6  7  1  0  0  0
  7  8  1  0  0  0
  7 41  1  0  0  0
  8  9  2  0  0  0
  8 13  1  0  0  0
  9 10  1  0  0  0
 10 11  2  0  0  0
 10 42  1  0  0  0
 11 12  1  0  0  0
 11 43  1  0  0  0
 12 14  1  0  0  0
 12 13  2  0  0  0
 14 19  1  0  0  0
 14 15  2  0  0  0
 15 16  1  0  0  0
 15 44  1  0  0  0
 16 20  1  0  0  0
 16 17  2  0  0  0
 17 18  1  0  0  0
 18 19  2  0  0  0
 18 45  1  0  0  0
 19 46  1  0  0  0
 20 21  2  0  0  0
 20 25  1  0  0  0
 21 22  1  0  0  0
 21 47  1  0  0  0
 22 23  2  0  0  0
 22 48  1  0  0  0
 23 24  1  0  0  0
 23 26  1  0  0  0
 24 25  2  0  0  0
 24 49  1  0  0  0
 25 50  1  0  0  0
 26 27  1  0  0  0
 26 51  1  0  0  0
 27 28  1  0  0  0
 27 29  2  0  0  0
 28 30  1  0  0  0
 28 52  1  0  0  0
 30 53  1  0  0  0
 30 54  1  0  0  0
 30 55  1  0  0  0
 31 32  1  0  0  0
 31 33  2  0  0  0
 31 34  2  0  0  0
 32 35  1  0  0  0
 32 37  1  0  0  0
 35 56  1  0  0  0
 35 57  1  0  0  0
 35 58  1  0  0  0
 37 59  1  0  0  0
 37 60  1  0  0  0
 37 61  1  0  0  0
M  END
> <s_m_entry_id>
32851

> <s_m_entry_name>
dock_pv.252

> <s_m_Source_Path>
/home/csk/Desktop/cluster/DUD-E-result/cdk2

> <s_m_Source_File>
dock_pv.maegz

> <i_m_Source_File_Index>
252

> <chembl_id>
CHEMBL2158865

> <chembl_pref_name>
None

> <i_lp_mmshare_version>
53161

> <i_f3d_flags>
0

> <r_lp_tautomer_probability>
0.999999987636

> <s_lp_Force_Field>
OPLS_2005

> <r_lp_Energy>
17.209729

> <b_lp_Chiralities_Consistent>
1

> <s_lp_Variant>
CHEMBL301_lig1145-1

> <s_i_glide_gridfile>
glide-grid_1h00

> <i_i_glide_lignum>
1557

> <i_i_glide_rotatable_bonds>
9

> <r_i_docking_score>
-7.61891494852184

> <r_i_glide_ligand_efficiency>
-0.20591662023032

> <r_i_glide_ligand_efficiency_sa>
-0.686159860722664

> <r_i_glide_ligand_efficiency_ln>
-1.65236403962625

> <r_i_glide_gscore>
-7.61891494852184

> <r_i_glide_lipo>
-3.42401721894655

> <r_i_glide_hbond>
-0.391973043649152

> <r_i_glide_metal>
0

> <r_i_glide_rewards>
-0.376138499974217

> <r_i_glide_evdw>
-48.2719955444336

> <r_i_glide_ecoul>
-9.34777641296387

> <r_i_glide_erotb>
0.499607148793353

> <r_i_glide_esite>
-0.110627095579015

> <r_i_glide_emodel>
-78.185204349663

> <r_i_glide_energy>
-57.6197719573975

> <r_i_glide_einternal>
9.06461811065674

> <i_i_glide_confnum>
13

> <i_i_glide_posenum>
292

> <r_i_glide_eff_state_penalty>
0

> <s_user_duplicate_titles>
CHEMBL301_lig1145

> <s_m_subgroup_title>
dock_pv

> <s_m_subgroupid>
dock_pv

> <b_m_subgroup_collapsed>
1

$$$$
CHEMBL301_lig1428
                    3D
 Schrodinger Suite 2021-1.
 55 59  0  0  1  0            999 V2000
    3.8553   22.0149    4.3557 C   0  0  0  0  0  0
    4.2067   22.4199    5.7889 C   0  0  0  0  0  0
    4.3463   21.5137    6.6152 O   0  0  0  0  0  0
    4.3303   23.7383    6.1087 N   0  0  0  0  0  0
    4.5573   24.1410    7.5150 C   0  0  0  0  0  0
    5.8144   25.0446    7.5619 C   0  0  0  0  0  0
    5.6955   26.2636    6.6253 C   0  0  0  0  0  0
    5.4525   25.6853    5.2058 C   0  0  0  0  0  0
    4.1789   24.8230    5.1149 C   0  0  0  0  0  0
    4.7167   27.2891    7.0963 N   0  0  0  0  0  0
    4.3648   27.3297    8.3924 N   0  0  0  0  0  0
    3.5479   28.3446    8.5085 C   0  0  0  0  0  0
    3.3180   29.0101    7.3042 C   0  0  0  0  0  0
    4.1552   28.3463    6.4111 C   0  0  0  0  0  0
    2.5433   30.1158    7.0378 N   0  0  0  0  0  0
    1.4234   30.6242    7.6978 C   0  0  0  0  0  0
    0.7431   29.8518    8.5850 N   0  0  0  0  0  0
   -0.3447   30.3924    9.2000 C   0  0  0  0  0  0
   -0.7081   31.7362    8.9750 C   0  0  0  0  0  0
    0.0580   32.4398    8.0489 C   0  0  0  0  0  0
    1.1059   31.8996    7.3761 N   0  0  0  0  0  0
   -1.9896   32.5757    9.7798 Cl  0  0  0  0  0  0
   -1.0679   29.4448   10.1043 C   0  0  0  0  0  0
   -0.6162   28.2077   10.6683 C   0  0  0  0  0  0
   -1.6944   27.7530   11.4469 N   0  0  0  0  0  0
   -2.7502   28.5772   11.3760 N   0  0  0  0  0  0
   -2.3755   29.5498   10.5850 C   0  0  0  0  0  0
   -1.6720   26.5903   12.1697 C   0  0  0  0  0  0
   -0.5233   25.8048   12.1414 C   0  0  0  0  0  0
    0.5687   26.2051   11.3752 C   0  0  0  0  0  0
    0.5329   27.3929   10.6377 C   0  0  0  0  0  0
    4.4582   28.6520    4.9761 C   0  0  0  0  0  0
    4.5947   22.3887    3.6476 H   0  0  0  0  0  0
    2.8685   22.4001    4.0913 H   0  0  0  0  0  0
    3.8252   20.9298    4.2628 H   0  0  0  0  0  0
    3.6810   24.6984    7.8492 H   0  0  0  0  0  0
    4.6948   23.2873    8.1761 H   0  0  0  0  0  0
    6.0352   25.3734    8.5763 H   0  0  0  0  0  0
    6.7154   24.4784    7.3235 H   0  0  0  0  0  0
    6.6544   26.7864    6.6273 H   0  0  0  0  0  0
    6.3274   25.1042    4.9070 H   0  0  0  0  0  0
    5.4771   26.4397    4.4302 H   0  0  0  0  0  0
    4.0393   24.4812    4.0883 H   0  0  0  0  0  0
    3.3123   25.4236    5.3914 H   0  0  0  0  0  0
    3.1424   28.6268    9.4641 H   0  0  0  0  0  0
    2.9041   30.7544    6.3396 H   0  0  0  0  0  0
   -0.1923   33.4520    7.8007 H   0  0  0  0  0  0
   -3.0841   30.3344   10.3657 H   0  0  0  0  0  0
   -2.5636   26.3448   12.7318 H   0  0  0  0  0  0
   -0.4785   24.8859   12.7070 H   0  0  0  0  0  0
    1.4610   25.5952   11.3541 H   0  0  0  0  0  0
    1.3823   27.6747   10.0476 H   0  0  0  0  0  0
    4.2049   29.6830    4.7704 H   0  0  0  0  0  0
    5.5173   28.5691    4.7368 H   0  0  0  0  0  0
    3.8854   28.0324    4.2863 H   0  0  0  0  0  0
  1  2  1  0  0  0
  1 33  1  0  0  0
  1 34  1  0  0  0
  1 35  1  0  0  0
  2  3  2  0  0  0
  2  4  1  0  0  0
  4  5  1  0  0  0
  4  9  1  0  0  0
  5  6  1  0  0  0
  5 36  1  0  0  0
  5 37  1  0  0  0
  6  7  1  0  0  0
  6 38  1  0  0  0
  6 39  1  0  0  0
  7  8  1  0  0  0
  7 10  1  0  0  0
  7 40  1  0  0  0
  8  9  1  0  0  0
  8 41  1  0  0  0
  8 42  1  0  0  0
  9 43  1  0  0  0
  9 44  1  0  0  0
 10 11  1  0  0  0
 10 14  1  0  0  0
 11 12  2  0  0  0
 12 13  1  0  0  0
 12 45  1  0  0  0
 13 14  2  0  0  0
 13 15  1  0  0  0
 14 32  1  0  0  0
 15 16  1  0  0  0
 15 46  1  0  0  0
 16 17  2  0  0  0
 16 21  1  0  0  0
 17 18  1  0  0  0
 18 19  2  0  0  0
 18 23  1  0  0  0
 19 20  1  0  0  0
 19 22  1  0  0  0
 20 21  2  0  0  0
 20 47  1  0  0  0
 23 24  2  0  0  0
 23 27  1  0  0  0
 24 25  1  0  0  0
 24 31  1  0  0  0
 25 26  1  0  0  0
 25 28  1  0  0  0
 26 27  2  0  0  0
 27 48  1  0  0  0
 28 29  2  0  0  0
 28 49  1  0  0  0
 29 30  1  0  0  0
 29 50  1  0  0  0
 30 31  2  0  0  0
 30 51  1  0  0  0
 31 52  1  0  0  0
 32 53  1  0  0  0
 32 54  1  0  0  0
 32 55  1  0  0  0
M  END
> <s_m_entry_id>
32852

> <s_m_entry_name>
dock_pv.253

> <s_m_Source_Path>
/home/csk/Desktop/cluster/DUD-E-result/cdk2

> <s_m_Source_File>
dock_pv.maegz

> <i_m_Source_File_Index>
253

> <chembl_id>
CHEMBL3823301

> <chembl_pref_name>
None

> <i_lp_mmshare_version>
53161

> <i_f3d_flags>
0

> <r_lp_tautomer_probability>
0.999999987636

> <s_lp_Force_Field>
OPLS_2005

> <r_lp_Energy>
28.081914

> <b_lp_Chiralities_Consistent>
1

> <s_lp_Variant>
CHEMBL301_lig1428-1

> <s_i_glide_gridfile>
glide-grid_1h00

> <i_i_glide_lignum>
1940

> <i_i_glide_rotatable_bonds>
5

> <r_i_docking_score>
-7.61425179184896

> <r_i_glide_ligand_efficiency>
-0.23794536849528

> <r_i_glide_ligand_efficiency_sa>
-0.755429455648031

> <r_i_glide_ligand_efficiency_ln>
-1.7050385328598

> <r_i_glide_gscore>
-7.61425179184896

> <r_i_glide_lipo>
-3.10255099344115

> <r_i_glide_hbond>
-0.209157984931755

> <r_i_glide_metal>
0

> <r_i_glide_rewards>
-1.77955508029157

> <r_i_glide_evdw>
-45.2093200683594

> <r_i_glide_ecoul>
-4.32345008850098

> <r_i_glide_erotb>
0.394485934762865

> <r_i_glide_esite>
-0.00849015125424036

> <r_i_glide_emodel>
-69.3505918378965

> <r_i_glide_energy>
-49.5327701568604

> <r_i_glide_einternal>
6.40241384506226

> <i_i_glide_confnum>
25

> <i_i_glide_posenum>
354

> <r_i_glide_eff_state_penalty>
0

> <s_user_duplicate_titles>
CHEMBL301_lig1428

> <s_m_subgroup_title>
dock_pv

> <s_m_subgroupid>
dock_pv

> <b_m_subgroup_collapsed>
1

$$$$
CHEMBL301_lig1332
                    3D
 Schrodinger Suite 2021-1.
 57 59  0  0  1  0            999 V2000
   -0.7464   26.6079   13.5785 C   0  0  0  0  0  0
   -0.1719   25.7237   12.4588 C   0  0  0  0  0  0
    0.6207   26.5006   11.3735 C   0  0  2  0  0  0
   -0.2875   27.3555   10.6058 N   0  0  0  0  0  0
    0.1316   28.4782    9.8863 C   0  0  0  0  0  0
    1.3993   28.5541    9.3929 N   0  0  0  0  0  0
    1.7323   29.6362    8.6377 C   0  0  0  0  0  0
    3.0405   29.7996    8.1542 N   0  0  0  0  0  0
    4.1375   28.8712    8.4319 C   0  0  0  0  0  0
    4.3337   27.8669    7.3056 C   0  0  0  0  0  0
    4.2940   28.2508    5.9570 C   0  0  0  0  0  0
    4.4607   27.2889    4.9595 C   0  0  0  0  0  0
    4.6740   25.9617    5.3421 C   0  0  0  0  0  0
    4.8417   24.8612    4.3117 C   0  0  0  0  0  0
    4.7383   25.5698    6.6419 N   0  0  0  0  0  0
    4.5737   26.5193    7.5979 C   0  0  0  0  0  0
    0.7864   30.6519    8.4224 C   0  0  0  0  0  0
    0.8574   31.8622    7.7760 N   0  0  0  0  0  0
   -0.2354   32.4712    8.1759 C   0  0  0  0  0  0
   -1.1416   31.6696    8.8432 N   0  0  0  0  0  0
   -2.4877   32.0698    9.2629 C   0  0  0  0  0  0
   -2.5091   32.4055   10.7565 C   0  0  0  0  0  0
   -3.5432   31.0189    8.8672 C   0  0  0  0  0  0
   -0.4643   30.4844    9.0627 C   0  0  0  0  0  0
   -0.8392   29.4131    9.7642 N   0  0  0  0  0  0
    1.5501   25.5980   10.5018 C   0  0  1  0  0  0
    2.6152   24.8181   11.2809 C   0  0  0  0  0  0
    0.7995   24.6521    9.7760 O   0  0  0  0  0  0
   -1.3591   26.0191   14.2617 H   0  0  0  0  0  0
    0.0556   27.0566   14.1648 H   0  0  0  0  0  0
   -1.3733   27.4117   13.1889 H   0  0  0  0  0  0
   -0.9808   25.1654   11.9839 H   0  0  0  0  0  0
    0.4551   24.9728   12.9344 H   0  0  0  0  0  0
    1.2627   27.1986   11.9044 H   0  0  0  0  0  0
   -1.2256   27.4304   10.9663 H   0  0  0  0  0  0
    3.2517   30.6326    7.6218 H   0  0  0  0  0  0
    5.0566   29.4495    8.5411 H   0  0  0  0  0  0
    3.9726   28.3521    9.3778 H   0  0  0  0  0  0
    4.1259   29.2826    5.6830 H   0  0  0  0  0  0
    4.4217   27.5687    3.9177 H   0  0  0  0  0  0
    5.8045   24.3659    4.4379 H   0  0  0  0  0  0
    4.0553   24.1154    4.4203 H   0  0  0  0  0  0
    4.7940   25.2481    3.2937 H   0  0  0  0  0  0
    4.6265   26.1751    8.6202 H   0  0  0  0  0  0
   -0.5125   33.4820    7.9076 H   0  0  0  0  0  0
   -2.7259   32.9859    8.7287 H   0  0  0  0  0  0
   -3.4792   32.8078   11.0519 H   0  0  0  0  0  0
   -1.7588   33.1643   10.9771 H   0  0  0  0  0  0
   -2.3274   31.5262   11.3753 H   0  0  0  0  0  0
   -4.5394   31.3364    9.1730 H   0  0  0  0  0  0
   -3.5636   30.8696    7.7877 H   0  0  0  0  0  0
   -3.3673   30.0528    9.3402 H   0  0  0  0  0  0
    2.0725   26.1998    9.7609 H   0  0  0  0  0  0
    3.2366   25.4869   11.8772 H   0  0  0  0  0  0
    2.1878   24.0728   11.9510 H   0  0  0  0  0  0
    3.2587   24.2915   10.5795 H   0  0  0  0  0  0
    1.3138   24.3509    9.0196 H   0  0  0  0  0  0
  1  2  1  0  0  0
  1 29  1  0  0  0
  1 30  1  0  0  0
  1 31  1  0  0  0
  2  3  1  0  0  0
  2 32  1  0  0  0
  2 33  1  0  0  0
  3  4  1  0  0  0
  3 26  1  0  0  0
  3 34  1  0  0  0
  4  5  1  0  0  0
  4 35  1  0  0  0
  5  6  2  0  0  0
  5 25  1  0  0  0
  6  7  1  0  0  0
  7  8  1  0  0  0
  7 17  2  0  0  0
  8  9  1  0  0  0
  8 36  1  0  0  0
  9 10  1  0  0  0
  9 37  1  0  0  0
  9 38  1  0  0  0
 10 11  2  0  0  0
 10 16  1  0  0  0
 11 12  1  0  0  0
 11 39  1  0  0  0
 12 13  2  0  0  0
 12 40  1  0  0  0
 13 14  1  0  0  0
 13 15  1  0  0  0
 14 41  1  0  0  0
 14 42  1  0  0  0
 14 43  1  0  0  0
 15 16  2  0  0  0
 16 44  1  0  0  0
 17 18  1  0  0  0
 17 24  1  0  0  0
 18 19  2  0  0  0
 19 20  1  0  0  0
 19 45  1  0  0  0
 20 21  1  0  0  0
 20 24  1  0  0  0
 21 22  1  0  0  0
 21 23  1  0  0  0
 21 46  1  0  0  0
 22 47  1  0  0  0
 22 48  1  0  0  0
 22 49  1  0  0  0
 23 50  1  0  0  0
 23 51  1  0  0  0
 23 52  1  0  0  0
 24 25  2  0  0  0
 26 27  1  0  0  0
 26 28  1  0  0  0
 26 53  1  0  0  0
 27 54  1  0  0  0
 27 55  1  0  0  0
 27 56  1  0  0  0
 28 57  1  0  0  0
M  END
> <s_m_entry_id>
32853

> <s_m_entry_name>
dock_pv.254

> <s_m_Source_Path>
/home/csk/Desktop/cluster/DUD-E-result/cdk2

> <s_m_Source_File>
dock_pv.maegz

> <i_m_Source_File_Index>
254

> <chembl_id>
CHEMBL3655763

> <chembl_pref_name>
None

> <i_lp_mmshare_version>
53161

> <i_f3d_flags>
0

> <r_lp_tautomer_probability>
1

> <s_lp_Force_Field>
OPLS_2005

> <r_lp_Energy>
21.14616

> <b_lp_Chiralities_Consistent>
1

> <s_lp_Variant>
CHEMBL301_lig1332-1

> <s_i_glide_gridfile>
glide-grid_1h00

> <i_i_glide_lignum>
1759

> <i_i_glide_rotatable_bonds>
9

> <r_i_docking_score>
-7.60461472654288

> <r_i_glide_ligand_efficiency>
-0.271593383090817

> <r_i_glide_ligand_efficiency_sa>
-0.824717471011935

> <r_i_glide_ligand_efficiency_ln>
-1.75536836007664

> <r_i_glide_gscore>
-7.60461472654288

> <r_i_glide_lipo>
-2.74021371903401

> <r_i_glide_hbond>
-0.392255853277075

> <r_i_glide_metal>
0

> <r_i_glide_rewards>
-2.25815488578722

> <r_i_glide_evdw>
-41.2121086120605

> <r_i_glide_ecoul>
-6.30803298950195

> <r_i_glide_erotb>
0.792820110583749

> <r_i_glide_esite>
0

> <r_i_glide_emodel>
-65.9981715013835

> <r_i_glide_energy>
-47.5201416015625

> <r_i_glide_einternal>
6.80442714691162

> <i_i_glide_confnum>
66

> <i_i_glide_posenum>
174

> <r_i_glide_eff_state_penalty>
0

> <s_user_duplicate_titles>
CHEMBL301_lig1332

> <s_m_subgroup_title>
dock_pv

> <s_m_subgroupid>
dock_pv

> <b_m_subgroup_collapsed>
1

$$$$
CHEMBL301_lig1329
                    3D
 Schrodinger Suite 2021-1.
 57 59  0  0  1  0            999 V2000
   -1.8873   26.8607   13.3244 C   0  0  0  0  0  0
   -1.9616   25.9674   12.0746 C   0  0  0  0  0  0
   -0.9094   26.3000   10.9952 C   0  0  2  0  0  0
   -1.1418   25.4521    9.8828 O   0  0  0  0  0  0
    0.5844   26.2554   11.4749 C   0  0  1  0  0  0
    1.0003   24.9358   12.1763 C   0  0  0  0  0  0
    1.0187   23.6700   11.2992 C   0  0  0  0  0  0
    1.5990   26.6202   10.4842 N   0  0  0  0  0  0
    1.6746   27.8206    9.7757 C   0  0  0  0  0  0
    2.7734   27.9010    8.9895 N   0  0  0  0  0  0
    2.8764   28.9535    8.1396 C   0  0  0  0  0  0
    4.0003   29.0522    7.3080 N   0  0  0  0  0  0
    5.0584   28.0460    7.2554 C   0  0  0  0  0  0
    4.7809   27.0459    6.1452 C   0  0  0  0  0  0
    4.8569   27.4296    4.8004 C   0  0  0  0  0  0
    4.5996   26.4913    3.7989 C   0  0  0  0  0  0
    4.2772   25.1868    4.1762 C   0  0  0  0  0  0
    4.2094   24.7894    5.4734 N   0  0  0  0  0  0
    4.4639   25.7151    6.4356 C   0  0  0  0  0  0
    1.8523   29.9174    8.0856 C   0  0  0  0  0  0
    1.6580   31.0346    7.3144 N   0  0  0  0  0  0
    0.5429   31.5455    7.7764 C   0  0  0  0  0  0
   -0.0421   30.8345    8.8124 N   0  0  0  0  0  0
   -1.2155   31.1971    9.6310 C   0  0  0  0  0  0
   -2.3990   30.2518    9.3750 C   0  0  0  0  0  0
   -1.6373   32.6662    9.4447 C   0  0  0  0  0  0
    0.7883   29.7444    8.9997 C   0  0  0  0  0  0
    0.6760   28.7386    9.8719 N   0  0  0  0  0  0
   -2.7173   26.6499   14.0004 H   0  0  0  0  0  0
   -0.9640   26.7041   13.8830 H   0  0  0  0  0  0
   -1.9423   27.9177   13.0577 H   0  0  0  0  0  0
   -2.9557   26.0891   11.6436 H   0  0  0  0  0  0
   -1.8908   24.9195   12.3676 H   0  0  0  0  0  0
   -1.1494   27.2972   10.6364 H   0  0  0  0  0  0
   -2.0562   25.5524    9.6098 H   0  0  0  0  0  0
    0.6686   27.0308   12.2397 H   0  0  0  0  0  0
    2.0055   25.0759   12.5757 H   0  0  0  0  0  0
    0.3654   24.7585   13.0429 H   0  0  0  0  0  0
    1.4551   22.8297   11.8401 H   0  0  0  0  0  0
    0.0111   23.3763   11.0084 H   0  0  0  0  0  0
    1.5998   23.8163   10.3874 H   0  0  0  0  0  0
    2.4028   26.0188   10.3937 H   0  0  0  0  0  0
    4.1011   29.8915    6.7434 H   0  0  0  0  0  0
    5.9992   28.5526    7.0406 H   0  0  0  0  0  0
    5.1874   27.5417    8.2162 H   0  0  0  0  0  0
    5.1147   28.4459    4.5389 H   0  0  0  0  0  0
    4.6495   26.7596    2.7532 H   0  0  0  0  0  0
    4.0675   24.4365    3.4252 H   0  0  0  0  0  0
    4.3897   25.3730    7.4579 H   0  0  0  0  0  0
    0.1078   32.4745    7.4390 H   0  0  0  0  0  0
   -0.9048   31.0748   10.6708 H   0  0  0  0  0  0
   -3.1750   30.3877   10.1281 H   0  0  0  0  0  0
   -2.0950   29.2066    9.4035 H   0  0  0  0  0  0
   -2.8544   30.4465    8.4057 H   0  0  0  0  0  0
   -2.4619   32.9284   10.1092 H   0  0  0  0  0  0
   -0.8121   33.3376    9.6686 H   0  0  0  0  0  0
   -1.9580   32.8673    8.4233 H   0  0  0  0  0  0
  1  2  1  0  0  0
  1 29  1  0  0  0
  1 30  1  0  0  0
  1 31  1  0  0  0
  2  3  1  0  0  0
  2 32  1  0  0  0
  2 33  1  0  0  0
  3  4  1  0  0  0
  3  5  1  0  0  0
  3 34  1  0  0  0
  4 35  1  0  0  0
  5  6  1  0  0  0
  5  8  1  0  0  0
  5 36  1  0  0  0
  6  7  1  0  0  0
  6 37  1  0  0  0
  6 38  1  0  0  0
  7 39  1  0  0  0
  7 40  1  0  0  0
  7 41  1  0  0  0
  8  9  1  0  0  0
  8 42  1  0  0  0
  9 10  2  0  0  0
  9 28  1  0  0  0
 10 11  1  0  0  0
 11 12  1  0  0  0
 11 20  2  0  0  0
 12 13  1  0  0  0
 12 43  1  0  0  0
 13 14  1  0  0  0
 13 44  1  0  0  0
 13 45  1  0  0  0
 14 15  2  0  0  0
 14 19  1  0  0  0
 15 16  1  0  0  0
 15 46  1  0  0  0
 16 17  2  0  0  0
 16 47  1  0  0  0
 17 18  1  0  0  0
 17 48  1  0  0  0
 18 19  2  0  0  0
 19 49  1  0  0  0
 20 21  1  0  0  0
 20 27  1  0  0  0
 21 22  2  0  0  0
 22 23  1  0  0  0
 22 50  1  0  0  0
 23 24  1  0  0  0
 23 27  1  0  0  0
 24 25  1  0  0  0
 24 26  1  0  0  0
 24 51  1  0  0  0
 25 52  1  0  0  0
 25 53  1  0  0  0
 25 54  1  0  0  0
 26 55  1  0  0  0
 26 56  1  0  0  0
 26 57  1  0  0  0
 27 28  2  0  0  0
M  END
> <s_m_entry_id>
32854

> <s_m_entry_name>
dock_pv.255

> <s_m_Source_Path>
/home/csk/Desktop/cluster/DUD-E-result/cdk2

> <s_m_Source_File>
dock_pv.maegz

> <i_m_Source_File_Index>
255

> <chembl_id>
CHEMBL1922120

> <chembl_pref_name>
None

> <i_lp_mmshare_version>
53161

> <i_f3d_flags>
0

> <r_lp_tautomer_probability>
1

> <s_lp_Force_Field>
OPLS_2005

> <r_lp_Energy>
19.549335

> <b_lp_Chiralities_Consistent>
1

> <s_lp_Variant>
CHEMBL301_lig1329-1

> <s_i_glide_gridfile>
glide-grid_1h00

> <i_i_glide_lignum>
1753

> <i_i_glide_rotatable_bonds>
10

> <r_i_docking_score>
-7.60302594531964

> <r_i_glide_ligand_efficiency>
-0.271536640904273

> <r_i_glide_ligand_efficiency_sa>
-0.824545168314226

> <r_i_glide_ligand_efficiency_ln>
-1.75500162272168

> <r_i_glide_gscore>
-7.60302594531964

> <r_i_glide_lipo>
-2.33934976626712

> <r_i_glide_hbond>
-0.32

> <r_i_glide_metal>
0

> <r_i_glide_rewards>
-3.01618127185621

> <r_i_glide_evdw>
-42.1023368835449

> <r_i_glide_ecoul>
-4.08880996704102

> <r_i_glide_erotb>
0.792820110583749

> <r_i_glide_esite>
-0.00187667854666012

> <r_i_glide_emodel>
-64.2832834569379

> <r_i_glide_energy>
-46.1911468505859

> <r_i_glide_einternal>
5.38847875595093

> <i_i_glide_confnum>
10

> <i_i_glide_posenum>
33

> <r_i_glide_eff_state_penalty>
0

> <s_user_duplicate_titles>
CHEMBL301_lig1329

> <s_m_subgroup_title>
dock_pv

> <s_m_subgroupid>
dock_pv

> <b_m_subgroup_collapsed>
1

$$$$
CHEMBL301_lig494
                    3D
 Schrodinger Suite 2021-1.
 48 51  0  0  1  0            999 V2000
   -0.2235   32.5719    8.2793 C   0  0  0  0  0  0
   -0.9160   31.7548    9.1727 C   0  0  0  0  0  0
   -0.4676   30.4226    9.3072 C   0  0  0  0  0  0
    0.6008   29.9844    8.5862 N   0  0  0  0  0  0
    1.2411   30.8655    7.7762 C   0  0  0  0  0  0
    0.8580   32.1494    7.5754 N   0  0  0  0  0  0
    2.4579   30.5044    7.1931 N   0  0  0  0  0  0
   -1.0010   29.3937   10.2716 C   0  0  0  0  0  0
   -2.3388   28.3448   11.7759 N   0  0  0  0  0  0
   -2.1964   29.4426   10.9694 C   0  0  0  0  0  0
   -1.2570   27.5117   11.6261 C   0  0  0  0  0  0
   -0.3719   28.1534   10.7015 C   0  0  0  0  0  0
    0.8459   27.5062   10.4105 C   0  0  0  0  0  0
    1.1266   26.2692   10.9863 C   0  0  0  0  0  0
    0.2323   25.6693   11.8666 C   0  0  0  0  0  0
   -0.9730   26.2755   12.2162 C   0  0  0  0  0  0
   -2.2141   32.4601   10.0723 Cl  0  0  0  0  0  0
    3.0218   29.1646    7.2336 C   0  0  2  0  0  0
    4.3503   29.0570    7.9628 C   0  0  0  0  0  0
    4.9804   27.7918    7.3774 C   0  0  0  0  0  0
    4.4744   27.7824    5.9970 N   0  0  0  0  0  0
    3.3401   28.6834    5.8270 C   0  0  0  0  0  0
    4.9279   27.0396    4.9592 C   0  0  0  0  0  0
    5.8615   26.1219    5.2770 N   0  0  0  0  0  0
    4.4881   27.1688    3.8132 O   0  0  0  0  0  0
    6.4740   25.1820    4.3374 C   0  0  0  0  0  0
    5.5449   24.0195    3.9489 C   0  0  0  0  0  0
   -0.5089   33.6064    8.1683 H   0  0  0  0  0  0
    2.9319   31.1591    6.5830 H   0  0  0  0  0  0
   -3.1228   28.2368   12.4099 H   0  0  0  0  0  0
   -2.9826   30.1792   10.9746 H   0  0  0  0  0  0
    1.5708   27.9522    9.7495 H   0  0  0  0  0  0
    2.0613   25.7774   10.7573 H   0  0  0  0  0  0
    0.4895   24.7142   12.3009 H   0  0  0  0  0  0
   -1.6538   25.8059   12.9100 H   0  0  0  0  0  0
    2.3975   28.4393    7.7442 H   0  0  0  0  0  0
    4.2313   28.9738    9.0409 H   0  0  0  0  0  0
    4.9835   29.9257    7.7764 H   0  0  0  0  0  0
    4.6154   26.9126    7.9103 H   0  0  0  0  0  0
    6.0630   27.8471    7.4227 H   0  0  0  0  0  0
    3.6842   29.5268    5.2286 H   0  0  0  0  0  0
    2.4562   28.2501    5.3759 H   0  0  0  0  0  0
    6.1769   26.0796    6.2336 H   0  0  0  0  0  0
    7.3799   24.7840    4.7968 H   0  0  0  0  0  0
    6.8045   25.7125    3.4408 H   0  0  0  0  0  0
    6.0520   23.3311    3.2725 H   0  0  0  0  0  0
    4.6531   24.3767    3.4310 H   0  0  0  0  0  0
    5.2329   23.4495    4.8241 H   0  0  0  0  0  0
  1  2  2  0  0  0
  1  6  1  0  0  0
  1 28  1  0  0  0
  2 17  1  0  0  0
  2  3  1  0  0  0
  3  4  2  0  0  0
  3  8  1  0  0  0
  4  5  1  0  0  0
  5  7  1  0  0  0
  5  6  2  0  0  0
  7 18  1  0  0  0
  7 29  1  0  0  0
  8 12  1  0  0  0
  8 10  2  0  0  0
  9 11  1  0  0  0
  9 10  1  0  0  0
  9 30  1  0  0  0
 10 31  1  0  0  0
 11 16  1  0  0  0
 11 12  2  0  0  0
 12 13  1  0  0  0
 13 14  2  0  0  0
 13 32  1  0  0  0
 14 15  1  0  0  0
 14 33  1  0  0  0
 15 16  2  0  0  0
 15 34  1  0  0  0
 16 35  1  0  0  0
 18 19  1  0  0  0
 18 22  1  0  0  0
 18 36  1  0  0  0
 19 20  1  0  0  0
 19 37  1  0  0  0
 19 38  1  0  0  0
 20 21  1  0  0  0
 20 39  1  0  0  0
 20 40  1  0  0  0
 21 22  1  0  0  0
 21 23  1  0  0  0
 22 41  1  0  0  0
 22 42  1  0  0  0
 23 24  1  0  0  0
 23 25  2  0  0  0
 24 26  1  0  0  0
 24 43  1  0  0  0
 26 27  1  0  0  0
 26 44  1  0  0  0
 26 45  1  0  0  0
 27 46  1  0  0  0
 27 47  1  0  0  0
 27 48  1  0  0  0
M  END
> <s_m_entry_id>
32855

> <s_m_entry_name>
dock_pv.256

> <s_m_Source_Path>
/home/csk/Desktop/cluster/DUD-E-result/cdk2

> <s_m_Source_File>
dock_pv.maegz

> <i_m_Source_File_Index>
256

> <chembl_id>
CHEMBL246544

> <chembl_pref_name>
None

> <i_lp_mmshare_version>
53161

> <i_f3d_flags>
0

> <r_lp_tautomer_probability>
0.999999987636

> <s_lp_Force_Field>
OPLS_2005

> <r_lp_Energy>
33.41546

> <b_lp_Chiralities_Consistent>
1

> <s_lp_Variant>
CHEMBL301_lig494-1

> <s_i_glide_gridfile>
glide-grid_1h00

> <i_i_glide_lignum>
685

> <i_i_glide_rotatable_bonds>
6

> <r_i_docking_score>
-7.60229085308462

> <r_i_glide_ligand_efficiency>
-0.281566327892023

> <r_i_glide_ligand_efficiency_sa>
-0.844698982748073

> <r_i_glide_ligand_efficiency_ln>
-1.76968797703804

> <r_i_glide_gscore>
-7.60229085308462

> <r_i_glide_lipo>
-2.90070157480792

> <r_i_glide_hbond>
-0.326967112338612

> <r_i_glide_metal>
0

> <r_i_glide_rewards>
-2.30794136951686

> <r_i_glide_evdw>
-40.5328483581543

> <r_i_glide_ecoul>
-4.3056697845459

> <r_i_glide_erotb>
0.656465972321816

> <r_i_glide_esite>
-0.0506538831534459

> <r_i_glide_emodel>
-63.5605675662134

> <r_i_glide_energy>
-44.8385181427002

> <r_i_glide_einternal>
2.45116829872131

> <i_i_glide_confnum>
2

> <i_i_glide_posenum>
8

> <r_i_glide_eff_state_penalty>
0

> <s_user_duplicate_titles>
CHEMBL301_lig494

> <s_m_subgroup_title>
dock_pv

> <s_m_subgroupid>
dock_pv

> <b_m_subgroup_collapsed>
1

$$$$
CHEMBL301_lig212
                    3D
 Schrodinger Suite 2021-1.
 44 46  0  0  1  0            999 V2000
   -1.6976   29.6496   10.4641 C   0  0  0  0  0  0
   -2.3368   30.8704   10.1760 C   0  0  0  0  0  0
   -1.7677   31.7886    9.2929 C   0  0  0  0  0  0
   -0.4877   29.3494    9.8221 C   0  0  0  0  0  0
    0.0746   30.2637    8.9379 C   0  0  0  0  0  0
   -0.5604   31.4612    8.6842 C   0  0  0  0  0  0
    0.1911   32.1792    7.7892 N   0  0  0  0  0  0
    1.2580   31.4868    7.3760 C   0  0  0  0  0  0
    1.2985   30.2520    8.1760 C   0  0  0  0  0  0
    2.0580   31.8520    6.5219 O   0  0  0  0  0  0
    2.2182   29.3661    8.2090 N   0  0  0  0  0  0
    3.3390   29.4520    7.3760 N   0  0  0  0  0  0
    4.1491   28.3605    7.0784 C   0  0  0  0  0  0
    4.6640   27.5526    8.0927 C   0  0  0  0  0  0
    5.5272   26.5101    7.7760 C   0  0  0  0  0  0
    5.8583   26.2654    6.4451 C   0  0  0  0  0  0
    5.3002   27.0374    5.4232 C   0  0  0  0  0  0
    4.4580   28.0974    5.7450 C   0  0  0  0  0  0
    7.0716   25.0118    6.0753 S   0  0  0  0  0  0
    8.5807   25.7284    6.5690 N   0  0  0  0  0  0
    6.8199   23.8821    6.9760 O   0  0  0  0  0  0
    7.1274   24.8327    4.6221 O   0  0  0  0  0  0
   -2.3705   28.6520   11.3760 C   0  0  0  0  0  0
   -1.6287   27.7915   12.1271 N   0  0  0  0  0  0
   -3.6051   28.6244   11.3760 O   0  0  0  0  0  0
   -0.2420   28.0090   12.5518 C   0  0  0  0  0  0
   -2.2223   26.5783   12.6951 C   0  0  0  0  0  0
   -3.2809   31.1170   10.6436 H   0  0  0  0  0  0
   -2.2691   32.7244    9.0926 H   0  0  0  0  0  0
    0.0075   28.4028    9.9845 H   0  0  0  0  0  0
   -0.0354   33.1012    7.4423 H   0  0  0  0  0  0
    3.3054   30.2272    6.7172 H   0  0  0  0  0  0
    4.4257   27.7513    9.1279 H   0  0  0  0  0  0
    5.9546   25.9145    8.5712 H   0  0  0  0  0  0
    5.5599   26.8552    4.3900 H   0  0  0  0  0  0
    4.0612   28.7234    4.9595 H   0  0  0  0  0  0
    9.2515   25.0271    6.8880 H   0  0  0  0  0  0
    8.9905   26.3150    5.8369 H   0  0  0  0  0  0
    0.1249   29.0101   12.3236 H   0  0  0  0  0  0
    0.4223   27.2820   12.0832 H   0  0  0  0  0  0
   -0.1560   27.8808   13.6308 H   0  0  0  0  0  0
   -3.2247   26.3759   12.3133 H   0  0  0  0  0  0
   -1.6050   25.7097   12.4637 H   0  0  0  0  0  0
   -2.2923   26.6692   13.7795 H   0  0  0  0  0  0
  1  2  2  0  0  0
  1  4  1  0  0  0
  1 23  1  0  0  0
  2  3  1  0  0  0
  2 28  1  0  0  0
  3  6  2  0  0  0
  3 29  1  0  0  0
  4  5  2  0  0  0
  4 30  1  0  0  0
  5  9  1  0  0  0
  5  6  1  0  0  0
  6  7  1  0  0  0
  7  8  1  0  0  0
  7 31  1  0  0  0
  8  9  1  0  0  0
  8 10  2  0  0  0
  9 11  2  0  0  0
 11 12  1  0  0  0
 12 13  1  0  0  0
 12 32  1  0  0  0
 13 14  2  0  0  0
 13 18  1  0  0  0
 14 15  1  0  0  0
 14 33  1  0  0  0
 15 16  2  0  0  0
 15 34  1  0  0  0
 16 17  1  0  0  0
 16 19  1  0  0  0
 17 18  2  0  0  0
 17 35  1  0  0  0
 18 36  1  0  0  0
 19 20  1  0  0  0
 19 21  2  0  0  0
 19 22  2  0  0  0
 20 37  1  0  0  0
 20 38  1  0  0  0
 23 24  1  0  0  0
 23 25  2  0  0  0
 24 26  1  0  0  0
 24 27  1  0  0  0
 26 39  1  0  0  0
 26 40  1  0  0  0
 26 41  1  0  0  0
 27 42  1  0  0  0
 27 43  1  0  0  0
 27 44  1  0  0  0
M  END
> <s_m_entry_id>
32856

> <s_m_entry_name>
dock_pv.257

> <s_m_Source_Path>
/home/csk/Desktop/cluster/DUD-E-result/cdk2

> <s_m_Source_File>
dock_pv.maegz

> <i_m_Source_File_Index>
257

> <chembl_id>
CHEMBL409868

> <chembl_pref_name>
None

> <i_lp_mmshare_version>
53161

> <i_f3d_flags>
0

> <r_lp_tautomer_probability>
1

> <s_lp_Force_Field>
OPLS_2005

> <r_lp_Energy>
56.456282

> <b_lp_Chiralities_Consistent>
1

> <s_lp_Variant>
CHEMBL301_lig212-1

> <s_i_glide_gridfile>
glide-grid_1h00

> <i_i_glide_lignum>
354

> <i_i_glide_rotatable_bonds>
5

> <r_i_docking_score>
-7.60217146442035

> <r_i_glide_ligand_efficiency>
-0.281561906089642

> <r_i_glide_ligand_efficiency_sa>
-0.844685717340945

> <r_i_glide_ligand_efficiency_ln>
-1.76966018532527

> <r_i_glide_gscore>
-7.60217146442035

> <r_i_glide_lipo>
-2.07660598404783

> <r_i_glide_hbond>
-0.512276194797831

> <r_i_glide_metal>
0

> <r_i_glide_rewards>
-2.34068735390792

> <r_i_glide_evdw>
-38.8643569946289

> <r_i_glide_ecoul>
-7.17231893539429

> <r_i_glide_erotb>
0.389236957552049

> <r_i_glide_esite>
-0.0427731991782322

> <r_i_glide_emodel>
-63.0332040475022

> <r_i_glide_energy>
-46.0366759300232

> <r_i_glide_einternal>
5.76614570617676

> <i_i_glide_confnum>
10

> <i_i_glide_posenum>
202

> <r_i_glide_eff_state_penalty>
0

> <s_user_duplicate_titles>
CHEMBL301_lig212,440718,137211

> <s_m_subgroup_title>
dock_pv

> <s_m_subgroupid>
dock_pv

> <b_m_subgroup_collapsed>
1

$$$$
CHEMBL301_lig1348
                    3D
 Schrodinger Suite 2021-1.
 48 49  0  0  1  0            999 V2000
    5.0225   27.5203    3.6264 C   0  0  0  0  0  0
    4.8303   26.8253    4.8459 O   0  0  0  0  0  0
    4.5144   27.5511    5.9722 C   0  0  0  0  0  0
    3.6578   28.6526    5.9179 C   0  0  0  0  0  0
    3.1816   29.2689    7.0716 C   0  0  0  0  0  0
    2.3218   30.3663    6.9203 N   0  0  0  0  0  0
    1.2320   30.8397    7.6553 C   0  0  0  0  0  0
    0.8877   32.1301    7.4097 N   0  0  0  0  0  0
   -0.1009   32.6549    8.1755 C   0  0  0  0  0  0
   -0.7836   31.9049    9.1288 C   0  0  0  0  0  0
   -2.1639   32.7166   10.1687 Br  0  0  0  0  0  0
   -0.3928   30.5679    9.2863 C   0  0  0  0  0  0
   -1.0533   29.7868   10.2422 N   0  0  0  0  0  0
   -0.8330   28.3551   10.4474 C   0  0  2  0  0  0
   -1.9553   27.8186   11.3535 C   0  0  0  0  0  0
    0.5948   27.9913   10.9596 C   0  0  2  0  0  0
    0.8381   26.4859   11.1543 C   0  0  0  0  0  0
    0.8591   28.6562   12.1757 O   0  0  0  0  0  0
    0.6125   30.0247    8.5447 N   0  0  0  0  0  0
    3.6216   28.8133    8.3096 C   0  0  0  0  0  0
    4.5358   27.7636    8.3827 C   0  0  0  0  0  0
    4.9853   27.1217    7.2179 C   0  0  0  0  0  0
    6.0821   25.6954    7.3181 S   0  0  2  0  0  0
    6.9212   25.9325    8.5751 N   0  0  0  0  0  0
    6.6958   25.4020    6.0208 O   0  0  0  0  0  0
    4.9138   24.2995    7.7764 C   0  0  0  0  0  0
    5.5027   26.8588    2.9052 H   0  0  0  0  0  0
    4.0740   27.8459    3.1978 H   0  0  0  0  0  0
    5.6714   28.3848    3.7757 H   0  0  0  0  0  0
    3.2894   29.0045    4.9762 H   0  0  0  0  0  0
    2.7057   31.0606    6.2944 H   0  0  0  0  0  0
   -0.3505   33.6926    8.0054 H   0  0  0  0  0  0
   -1.7481   30.2402   10.8187 H   0  0  0  0  0  0
   -0.9565   27.8741    9.4751 H   0  0  0  0  0  0
   -1.9901   26.7300   11.3617 H   0  0  0  0  0  0
   -1.8468   28.1642   12.3832 H   0  0  0  0  0  0
   -2.9212   28.1749   10.9961 H   0  0  0  0  0  0
    1.3457   28.3464   10.2580 H   0  0  0  0  0  0
    0.5889   25.9315   10.2487 H   0  0  0  0  0  0
    0.2407   26.0777   11.9699 H   0  0  0  0  0  0
    1.8871   26.2834   11.3757 H   0  0  0  0  0  0
    1.6003   28.2156   12.6208 H   0  0  0  0  0  0
    3.2724   29.2855    9.2128 H   0  0  0  0  0  0
    4.8738   27.4542    9.3594 H   0  0  0  0  0  0
    6.4109   25.8521    9.4622 H   0  0  0  0  0  0
    4.4602   24.5101    8.7443 H   0  0  0  0  0  0
    4.1375   24.2512    7.0129 H   0  0  0  0  0  0
    5.4711   23.3655    7.7743 H   0  0  0  0  0  0
  1  2  1  0  0  0
  1 27  1  0  0  0
  1 28  1  0  0  0
  1 29  1  0  0  0
  2  3  1  0  0  0
  3  4  2  0  0  0
  3 22  1  0  0  0
  4  5  1  0  0  0
  4 30  1  0  0  0
  5  6  1  0  0  0
  5 20  2  0  0  0
  6  7  1  0  0  0
  6 31  1  0  0  0
  7  8  2  0  0  0
  7 19  1  0  0  0
  8  9  1  0  0  0
  9 10  2  0  0  0
  9 32  1  0  0  0
 10 11  1  0  0  0
 10 12  1  0  0  0
 12 13  1  0  0  0
 12 19  2  0  0  0
 13 14  1  0  0  0
 13 33  1  0  0  0
 14 15  1  0  0  0
 14 16  1  0  0  0
 14 34  1  0  0  0
 15 35  1  0  0  0
 15 36  1  0  0  0
 15 37  1  0  0  0
 16 17  1  0  0  0
 16 18  1  0  0  0
 16 38  1  0  0  0
 17 39  1  0  0  0
 17 40  1  0  0  0
 17 41  1  0  0  0
 18 42  1  0  0  0
 20 21  1  0  0  0
 20 43  1  0  0  0
 21 22  2  0  0  0
 21 44  1  0  0  0
 22 23  1  0  0  0
 23 24  2  0  0  0
 23 25  2  0  0  0
 23 26  1  0  0  0
 24 45  1  0  0  0
 26 46  1  0  0  0
 26 47  1  0  0  0
 26 48  1  0  0  0
M  END
> <s_m_entry_id>
32858

> <s_m_entry_name>
dock_pv.259

> <s_m_Source_Path>
/home/csk/Desktop/cluster/DUD-E-result/cdk2

> <s_m_Source_File>
dock_pv.maegz

> <i_m_Source_File_Index>
259

> <chembl_id>
CHEMBL3648112

> <chembl_pref_name>
None

> <i_lp_mmshare_version>
53161

> <i_f3d_flags>
0

> <r_lp_tautomer_probability>
0.999999624730965

> <s_lp_Force_Field>
OPLS_2005

> <r_lp_Energy>
9.788095

> <b_lp_Chiralities_Consistent>
1

> <s_lp_Variant>
CHEMBL301_lig1348-1

> <s_i_glide_gridfile>
glide-grid_1h00

> <i_i_glide_lignum>
1789

> <i_i_glide_rotatable_bonds>
8

> <r_i_docking_score>
-7.59841581156357

> <r_i_glide_ligand_efficiency>
-0.292246761983214

> <r_i_glide_ligand_efficiency_sa>
-0.865779882439793

> <r_i_glide_ligand_efficiency_ln>
-1.78446302090985

> <r_i_glide_gscore>
-7.59841581156357

> <r_i_glide_lipo>
-2.60415444689547

> <r_i_glide_hbond>
-0.595732498023059

> <r_i_glide_metal>
0

> <r_i_glide_rewards>
-1.23404903990372

> <r_i_glide_evdw>
-35.3315238952637

> <r_i_glide_ecoul>
-12.6956939697266

> <r_i_glide_erotb>
0.506450463480838

> <r_i_glide_esite>
0

> <r_i_glide_emodel>
-69.1253788003923

> <r_i_glide_energy>
-48.0272178649902

> <r_i_glide_einternal>
3.3009238243103

> <i_i_glide_confnum>
30

> <i_i_glide_posenum>
279

> <r_i_glide_eff_state_penalty>
0

> <s_user_duplicate_titles>
CHEMBL301_lig1348

> <s_m_subgroup_title>
dock_pv

> <s_m_subgroupid>
dock_pv

> <b_m_subgroup_collapsed>
1

$$$$
CHEMBL301_lig1439
                    3D
 Schrodinger Suite 2021-1.
 48 49  0  0  1  0            999 V2000
    0.2020   27.0980   10.1755 C   0  0  0  0  0  0
   -0.1735   28.3638   10.9765 C   0  0  1  0  0  0
   -0.8968   29.3112   10.1685 O   0  0  0  0  0  0
   -0.2499   30.1901    9.3253 C   0  0  0  0  0  0
    0.8686   29.7557    8.6925 N   0  0  0  0  0  0
    1.4122   30.5743    7.7631 C   0  0  0  0  0  0
    2.4584   30.1152    6.9677 N   0  0  0  0  0  0
    3.3145   29.0030    7.0217 C   0  0  0  0  0  0
    4.0094   28.6521    5.8595 C   0  0  0  0  0  0
    4.8879   27.5786    5.8316 C   0  0  0  0  0  0
    5.0768   26.8261    6.9839 C   0  0  0  0  0  0
    4.3595   27.1418    8.1324 C   0  0  0  0  0  0
    3.5098   28.2433    8.1755 C   0  0  0  0  0  0
    6.2471   25.4714    7.0630 S   0  0  0  0  0  0
    7.2625   25.8529    8.0510 O   0  0  0  0  0  0
    5.4584   24.2495    7.2472 O   0  0  0  0  0  0
    7.0868   25.3823    5.3816 C   0  0  0  0  0  0
    0.9823   31.8235    7.4696 N   0  0  0  0  0  0
   -0.0858   32.2708    8.1760 C   0  0  0  0  0  0
   -0.7807   31.4652    9.0850 C   0  0  0  0  0  0
   -2.0304   31.9802    9.7804 C   0  0  0  0  0  0
   -1.9448   33.3009    9.9515 F   0  0  0  0  0  0
   -3.0795   31.6930    9.0097 F   0  0  0  0  0  0
   -2.2179   31.4283   10.9741 F   0  0  0  0  0  0
   -1.0852   28.0600   12.2088 C   0  0  0  0  0  0
   -2.5245   27.6894   11.7899 C   0  0  0  0  0  0
   -0.5401   26.9832   13.1669 C   0  0  0  0  0  0
   -1.1424   29.2395   12.9853 O   0  0  0  0  0  0
    0.7083   26.3621   10.7989 H   0  0  0  0  0  0
   -0.6730   26.6238    9.7281 H   0  0  0  0  0  0
    0.9015   27.3275    9.3761 H   0  0  0  0  0  0
    0.7511   28.8218   11.3364 H   0  0  0  0  0  0
    2.7485   30.7899    6.2755 H   0  0  0  0  0  0
    3.9094   29.2491    4.9761 H   0  0  0  0  0  0
    5.4284   27.3663    4.9213 H   0  0  0  0  0  0
    4.4554   26.5013    8.9777 H   0  0  0  0  0  0
    3.0028   28.4778    9.0977 H   0  0  0  0  0  0
    7.8163   24.5751    5.4103 H   0  0  0  0  0  0
    6.3373   25.1755    4.6195 H   0  0  0  0  0  0
    7.5925   26.3279    5.1887 H   0  0  0  0  0  0
   -0.4024   33.2821    7.9627 H   0  0  0  0  0  0
   -2.5372   26.8105   11.1471 H   0  0  0  0  0  0
   -3.0177   28.5071   11.2623 H   0  0  0  0  0  0
   -3.1475   27.4520   12.6522 H   0  0  0  0  0  0
   -0.4954   26.0009   12.6973 H   0  0  0  0  0  0
    0.4576   27.2358   13.5158 H   0  0  0  0  0  0
   -1.1691   26.8826   14.0532 H   0  0  0  0  0  0
   -2.0287   29.2951   13.3678 H   0  0  0  0  0  0
  1  2  1  0  0  0
  1 29  1  0  0  0
  1 30  1  0  0  0
  1 31  1  0  0  0
  2  3  1  0  0  0
  2 25  1  0  0  0
  2 32  1  0  0  0
  3  4  1  0  0  0
  4  5  2  0  0  0
  4 20  1  0  0  0
  5  6  1  0  0  0
  6  7  1  0  0  0
  6 18  2  0  0  0
  7  8  1  0  0  0
  7 33  1  0  0  0
  8  9  2  0  0  0
  8 13  1  0  0  0
  9 10  1  0  0  0
  9 34  1  0  0  0
 10 11  2  0  0  0
 10 35  1  0  0  0
 11 12  1  0  0  0
 11 14  1  0  0  0
 12 13  2  0  0  0
 12 36  1  0  0  0
 13 37  1  0  0  0
 14 15  2  0  0  0
 14 16  2  0  0  0
 14 17  1  0  0  0
 17 38  1  0  0  0
 17 39  1  0  0  0
 17 40  1  0  0  0
 18 19  1  0  0  0
 19 20  2  0  0  0
 19 41  1  0  0  0
 20 21  1  0  0  0
 21 22  1  0  0  0
 21 23  1  0  0  0
 21 24  1  0  0  0
 25 26  1  0  0  0
 25 27  1  0  0  0
 25 28  1  0  0  0
 26 42  1  0  0  0
 26 43  1  0  0  0
 26 44  1  0  0  0
 27 45  1  0  0  0
 27 46  1  0  0  0
 27 47  1  0  0  0
 28 48  1  0  0  0
M  END
> <s_m_entry_id>
32859

> <s_m_entry_name>
dock_pv.260

> <s_m_Source_Path>
/home/csk/Desktop/cluster/DUD-E-result/cdk2

> <s_m_Source_File>
dock_pv.maegz

> <i_m_Source_File_Index>
260

> <chembl_id>
CHEMBL3644034

> <chembl_pref_name>
None

> <i_lp_mmshare_version>
53161

> <i_f3d_flags>
0

> <r_lp_tautomer_probability>
0.999999917912647

> <s_lp_Force_Field>
OPLS_2005

> <r_lp_Energy>
4.761581

> <b_lp_Chiralities_Consistent>
1

> <s_lp_Variant>
CHEMBL301_lig1439-1

> <s_i_glide_gridfile>
glide-grid_1h00

> <i_i_glide_lignum>
1952

> <i_i_glide_rotatable_bonds>
8

> <r_i_docking_score>
-7.59799666848354

> <r_i_glide_ligand_efficiency>
-0.271357023874412

> <r_i_glide_ligand_efficiency_sa>
-0.823999745222796

> <r_i_glide_ligand_efficiency_ln>
-1.75384071796192

> <r_i_glide_gscore>
-7.59799666848354

> <r_i_glide_lipo>
-2.61076491772321

> <r_i_glide_hbond>
-0.139078071519168

> <r_i_glide_metal>
0

> <r_i_glide_rewards>
-2.10731191614961

> <r_i_glide_evdw>
-40.3126068115234

> <r_i_glide_ecoul>
-8.13111400604248

> <r_i_glide_erotb>
0.562301208212701

> <r_i_glide_esite>
-0.0678455298217096

> <r_i_glide_emodel>
-64.8888226960683

> <r_i_glide_energy>
-48.4437208175659

> <r_i_glide_einternal>
11.238805770874

> <i_i_glide_confnum>
19

> <i_i_glide_posenum>
214

> <r_i_glide_eff_state_penalty>
0

> <s_user_duplicate_titles>
CHEMBL301_lig1439

> <s_m_subgroup_title>
dock_pv

> <s_m_subgroupid>
dock_pv

> <b_m_subgroup_collapsed>
1

$$$$
CHEMBL301_lig1357
                    3D
 Schrodinger Suite 2021-1.
 57 59  0  0  1  0            999 V2000
   -0.2153   24.2672   11.3759 C   0  0  0  0  0  0
   -1.2135   25.2681   10.7652 C   0  0  0  0  0  0
   -1.0129   26.7598   11.1458 C   0  0  2  0  0  0
    0.2781   27.2536   10.6590 N   0  0  0  0  0  0
    0.4310   28.4455    9.9464 C   0  0  0  0  0  0
    1.6531   28.5804    9.3759 N   0  0  0  0  0  0
    1.8670   29.6590    8.5751 C   0  0  0  0  0  0
    3.1044   29.8503    7.9369 N   0  0  0  0  0  0
    4.2809   29.0165    8.1762 C   0  0  0  0  0  0
    4.4574   27.9165    7.1358 C   0  0  0  0  0  0
    4.3271   28.1555    5.7608 C   0  0  0  0  0  0
    4.5521   27.1188    4.8522 C   0  0  0  0  0  0
    4.9046   25.8558    5.3455 C   0  0  0  0  0  0
    5.0238   25.6050    6.6757 N   0  0  0  0  0  0
    4.8106   26.6271    7.5378 C   0  0  0  0  0  0
    5.1947   24.6837    4.4113 C   0  0  0  0  0  0
    5.6956   25.1243    3.2583 F   0  0  0  0  0  0
    6.0787   23.8309    4.9374 F   0  0  0  0  0  0
    4.0598   24.0254    4.1739 F   0  0  0  0  0  0
    0.8589   30.6253    8.4195 C   0  0  0  0  0  0
    0.8509   31.8346    7.7760 N   0  0  0  0  0  0
   -0.2695   32.3790    8.1760 C   0  0  0  0  0  0
   -1.1029   31.5400    8.8866 N   0  0  0  0  0  0
   -2.4472   31.8989    9.3420 C   0  0  0  0  0  0
   -2.4090   32.2790   10.8204 C   0  0  0  0  0  0
   -3.4744   30.8020    9.0169 C   0  0  0  0  0  0
   -0.3470   30.4003    9.1212 C   0  0  0  0  0  0
   -0.6134   29.3193    9.8625 N   0  0  0  0  0  0
   -1.2615   27.1236   12.6412 C   0  0  1  0  0  0
   -2.6111   26.6482   13.1978 C   0  0  0  0  0  0
   -0.2433   26.6299   13.4919 O   0  0  0  0  0  0
   -0.3843   23.2647   10.9831 H   0  0  0  0  0  0
    0.8161   24.5365   11.1476 H   0  0  0  0  0  0
   -0.3173   24.2098   12.4593 H   0  0  0  0  0  0
   -2.2280   24.9607   11.0153 H   0  0  0  0  0  0
   -1.1595   25.1806    9.6784 H   0  0  0  0  0  0
   -1.8007   27.2781   10.5973 H   0  0  0  0  0  0
    1.0654   26.6237   10.6534 H   0  0  0  0  0  0
    3.2319   30.6910    7.3901 H   0  0  0  0  0  0
    5.1653   29.6542    8.1469 H   0  0  0  0  0  0
    4.2462   28.5849    9.1780 H   0  0  0  0  0  0
    4.0594   29.1332    5.3935 H   0  0  0  0  0  0
    4.4616   27.2959    3.7903 H   0  0  0  0  0  0
    4.9309   26.3843    8.5760 H   0  0  0  0  0  0
   -0.5993   33.3771    7.9228 H   0  0  0  0  0  0
   -2.7420   32.7876    8.7867 H   0  0  0  0  0  0
   -3.3825   32.6288   11.1671 H   0  0  0  0  0  0
   -1.6958   33.0887   10.9761 H   0  0  0  0  0  0
   -2.1213   31.4236   11.4309 H   0  0  0  0  0  0
   -4.4676   31.0825    9.3673 H   0  0  0  0  0  0
   -3.5415   30.6520    7.9403 H   0  0  0  0  0  0
   -3.2274   29.8504    9.4862 H   0  0  0  0  0  0
   -1.2204   28.2108   12.7346 H   0  0  0  0  0  0
   -3.4389   27.0485   12.6115 H   0  0  0  0  0  0
   -2.6948   25.5615   13.2000 H   0  0  0  0  0  0
   -2.7422   26.9875   14.2256 H   0  0  0  0  0  0
    0.6004   26.9792   13.1802 H   0  0  0  0  0  0
  1  2  1  0  0  0
  1 32  1  0  0  0
  1 33  1  0  0  0
  1 34  1  0  0  0
  2  3  1  0  0  0
  2 35  1  0  0  0
  2 36  1  0  0  0
  3  4  1  0  0  0
  3 29  1  0  0  0
  3 37  1  0  0  0
  4  5  1  0  0  0
  4 38  1  0  0  0
  5  6  2  0  0  0
  5 28  1  0  0  0
  6  7  1  0  0  0
  7  8  1  0  0  0
  7 20  2  0  0  0
  8  9  1  0  0  0
  8 39  1  0  0  0
  9 10  1  0  0  0
  9 40  1  0  0  0
  9 41  1  0  0  0
 10 11  2  0  0  0
 10 15  1  0  0  0
 11 12  1  0  0  0
 11 42  1  0  0  0
 12 13  2  0  0  0
 12 43  1  0  0  0
 13 14  1  0  0  0
 13 16  1  0  0  0
 14 15  2  0  0  0
 15 44  1  0  0  0
 16 17  1  0  0  0
 16 18  1  0  0  0
 16 19  1  0  0  0
 20 21  1  0  0  0
 20 27  1  0  0  0
 21 22  2  0  0  0
 22 23  1  0  0  0
 22 45  1  0  0  0
 23 24  1  0  0  0
 23 27  1  0  0  0
 24 25  1  0  0  0
 24 26  1  0  0  0
 24 46  1  0  0  0
 25 47  1  0  0  0
 25 48  1  0  0  0
 25 49  1  0  0  0
 26 50  1  0  0  0
 26 51  1  0  0  0
 26 52  1  0  0  0
 27 28  2  0  0  0
 29 30  1  0  0  0
 29 31  1  0  0  0
 29 53  1  0  0  0
 30 54  1  0  0  0
 30 55  1  0  0  0
 30 56  1  0  0  0
 31 57  1  0  0  0
M  END
> <s_m_entry_id>
32860

> <s_m_entry_name>
dock_pv.261

> <s_m_Source_Path>
/home/csk/Desktop/cluster/DUD-E-result/cdk2

> <s_m_Source_File>
dock_pv.maegz

> <i_m_Source_File_Index>
261

> <chembl_id>
CHEMBL3655772

> <chembl_pref_name>
None

> <i_lp_mmshare_version>
53161

> <i_f3d_flags>
0

> <r_lp_tautomer_probability>
1

> <s_lp_Force_Field>
OPLS_2005

> <r_lp_Energy>
23.242302

> <b_lp_Chiralities_Consistent>
1

> <s_lp_Variant>
CHEMBL301_lig1357-1

> <s_i_glide_gridfile>
glide-grid_1h00

> <i_i_glide_lignum>
1812

> <i_i_glide_rotatable_bonds>
10

> <r_i_docking_score>
-7.59666600379346

> <r_i_glide_ligand_efficiency>
-0.245053742057854

> <r_i_glide_ligand_efficiency_sa>
-0.769807083215483

> <r_i_glide_ligand_efficiency_ln>
-1.71328099370904

> <r_i_glide_gscore>
-7.59666600379346

> <r_i_glide_lipo>
-2.89963316918311

> <r_i_glide_hbond>
-0.405132136856155

> <r_i_glide_metal>
0

> <r_i_glide_rewards>
-1.88375151577059

> <r_i_glide_evdw>
-44.649959564209

> <r_i_glide_ecoul>
-4.6225209236145

> <r_i_glide_erotb>
0.625214913046558

> <r_i_glide_esite>
-0.107487978277538

> <r_i_glide_emodel>
-68.7814889616764

> <r_i_glide_energy>
-49.2724804878235

> <r_i_glide_einternal>
6.6004786491394

> <i_i_glide_confnum>
23

> <i_i_glide_posenum>
204

> <r_i_glide_eff_state_penalty>
0

> <s_user_duplicate_titles>
CHEMBL301_lig1357

> <s_m_subgroup_title>
dock_pv

> <s_m_subgroupid>
dock_pv

> <b_m_subgroup_collapsed>
1

$$$$
CHEMBL301_lig1160
                    3D
 Schrodinger Suite 2021-1.
 43 46  0  0  1  0            999 V2000
    0.8599   31.3672    7.7760 N   0  0  0  0  0  0
    1.4554   30.1778    8.0482 C   0  0  0  0  0  0
    0.9489   29.2791    8.9911 C   0  0  0  0  0  0
   -0.1883   29.6190    9.7238 C   0  0  0  0  0  0
   -0.2045   31.7059    8.5069 C   0  0  0  0  0  0
   -0.7434   30.8485    9.4729 N   0  0  0  0  0  0
   -1.8252   31.3998   10.0874 N   0  0  0  0  0  0
   -1.9427   32.5984    9.5572 C   0  0  0  0  0  0
   -0.9907   32.8711    8.5763 C   0  0  0  0  0  0
    2.6201   29.9241    7.3068 N   0  0  0  0  0  0
    3.4071   28.6864    7.3062 C   0  0  2  0  0  0
    4.6657   28.7816    8.1757 C   0  0  0  0  0  0
    5.3589   27.4872    8.2062 N   0  0  2  0  0  0
    5.6674   26.9206    6.8905 C   0  0  0  0  0  0
    4.4931   26.9430    5.8862 C   0  0  0  0  0  0
    3.7660   28.2983    5.8634 C   0  0  0  0  0  0
   -0.8028   28.7760   10.6648 N   0  0  0  0  0  0
   -0.5525   27.4702   11.1107 C   0  0  0  0  0  0
    0.7317   26.9262   11.2361 C   0  0  0  0  0  0
    0.9032   25.6051   11.6564 C   0  0  0  0  0  0
   -0.2080   24.8273   11.9873 C   0  0  0  0  0  0
   -1.4849   25.3777   11.9047 C   0  0  0  0  0  0
   -1.6553   26.6915   11.4706 C   0  0  0  0  0  0
   -0.0586   23.5464   12.3977 F   0  0  0  0  0  0
    2.4946   24.9468   11.7771 Cl  0  0  0  0  0  0
    1.4193   28.3285    9.1412 H   0  0  0  0  0  0
   -2.7231   33.2708    9.8864 H   0  0  0  0  0  0
   -0.8750   33.7829    8.0105 H   0  0  0  0  0  0
    2.9695   30.6754    6.7269 H   0  0  0  0  0  0
    2.8431   27.8867    7.7758 H   0  0  0  0  0  0
    5.3382   29.5572    7.8056 H   0  0  0  0  0  0
    4.3950   29.0502    9.1937 H   0  0  0  0  0  0
    4.8587   26.8199    8.7836 H   0  0  0  0  0  0
    5.9901   25.8909    7.0457 H   0  0  0  0  0  0
    6.5228   27.4517    6.4878 H   0  0  0  0  0  0
    3.8169   26.1145    6.0969 H   0  0  0  0  0  0
    4.8797   26.7262    4.8894 H   0  0  0  0  0  0
    2.8711   28.2517    5.2446 H   0  0  0  0  0  0
    4.4147   29.0541    5.4171 H   0  0  0  0  0  0
   -1.6521   29.1897   11.0277 H   0  0  0  0  0  0
    1.6106   27.5229   11.0469 H   0  0  0  0  0  0
   -2.3426   24.7807   12.1725 H   0  0  0  0  0  0
   -2.6549   27.0973   11.4046 H   0  0  0  0  0  0
  1  5  1  0  0  0
  1  2  2  0  0  0
  2  3  1  0  0  0
  2 10  1  0  0  0
  3  4  2  0  0  0
  3 26  1  0  0  0
  4  6  1  0  0  0
  4 17  1  0  0  0
  5  6  1  0  0  0
  5  9  2  0  0  0
  6  7  1  0  0  0
  7  8  2  0  0  0
  8  9  1  0  0  0
  8 27  1  0  0  0
  9 28  1  0  0  0
 10 11  1  0  0  0
 10 29  1  0  0  0
 11 12  1  0  0  0
 11 16  1  0  0  0
 11 30  1  0  0  0
 12 13  1  0  0  0
 12 31  1  0  0  0
 12 32  1  0  0  0
 13 14  1  0  0  0
 13 33  1  0  0  0
 14 15  1  0  0  0
 14 34  1  0  0  0
 14 35  1  0  0  0
 15 16  1  0  0  0
 15 36  1  0  0  0
 15 37  1  0  0  0
 16 38  1  0  0  0
 16 39  1  0  0  0
 17 18  1  0  0  0
 17 40  1  0  0  0
 18 19  2  0  0  0
 18 23  1  0  0  0
 19 20  1  0  0  0
 19 41  1  0  0  0
 20 21  2  0  0  0
 20 25  1  0  0  0
 21 22  1  0  0  0
 21 24  1  0  0  0
 22 23  2  0  0  0
 22 42  1  0  0  0
 23 43  1  0  0  0
M  END
> <s_m_entry_id>
32861

> <s_m_entry_name>
dock_pv.262

> <s_m_Source_Path>
/home/csk/Desktop/cluster/DUD-E-result/cdk2

> <s_m_Source_File>
dock_pv.maegz

> <i_m_Source_File_Index>
262

> <chembl_id>
CHEMBL2163984

> <chembl_pref_name>
None

> <i_lp_mmshare_version>
53161

> <i_f3d_flags>
0

> <r_lp_tautomer_probability>
1

> <s_lp_Force_Field>
OPLS_2005

> <r_lp_Energy>
29.299802

> <b_lp_Chiralities_Consistent>
1

> <s_lp_Variant>
CHEMBL301_lig1160-1

> <s_i_glide_gridfile>
glide-grid_1h00

> <i_i_glide_lignum>
1572

> <i_i_glide_rotatable_bonds>
4

> <r_i_docking_score>
-7.5952283785667

> <r_i_glide_ligand_efficiency>
-0.303809135142668

> <r_i_glide_ligand_efficiency_sa>
-0.888343299235115

> <r_i_glide_ligand_efficiency_ln>
-1.80029673634776

> <r_i_glide_gscore>
-7.5952283785667

> <r_i_glide_lipo>
-2.80292104472058

> <r_i_glide_hbond>
-0.267757214293587

> <r_i_glide_metal>
0

> <r_i_glide_rewards>
-2.35833982895193

> <r_i_glide_evdw>
-37.5298843383789

> <r_i_glide_ecoul>
-5.86079502105713

> <r_i_glide_erotb>
0.589403179476913

> <r_i_glide_esite>
0

> <r_i_glide_emodel>
-60.511104082301

> <r_i_glide_energy>
-43.390679359436

> <r_i_glide_einternal>
5.77199935913086

> <i_i_glide_confnum>
48

> <i_i_glide_posenum>
256

> <r_i_glide_eff_state_penalty>
0

> <s_user_duplicate_titles>
CHEMBL301_lig1160

> <s_m_subgroup_title>
dock_pv

> <s_m_subgroupid>
dock_pv

> <b_m_subgroup_collapsed>
1

$$$$
CHEMBL301_lig699
                    3D
 Schrodinger Suite 2021-1.
 35 37  0  0  1  0            999 V2000
    0.5073   30.2547    8.3927 C   0  0  0  0  0  0
   -0.3231   31.3628    8.4629 C   0  0  0  0  0  0
    0.3723   32.3249    7.7760 N   0  0  0  0  0  0
    1.5114   31.8906    7.2320 N   0  0  0  0  0  0
    1.6417   30.6559    7.6578 C   0  0  0  0  0  0
    2.8069   29.9821    7.3579 N   0  0  0  0  0  0
    3.2582   28.8645    7.9512 C   0  0  0  0  0  0
    4.6298   28.3653    7.4238 C   0  0  2  0  0  0
    2.6573   28.2516    8.8411 O   0  0  0  0  0  0
   -1.6785   31.6195    9.0788 C   0  0  0  0  0  0
   -1.9982   31.1251   10.4658 C   0  0  0  0  0  0
   -1.8250   32.6120   10.2016 C   0  0  0  0  0  0
    4.5079   27.4179    6.2537 C   0  0  0  0  0  0
    4.4580   26.0306    6.4550 C   0  0  0  0  0  0
    4.4026   25.1627    5.3691 C   0  0  0  0  0  0
    4.4073   25.6792    4.0769 C   0  0  0  0  0  0
    4.4580   27.0535    3.8612 C   0  0  0  0  0  0
    4.4948   27.9222    4.9494 C   0  0  0  0  0  0
    5.3745   27.8498    8.5760 N   0  0  0  0  0  0
    0.3285   29.2884    8.8405 H   0  0  0  0  0  0
    0.0440   33.2702    7.6291 H   0  0  0  0  0  0
    3.4259   30.4416    6.6984 H   0  0  0  0  0  0
    5.2010   29.2356    7.0907 H   0  0  0  0  0  0
   -2.4958   31.5948    8.3565 H   0  0  0  0  0  0
   -2.9976   30.7351   10.6618 H   0  0  0  0  0  0
   -1.2296   30.5925   11.0273 H   0  0  0  0  0  0
   -0.9320   33.1123   10.5753 H   0  0  0  0  0  0
   -2.7028   33.2591   10.2148 H   0  0  0  0  0  0
    4.4598   25.6268    7.4576 H   0  0  0  0  0  0
    4.3577   24.0954    5.5276 H   0  0  0  0  0  0
    4.3723   25.0078    3.2306 H   0  0  0  0  0  0
    4.4647   27.4386    2.8524 H   0  0  0  0  0  0
    4.5447   28.9880    4.7786 H   0  0  0  0  0  0
    6.2585   27.4492    8.3050 H   0  0  0  0  0  0
    5.5556   28.5477    9.2835 H   0  0  0  0  0  0
  1  5  1  0  0  0
  1  2  2  0  0  0
  1 20  1  0  0  0
  2 10  1  0  0  0
  2  3  1  0  0  0
  3  4  1  0  0  0
  3 21  1  0  0  0
  4  5  2  0  0  0
  5  6  1  0  0  0
  6  7  1  0  0  0
  6 22  1  0  0  0
  7  8  1  0  0  0
  7  9  2  0  0  0
  8 13  1  0  0  0
  8 19  1  0  0  0
  8 23  1  0  0  0
 10 11  1  0  0  0
 10 12  1  0  0  0
 10 24  1  0  0  0
 11 12  1  0  0  0
 11 25  1  0  0  0
 11 26  1  0  0  0
 12 27  1  0  0  0
 12 28  1  0  0  0
 13 14  2  0  0  0
 13 18  1  0  0  0
 14 15  1  0  0  0
 14 29  1  0  0  0
 15 16  2  0  0  0
 15 30  1  0  0  0
 16 17  1  0  0  0
 16 31  1  0  0  0
 17 18  2  0  0  0
 17 32  1  0  0  0
 18 33  1  0  0  0
 19 34  1  0  0  0
 19 35  1  0  0  0
M  END
> <s_m_entry_id>
32862

> <s_m_entry_name>
dock_pv.263

> <s_m_Source_Path>
/home/csk/Desktop/cluster/DUD-E-result/cdk2

> <s_m_Source_File>
dock_pv.maegz

> <i_m_Source_File_Index>
263

> <chembl_id>
CHEMBL193287

> <chembl_pref_name>
None

> <i_lp_mmshare_version>
53161

> <i_f3d_flags>
0

> <r_lp_tautomer_probability>
0.5

> <s_lp_Force_Field>
OPLS_2005

> <r_lp_Energy>
14.816987

> <b_lp_Chiralities_Consistent>
1

> <s_lp_Variant>
CHEMBL301_lig699-1

> <s_i_glide_gridfile>
glide-grid_1h00

> <i_i_glide_lignum>
982

> <i_i_glide_rotatable_bonds>
5

> <r_i_docking_score>
-7.58983817364328

> <r_i_glide_ligand_efficiency>
-0.399465167033857

> <r_i_glide_ligand_efficiency_sa>
-1.06593350927394

> <r_i_glide_ligand_efficiency_ln>
-1.92418699179552

> <r_i_glide_gscore>
-7.58983817364328

> <r_i_glide_lipo>
-2.48127553221797

> <r_i_glide_hbond>
-0.42831336514284

> <r_i_glide_metal>
0

> <r_i_glide_rewards>
-3.28659879543791

> <r_i_glide_evdw>
-28.5521583557129

> <r_i_glide_ecoul>
-4.78156232833862

> <r_i_glide_erotb>
0.751191786191889

> <r_i_glide_esite>
0

> <r_i_glide_emodel>
-48.0924271102963

> <r_i_glide_energy>
-33.3337206840515

> <r_i_glide_einternal>
4.2838568687439

> <i_i_glide_confnum>
15

> <i_i_glide_posenum>
25

> <r_i_glide_eff_state_penalty>
0

> <s_user_duplicate_titles>
CHEMBL301_lig699,320728

> <s_m_subgroup_title>
dock_pv

> <s_m_subgroupid>
dock_pv

> <b_m_subgroup_collapsed>
1

$$$$
CHEMBL301_lig1353
                    3D
 Schrodinger Suite 2021-1.
 40 41  0  0  1  0            999 V2000
    4.7200   27.8532    8.3017 C   0  0  0  0  0  0
    3.8473   29.0475    7.8988 C   0  0  1  0  0  0
    3.7385   29.0520    6.4877 O   0  0  0  0  0  0
    2.4577   29.0351    8.5778 C   0  0  0  0  0  0
    1.2781   30.2521    7.9107 S   0  0  0  0  0  0
   -0.1310   30.3614    8.9756 C   0  0  0  0  0  0
   -0.4550   29.2783    9.7289 N   0  0  0  0  0  0
   -1.5652   29.3820   10.5112 C   0  0  0  0  0  0
   -1.9306   28.3432   11.3762 N   0  0  0  0  0  0
   -1.4370   27.0406   11.5364 C   0  0  0  0  0  0
   -1.6476   26.3985   12.7570 C   0  0  0  0  0  0
   -1.1570   25.1107   12.9636 C   0  0  0  0  0  0
   -0.4461   24.4640   11.9502 C   0  0  0  0  0  0
   -0.2433   25.1028   10.7242 C   0  0  0  0  0  0
   -0.7606   26.3734   10.5134 C   0  0  0  0  0  0
    0.2038   22.8200   12.2538 S   0  0  2  0  0  0
   -0.7147   21.9214   11.4233 N   0  0  0  0  0  0
    0.4239   22.6609   13.6942 O   0  0  0  0  0  0
    1.8382   22.7131   11.3356 C   0  0  0  0  0  0
   -2.3653   30.4711   10.5761 N   0  0  0  0  0  0
   -1.9986   31.5544    9.8545 C   0  0  0  0  0  0
   -0.8649   31.5529    9.0483 C   0  0  0  0  0  0
   -0.3357   33.1533    8.1757 Br  0  0  0  0  0  0
    4.9016   27.8483    9.3742 H   0  0  0  0  0  0
    5.6899   27.8857    7.8056 H   0  0  0  0  0  0
    4.2471   26.9051    8.0425 H   0  0  0  0  0  0
    4.3653   29.9673    8.1766 H   0  0  0  0  0  0
    3.9761   29.9407    6.1784 H   0  0  0  0  0  0
    2.0210   28.0384    8.5749 H   0  0  0  0  0  0
    2.5795   29.2425    9.6356 H   0  0  0  0  0  0
   -2.6721   28.6047   12.0130 H   0  0  0  0  0  0
   -2.1838   26.8997   13.5503 H   0  0  0  0  0  0
   -1.3216   24.6213   13.9125 H   0  0  0  0  0  0
    0.3168   24.6520    9.9226 H   0  0  0  0  0  0
   -0.6309   26.8308    9.5472 H   0  0  0  0  0  0
   -0.5039   20.9385   11.5510 H   0  0  0  0  0  0
    1.6554   22.7798   10.2636 H   0  0  0  0  0  0
    2.4578   23.5436   11.6680 H   0  0  0  0  0  0
    2.2976   21.7564   11.5789 H   0  0  0  0  0  0
   -2.6144   32.4369    9.9569 H   0  0  0  0  0  0
  1  2  1  0  0  0
  1 24  1  0  0  0
  1 25  1  0  0  0
  1 26  1  0  0  0
  2  3  1  0  0  0
  2  4  1  0  0  0
  2 27  1  0  0  0
  3 28  1  0  0  0
  4  5  1  0  0  0
  4 29  1  0  0  0
  4 30  1  0  0  0
  5  6  1  0  0  0
  6  7  2  0  0  0
  6 22  1  0  0  0
  7  8  1  0  0  0
  8  9  1  0  0  0
  8 20  2  0  0  0
  9 10  1  0  0  0
  9 31  1  0  0  0
 10 11  2  0  0  0
 10 15  1  0  0  0
 11 12  1  0  0  0
 11 32  1  0  0  0
 12 13  2  0  0  0
 12 33  1  0  0  0
 13 14  1  0  0  0
 13 16  1  0  0  0
 14 15  2  0  0  0
 14 34  1  0  0  0
 15 35  1  0  0  0
 16 17  2  0  0  0
 16 18  2  0  0  0
 16 19  1  0  0  0
 17 36  1  0  0  0
 19 37  1  0  0  0
 19 38  1  0  0  0
 19 39  1  0  0  0
 20 21  1  0  0  0
 21 22  2  0  0  0
 21 40  1  0  0  0
 22 23  1  0  0  0
M  END
> <s_m_entry_id>
32863

> <s_m_entry_name>
dock_pv.264

> <s_m_Source_Path>
/home/csk/Desktop/cluster/DUD-E-result/cdk2

> <s_m_Source_File>
dock_pv.maegz

> <i_m_Source_File_Index>
264

> <chembl_id>
CHEMBL3648101

> <chembl_pref_name>
None

> <i_lp_mmshare_version>
53161

> <i_f3d_flags>
0

> <r_lp_tautomer_probability>
0.999999987636

> <s_lp_Force_Field>
OPLS_2005

> <r_lp_Energy>
-2.220615

> <b_lp_Chiralities_Consistent>
1

> <s_lp_Variant>
CHEMBL301_lig1353-2

> <s_i_glide_gridfile>
glide-grid_1h00

> <i_i_glide_lignum>
1802

> <i_i_glide_rotatable_bonds>
7

> <r_i_docking_score>
-7.58840273343647

> <r_i_glide_ligand_efficiency>
-0.329930553627672

> <r_i_glide_ligand_efficiency_sa>
-0.938278606125228

> <r_i_glide_ligand_efficiency_ln>
-1.83494458877668

> <r_i_glide_gscore>
-7.58840273343647

> <r_i_glide_lipo>
-2.5897873922936

> <r_i_glide_hbond>
-0.608

> <r_i_glide_metal>
0

> <r_i_glide_rewards>
-1.19243398212742

> <r_i_glide_evdw>
-38.8762969970703

> <r_i_glide_ecoul>
-12.1448373794556

> <r_i_glide_erotb>
0.567359097756403

> <r_i_glide_esite>
0

> <r_i_glide_emodel>
-71.8882900694763

> <r_i_glide_energy>
-51.0211343765259

> <r_i_glide_einternal>
4.29873132705688

> <i_i_glide_confnum>
29

> <i_i_glide_posenum>
140

> <r_i_glide_eff_state_penalty>
0

> <s_user_duplicate_titles>
CHEMBL301_lig1353

> <s_m_subgroup_title>
dock_pv

> <s_m_subgroupid>
dock_pv

> <b_m_subgroup_collapsed>
1

$$$$
CHEMBL301_lig1402
                    3D
 Schrodinger Suite 2021-1.
 46 47  0  0  1  0            999 V2000
    0.8629   25.8792   10.5762 C   0  0  0  0  0  0
   -0.2187   26.9369   10.2969 C   0  0  0  0  0  0
   -0.4160   28.0167   11.3962 C   0  0  1  0  0  0
   -1.5374   29.3525   10.8444 S   0  0  0  0  0  0
   -0.7579   30.4293    9.6699 C   0  0  0  0  0  0
    0.2868   29.9487    8.9418 N   0  0  0  0  0  0
    0.8585   30.7962    8.0432 C   0  0  0  0  0  0
    1.9778   30.3987    7.2988 N   0  0  0  0  0  0
    2.8783   29.3288    7.4106 C   0  0  0  0  0  0
    3.0512   28.6015    8.5886 C   0  0  0  0  0  0
    3.9486   27.5384    8.6251 C   0  0  0  0  0  0
    4.7023   27.2087    7.4992 C   0  0  0  0  0  0
    4.5560   27.9509    6.3272 C   0  0  0  0  0  0
    3.6406   28.9989    6.2881 C   0  0  0  0  0  0
    5.7879   25.7831    7.5716 S   0  0  1  0  0  0
    6.8602   26.2027    8.5758 N   0  0  0  0  0  0
    4.9643   24.5796    7.7154 O   0  0  0  0  0  0
    6.7665   25.7103    5.9678 C   0  0  0  0  0  0
    0.4584   32.0721    7.8128 N   0  0  0  0  0  0
   -0.5639   32.5387    8.5762 C   0  0  0  0  0  0
   -1.2138   31.7495    9.5239 C   0  0  0  0  0  0
   -2.6382   32.4921   10.5575 Br  0  0  0  0  0  0
   -0.9003   27.4797   12.7788 C   0  0  1  0  0  0
   -2.2308   26.7038   12.7436 C   0  0  0  0  0  0
    0.0575   26.6570   13.4184 O   0  0  0  0  0  0
    1.0539   25.2752    9.6892 H   0  0  0  0  0  0
    1.8067   26.3400   10.8702 H   0  0  0  0  0  0
    0.5611   25.1909   11.3645 H   0  0  0  0  0  0
   -1.1658   26.4438   10.0737 H   0  0  0  0  0  0
    0.0577   27.4370    9.3739 H   0  0  0  0  0  0
    0.5478   28.5045   11.5513 H   0  0  0  0  0  0
    2.2708   31.0863    6.6231 H   0  0  0  0  0  0
    2.4936   28.8394    9.4800 H   0  0  0  0  0  0
    4.0513   26.9664    9.5329 H   0  0  0  0  0  0
    5.1287   27.7202    5.4415 H   0  0  0  0  0  0
    3.5323   29.5637    5.3756 H   0  0  0  0  0  0
    6.4645   26.2452    9.5184 H   0  0  0  0  0  0
    7.2983   26.6504    5.8296 H   0  0  0  0  0  0
    7.4811   24.8921    6.0403 H   0  0  0  0  0  0
    6.0817   25.5321    5.1401 H   0  0  0  0  0  0
   -0.8620   33.5629    8.4037 H   0  0  0  0  0  0
   -1.0376   28.3385   13.4384 H   0  0  0  0  0  0
   -3.0339   27.3064   12.3177 H   0  0  0  0  0  0
   -2.5445   26.4203   13.7482 H   0  0  0  0  0  0
   -2.1525   25.7908   12.1531 H   0  0  0  0  0  0
    0.9330   27.0688   13.3710 H   0  0  0  0  0  0
  1  2  1  0  0  0
  1 26  1  0  0  0
  1 27  1  0  0  0
  1 28  1  0  0  0
  2  3  1  0  0  0
  2 29  1  0  0  0
  2 30  1  0  0  0
  3  4  1  0  0  0
  3 23  1  0  0  0
  3 31  1  0  0  0
  4  5  1  0  0  0
  5  6  2  0  0  0
  5 21  1  0  0  0
  6  7  1  0  0  0
  7  8  1  0  0  0
  7 19  2  0  0  0
  8  9  1  0  0  0
  8 32  1  0  0  0
  9 10  2  0  0  0
  9 14  1  0  0  0
 10 11  1  0  0  0
 10 33  1  0  0  0
 11 12  2  0  0  0
 11 34  1  0  0  0
 12 13  1  0  0  0
 12 15  1  0  0  0
 13 14  2  0  0  0
 13 35  1  0  0  0
 14 36  1  0  0  0
 15 16  2  0  0  0
 15 17  2  0  0  0
 15 18  1  0  0  0
 16 37  1  0  0  0
 18 38  1  0  0  0
 18 39  1  0  0  0
 18 40  1  0  0  0
 19 20  1  0  0  0
 20 21  2  0  0  0
 20 41  1  0  0  0
 21 22  1  0  0  0
 23 24  1  0  0  0
 23 25  1  0  0  0
 23 42  1  0  0  0
 24 43  1  0  0  0
 24 44  1  0  0  0
 24 45  1  0  0  0
 25 46  1  0  0  0
M  END
> <s_m_entry_id>
32864

> <s_m_entry_name>
dock_pv.265

> <s_m_Source_Path>
/home/csk/Desktop/cluster/DUD-E-result/cdk2

> <s_m_Source_File>
dock_pv.maegz

> <i_m_Source_File_Index>
265

> <chembl_id>
CHEMBL3648103

> <chembl_pref_name>
None

> <i_lp_mmshare_version>
53161

> <i_f3d_flags>
0

> <r_lp_tautomer_probability>
0.999999987636

> <s_lp_Force_Field>
OPLS_2005

> <r_lp_Energy>
3.883533

> <b_lp_Chiralities_Consistent>
1

> <s_lp_Variant>
CHEMBL301_lig1402-8

> <s_i_glide_gridfile>
glide-grid_1h00

> <i_i_glide_lignum>
1911

> <i_i_glide_rotatable_bonds>
8

> <r_i_docking_score>
-7.58651575219927

> <r_i_glide_ligand_efficiency>
-0.303460630087971

> <r_i_glide_ligand_efficiency_sa>
-0.887324264274418

> <r_i_glide_ligand_efficiency_ln>
-1.79823158280234

> <r_i_glide_gscore>
-7.58651575219927

> <r_i_glide_lipo>
-2.6077978286939

> <r_i_glide_hbond>
-0.473630379774388

> <r_i_glide_metal>
0

> <r_i_glide_rewards>
-1.27337170021378

> <r_i_glide_evdw>
-40.1832885742188

> <r_i_glide_ecoul>
-11.5122079849243

> <r_i_glide_erotb>
0.504279782932378

> <r_i_glide_esite>
0

> <r_i_glide_emodel>
-71.5144307843514

> <r_i_glide_energy>
-51.6954965591431

> <r_i_glide_einternal>
5.73663473129272

> <i_i_glide_confnum>
59

> <i_i_glide_posenum>
100

> <r_i_glide_eff_state_penalty>
0

> <s_user_duplicate_titles>
CHEMBL301_lig1402

> <s_m_subgroup_title>
dock_pv

> <s_m_subgroupid>
dock_pv

> <b_m_subgroup_collapsed>
1

$$$$
CHEMBL301_lig15
                    3D
 Schrodinger Suite 2021-1.
 56 58  0  0  1  0            999 V2000
    0.2431   30.0247    9.0356 N   0  0  0  0  0  0
   -0.3758   31.1211    8.5758 C   0  0  0  0  0  0
   -1.5742   31.6165    8.9076 N   0  0  0  0  0  0
   -2.2992   30.9420    9.8336 C   0  0  0  0  0  0
   -0.4953   29.3871    9.9785 C   0  0  0  0  0  0
   -1.7521   29.7731   10.4096 C   0  0  0  0  0  0
   -2.2257   28.9368   11.3463 N   0  0  0  0  0  0
   -1.2597   28.0782   11.5287 C   0  0  0  0  0  0
   -0.1990   28.2723   10.7201 N   0  0  0  0  0  0
   -3.5428   31.4495   10.1759 N   0  0  0  0  0  0
    1.1046   27.5023   10.7769 C   0  0  2  0  0  0
    2.0321   27.9853    9.8543 O   0  0  0  0  0  0
    3.0950   27.0611    9.7803 C   0  0  1  0  0  0
    2.3126   25.7393    9.7063 C   0  0  2  0  0  0
    1.0035   25.9983   10.4792 C   0  0  1  0  0  0
    3.0976   24.6585   10.1734 O   0  0  0  0  0  0
    0.8288   25.2872   11.6984 O   0  0  0  0  0  0
    4.0318   27.3808    8.5970 C   0  0  0  0  0  0
    4.6216   26.1656    8.1755 O   0  0  0  0  0  0
    6.1118   26.0546    7.5363 P   0  0  1  0  0  0
    6.0101   24.6020    6.8538 O   0  0  0  0  0  0
    6.0580   27.0520    6.2624 O   0  0  0  0  0  0
    7.2583   26.2519    8.4649 O   0  0  0  0  0  0
    4.9358   23.8760    5.7667 P   0  0  1  0  0  0
    5.8754   22.9407    4.7119 O   0  0  0  0  0  0
    4.0153   22.8039    6.7147 O   0  0  0  0  0  0
    4.0578   24.8771    5.0550 O   0  0  0  0  0  0
    6.1086   22.8164    3.1218 P   0  0  1  0  0  0
    6.4841   24.4000    2.6499 N   0  0  1  0  0  0
    7.0462   21.7400    2.7057 O   0  0  0  0  0  0
    4.5985   22.6518    2.5759 O   0  0  0  0  0  0
    7.8095   24.9945    2.8266 C   0  0  0  0  0  0
    8.2493   25.0861    4.2975 C   0  0  0  0  0  0
    9.4787   25.8612    4.5259 C   0  0  0  0  0  0
   10.4904   26.5043    4.7582 C   0  0  0  0  0  0
    0.1680   31.6819    7.8296 H   0  0  0  0  0  0
   -1.2656   27.2800   12.2571 H   0  0  0  0  0  0
   -3.8478   31.2145   11.1208 H   0  0  0  0  0  0
   -3.7616   32.3574    9.7927 H   0  0  0  0  0  0
    1.5153   27.7047   11.7711 H   0  0  0  0  0  0
    3.6577   27.1206   10.7130 H   0  0  0  0  0  0
    2.0585   25.5224    8.6692 H   0  0  0  0  0  0
    0.1538   25.8259    9.8158 H   0  0  0  0  0  0
    3.9643   25.0465   10.3705 H   0  0  0  0  0  0
   -0.0921   25.3382   11.9625 H   0  0  0  0  0  0
    4.7809   28.1151    8.8991 H   0  0  0  0  0  0
    3.4787   27.8218    7.7678 H   0  0  0  0  0  0
    6.8362   27.6370    6.1187 H   0  0  0  0  0  0
    3.0984   23.0420    6.9754 H   0  0  0  0  0  0
    5.9054   24.8079    1.9095 H   0  0  0  0  0  0
    4.3930   23.2571    1.8203 H   0  0  0  0  0  0
    7.7833   25.9947    2.3907 H   0  0  0  0  0  0
    8.5342   24.4224    2.2434 H   0  0  0  0  0  0
    8.3980   24.0925    4.7228 H   0  0  0  0  0  0
    7.4696   25.5697    4.8791 H   0  0  0  0  0  0
   11.3788   27.0538    4.9760 H   0  0  0  0  0  0
  1  2  2  0  0  0
  1  5  1  0  0  0
  2  3  1  0  0  0
  2 36  1  0  0  0
  3  4  2  0  0  0
  4  6  1  0  0  0
  4 10  1  0  0  0
  5  9  1  0  0  0
  5  6  2  0  0  0
  6  7  1  0  0  0
  7  8  2  0  0  0
  8  9  1  0  0  0
  8 37  1  0  0  0
  9 11  1  0  0  0
 10 38  1  0  0  0
 10 39  1  0  0  0
 11 12  1  0  0  0
 11 15  1  0  0  0
 11 40  1  0  0  0
 12 13  1  0  0  0
 13 18  1  0  0  0
 13 14  1  0  0  0
 13 41  1  0  0  0
 14 15  1  0  0  0
 14 16  1  0  0  0
 14 42  1  0  0  0
 15 17  1  0  0  0
 15 43  1  0  0  0
 16 44  1  0  0  0
 17 45  1  0  0  0
 18 19  1  0  0  0
 18 46  1  0  0  0
 18 47  1  0  0  0
 19 20  1  0  0  0
 20 21  1  0  0  0
 20 22  1  0  0  0
 20 23  2  0  0  0
 21 24  1  0  0  0
 22 48  1  0  0  0
 24 25  1  0  0  0
 24 26  1  0  0  0
 24 27  2  0  0  0
 25 28  1  0  0  0
 26 49  1  0  0  0
 28 29  1  0  0  0
 28 30  2  0  0  0
 28 31  1  0  0  0
 29 32  1  0  0  0
 29 50  1  0  0  0
 31 51  1  0  0  0
 32 33  1  0  0  0
 32 52  1  0  0  0
 32 53  1  0  0  0
 33 34  1  0  0  0
 33 54  1  0  0  0
 33 55  1  0  0  0
 34 35  3  0  0  0
 35 56  1  0  0  0
M  END
> <s_m_entry_id>
32865

> <s_m_entry_name>
dock_pv.266

> <s_m_Source_Path>
/home/csk/Desktop/cluster/DUD-E-result/cdk2

> <s_m_Source_File>
dock_pv.maegz

> <i_m_Source_File_Index>
266

> <chembl_id>
CHEMBL551481

> <chembl_pref_name>
None

> <i_lp_mmshare_version>
53161

> <i_f3d_flags>
0

> <r_lp_tautomer_probability>
0.999997216410988

> <s_lp_Force_Field>
OPLS_2005

> <r_lp_Energy>
18.78876

> <b_lp_Chiralities_Consistent>
1

> <s_lp_Variant>
CHEMBL301_lig15-4

> <s_i_glide_gridfile>
glide-grid_1h00

> <i_i_glide_lignum>
75

> <i_i_glide_rotatable_bonds>
17

> <r_i_docking_score>
-7.58617094597219

> <r_i_glide_ligand_efficiency>
-0.216747741313491

> <r_i_glide_ligand_efficiency_sa>
-0.708996233579789

> <r_i_glide_ligand_efficiency_ln>
-1.66533288863372

> <r_i_glide_gscore>
-7.58617094597219

> <r_i_glide_lipo>
-0.49494203939627

> <r_i_glide_hbond>
-0.365622664066551

> <r_i_glide_metal>
0

> <r_i_glide_rewards>
-1.06616169840801

> <r_i_glide_evdw>
-40.3288116455078

> <r_i_glide_ecoul>
-27.6494750976562

> <r_i_glide_erotb>
0.505622995030354

> <r_i_glide_esite>
-0.148626956856324

> <r_i_glide_emodel>
-92.076317325764

> <r_i_glide_energy>
-67.9782867431641

> <r_i_glide_einternal>
17.8753089904785

> <i_i_glide_confnum>
210

> <i_i_glide_posenum>
310

> <r_i_glide_eff_state_penalty>
0

> <s_user_duplicate_titles>
CHEMBL301_lig15

> <s_m_subgroup_title>
dock_pv

> <s_m_subgroupid>
dock_pv

> <b_m_subgroup_collapsed>
1

$$$$
CHEMBL301_lig659
                    3D
 Schrodinger Suite 2021-1.
 55 57  0  0  1  0            999 V2000
    4.3232   25.2192    7.5919 C   0  0  0  0  0  0
    4.3048   26.4826    8.1758 C   0  0  0  0  0  0
    4.5667   27.6140    7.3972 C   0  0  0  0  0  0
    4.8514   27.4770    6.0355 C   0  0  0  0  0  0
    4.8668   26.2114    5.4521 C   0  0  0  0  0  0
    4.5981   25.0880    6.2318 C   0  0  0  0  0  0
    4.5156   28.9983    8.0262 C   0  0  0  0  0  0
    3.2360   29.6651    7.7804 N   0  0  0  0  0  0
    2.0965   29.4146    8.5679 C   0  0  0  0  0  0
    2.0513   28.3260    9.3760 N   0  0  0  0  0  0
    0.9070   28.1023   10.0530 C   0  0  0  0  0  0
   -0.1714   28.9249   10.1017 N   0  0  0  0  0  0
    1.0077   30.2520    8.5129 N   0  0  0  0  0  0
   -0.1009   30.0141    9.3353 C   0  0  0  0  0  0
   -0.9540   31.1328    9.1623 C   0  0  0  0  0  0
   -0.2850   31.8895    8.1866 C   0  0  0  0  0  0
    0.8578   31.3801    7.7759 N   0  0  0  0  0  0
   -2.2524   31.4213    9.8994 C   0  0  0  0  0  0
   -3.4731   30.9401    9.0996 C   0  0  0  0  0  0
   -2.3604   32.9049   10.2926 C   0  0  0  0  0  0
    0.8662   26.8733   10.7069 N   0  0  0  0  0  0
   -0.2115   26.4711   11.6101 C   0  0  1  0  0  0
   -1.5071   26.0615   10.8589 C   0  0  0  0  0  0
    0.3087   25.4360   12.6377 C   0  0  0  0  0  0
    0.6527   24.0548   12.0389 C   0  0  0  0  0  0
   -2.6415   26.2524   11.6847 O   0  0  0  0  0  0
   -0.5872   25.2988   13.8839 C   0  0  0  0  0  0
    4.5917   23.5231    5.5094 Cl  0  0  0  0  0  0
    4.1050   24.3469    8.1897 H   0  0  0  0  0  0
    4.0592   26.5866    9.2217 H   0  0  0  0  0  0
    5.0564   28.3485    5.4303 H   0  0  0  0  0  0
    5.0807   26.1042    4.3990 H   0  0  0  0  0  0
    5.3161   29.6157    7.6184 H   0  0  0  0  0  0
    4.7153   28.9213    9.0961 H   0  0  0  0  0  0
    3.2652   30.5392    7.2739 H   0  0  0  0  0  0
   -0.6317   32.8304    7.7812 H   0  0  0  0  0  0
   -2.2476   30.8624   10.8379 H   0  0  0  0  0  0
   -3.4558   29.8566    8.9762 H   0  0  0  0  0  0
   -4.3990   31.1886    9.6185 H   0  0  0  0  0  0
   -3.5140   31.3989    8.1099 H   0  0  0  0  0  0
   -1.5411   33.2123   10.9430 H   0  0  0  0  0  0
   -2.3409   33.5466    9.4136 H   0  0  0  0  0  0
   -3.2878   33.1036   10.8298 H   0  0  0  0  0  0
    1.7212   26.3424   10.7124 H   0  0  0  0  0  0
   -0.4621   27.3737   12.1722 H   0  0  0  0  0  0
   -1.6606   26.6852    9.9791 H   0  0  0  0  0  0
   -1.4754   25.0255   10.5155 H   0  0  0  0  0  0
    1.2579   25.8519   12.9763 H   0  0  0  0  0  0
   -0.2370   23.5202   11.7058 H   0  0  0  0  0  0
    1.1517   23.4219   12.7748 H   0  0  0  0  0  0
    1.3254   24.1446   11.1822 H   0  0  0  0  0  0
   -3.3535   25.6776   11.3773 H   0  0  0  0  0  0
   -1.5377   24.8201   13.6401 H   0  0  0  0  0  0
   -0.1070   24.6895   14.6511 H   0  0  0  0  0  0
   -0.8070   26.2735   14.3240 H   0  0  0  0  0  0
  1  6  1  0  0  0
  1  2  2  0  0  0
  1 29  1  0  0  0
  2  3  1  0  0  0
  2 30  1  0  0  0
  3  7  1  0  0  0
  3  4  2  0  0  0
  4  5  1  0  0  0
  4 31  1  0  0  0
  5  6  2  0  0  0
  5 32  1  0  0  0
  6 28  1  0  0  0
  7  8  1  0  0  0
  7 33  1  0  0  0
  7 34  1  0  0  0
  8  9  1  0  0  0
  8 35  1  0  0  0
  9 10  2  0  0  0
  9 13  1  0  0  0
 10 11  1  0  0  0
 11 21  1  0  0  0
 11 12  2  0  0  0
 12 14  1  0  0  0
 13 14  1  0  0  0
 13 17  1  0  0  0
 14 15  2  0  0  0
 15 16  1  0  0  0
 15 18  1  0  0  0
 16 17  2  0  0  0
 16 36  1  0  0  0
 18 19  1  0  0  0
 18 20  1  0  0  0
 18 37  1  0  0  0
 19 38  1  0  0  0
 19 39  1  0  0  0
 19 40  1  0  0  0
 20 41  1  0  0  0
 20 42  1  0  0  0
 20 43  1  0  0  0
 21 22  1  0  0  0
 21 44  1  0  0  0
 22 23  1  0  0  0
 22 24  1  0  0  0
 22 45  1  0  0  0
 23 26  1  0  0  0
 23 46  1  0  0  0
 23 47  1  0  0  0
 24 25  1  0  0  0
 24 27  1  0  0  0
 24 48  1  0  0  0
 25 49  1  0  0  0
 25 50  1  0  0  0
 25 51  1  0  0  0
 26 52  1  0  0  0
 27 53  1  0  0  0
 27 54  1  0  0  0
 27 55  1  0  0  0
M  END
> <s_m_entry_id>
32866

> <s_m_entry_name>
dock_pv.267

> <s_m_Source_Path>
/home/csk/Desktop/cluster/DUD-E-result/cdk2

> <s_m_Source_File>
dock_pv.maegz

> <i_m_Source_File_Index>
267

> <chembl_id>
CHEMBL480442

> <chembl_pref_name>
None

> <i_lp_mmshare_version>
53161

> <i_f3d_flags>
0

> <r_lp_tautomer_probability>
1

> <s_lp_Force_Field>
OPLS_2005

> <r_lp_Energy>
21.269207

> <b_lp_Chiralities_Consistent>
1

> <s_lp_Variant>
CHEMBL301_lig659-1

> <s_i_glide_gridfile>
glide-grid_1h00

> <i_i_glide_lignum>
904

> <i_i_glide_rotatable_bonds>
9

> <r_i_docking_score>
-7.58335775573975

> <r_i_glide_ligand_efficiency>
-0.270834205562134

> <r_i_glide_ligand_efficiency_sa>
-0.8224121609032

> <r_i_glide_ligand_efficiency_ln>
-1.7504616270835

> <r_i_glide_gscore>
-7.58335775573975

> <r_i_glide_lipo>
-2.94810790806985

> <r_i_glide_hbond>
-0.478956832380389

> <r_i_glide_metal>
0

> <r_i_glide_rewards>
-1.93068346530332

> <r_i_glide_evdw>
-42.2234230041504

> <r_i_glide_ecoul>
-5.59915351867676

> <r_i_glide_erotb>
0.725434628022848

> <r_i_glide_esite>
0

> <r_i_glide_emodel>
-66.482535347546

> <r_i_glide_energy>
-47.8225765228271

> <r_i_glide_einternal>
3.20642638206482

> <i_i_glide_confnum>
4

> <i_i_glide_posenum>
33

> <r_i_glide_eff_state_penalty>
0

> <s_user_duplicate_titles>
CHEMBL301_lig659,473757

> <s_m_subgroup_title>
dock_pv

> <s_m_subgroupid>
dock_pv

> <b_m_subgroup_collapsed>
1

$$$$
CHEMBL301_lig228
                    3D
 Schrodinger Suite 2021-1.
 38 41  0  0  1  0            999 V2000
    0.9948   29.9477    8.6712 C   0  0  0  0  0  0
    1.1405   31.1430    7.7715 C   0  0  0  0  0  0
   -0.0122   27.9844   10.4484 C   0  0  0  0  0  0
   -0.5712   26.6207   11.4861 S   0  0  0  0  0  0
   -0.2380   30.0712    9.2757 C   0  0  0  0  0  0
   -0.8252   29.1314   10.1452 C   0  0  0  0  0  0
    1.7975   28.8395    8.9765 C   0  0  0  0  0  0
    0.0587   31.9012    8.0457 N   0  0  0  0  0  0
   -0.8258   31.2517    8.8854 C   0  0  0  0  0  0
    1.2755   27.8891    9.8793 C   0  0  0  0  0  0
    3.1345   28.5607    8.3493 C   0  0  0  0  0  0
    4.1127   27.8259    8.9764 N   0  0  0  0  0  0
   -2.1527   29.4628   10.5805 C   0  0  0  0  0  0
   -0.7646   27.3795   13.2061 C   0  0  0  0  0  0
   -1.8841   26.2030   10.9867 O   0  0  0  0  0  0
    0.5119   25.6345   11.5659 O   0  0  0  0  0  0
    2.0248   31.4438    6.9748 O   0  0  0  0  0  0
   -2.0970   31.5743    9.3430 C   0  0  0  0  0  0
    3.6568   28.8439    7.0871 C   0  0  0  0  0  0
    5.1888   27.6277    8.1575 C   0  0  0  0  0  0
    4.9145   28.2522    6.9608 C   0  0  0  0  0  0
   -2.7548   30.6657   10.1762 C   0  0  0  0  0  0
   -2.8701   28.6476   11.3762 F   0  0  0  0  0  0
   -1.9481   27.0518   15.2751 O   0  0  0  0  0  0
   -1.4437   26.3738   14.1420 C   0  0  0  0  0  0
   -0.0938   32.8060    7.6267 H   0  0  0  0  0  0
    1.8725   27.0161   10.1037 H   0  0  0  0  0  0
    4.0441   27.4449    9.9119 H   0  0  0  0  0  0
    0.2418   27.6266   13.5420 H   0  0  0  0  0  0
   -1.3301   28.3056   13.1171 H   0  0  0  0  0  0
   -2.5841   32.4949    9.0568 H   0  0  0  0  0  0
    3.1657   29.3955    6.2991 H   0  0  0  0  0  0
    6.0371   27.0524    8.5017 H   0  0  0  0  0  0
    5.5569   28.2812    6.0924 H   0  0  0  0  0  0
   -3.7458   30.9032   10.5371 H   0  0  0  0  0  0
   -2.6399   27.6621   14.9747 H   0  0  0  0  0  0
   -2.2865   25.8888   13.6431 H   0  0  0  0  0  0
   -0.7486   25.5871   14.4427 H   0  0  0  0  0  0
  1  2  1  0  0  0
  1  5  1  0  0  0
  1  7  2  0  0  0
  2  8  1  0  0  0
  2 17  2  0  0  0
  3 10  2  0  0  0
  3  4  1  0  0  0
  3  6  1  0  0  0
  4 14  1  0  0  0
  4 15  2  0  0  0
  4 16  2  0  0  0
  5  6  2  0  0  0
  5  9  1  0  0  0
  6 13  1  0  0  0
  7 10  1  0  0  0
  7 11  1  0  0  0
  8  9  1  0  0  0
  8 26  1  0  0  0
  9 18  2  0  0  0
 10 27  1  0  0  0
 11 12  1  0  0  0
 11 19  2  0  0  0
 12 20  1  0  0  0
 12 28  1  0  0  0
 13 23  1  0  0  0
 13 22  2  0  0  0
 14 25  1  0  0  0
 14 29  1  0  0  0
 14 30  1  0  0  0
 18 22  1  0  0  0
 18 31  1  0  0  0
 19 21  1  0  0  0
 19 32  1  0  0  0
 20 21  2  0  0  0
 20 33  1  0  0  0
 21 34  1  0  0  0
 22 35  1  0  0  0
 24 25  1  0  0  0
 24 36  1  0  0  0
 25 37  1  0  0  0
 25 38  1  0  0  0
M  END
> <s_m_entry_id>
32867

> <s_m_entry_name>
dock_pv.268

> <s_m_Source_Path>
/home/csk/Desktop/cluster/DUD-E-result/cdk2

> <s_m_Source_File>
dock_pv.maegz

> <i_m_Source_File_Index>
268

> <chembl_id>
CHEMBL310529

> <chembl_pref_name>
None

> <i_lp_mmshare_version>
53161

> <i_f3d_flags>
0

> <r_lp_tautomer_probability>
1

> <s_lp_Force_Field>
OPLS_2005

> <r_lp_Energy>
56.76227

> <b_lp_Chiralities_Consistent>
1

> <s_lp_Variant>
CHEMBL301_lig228-1

> <s_i_glide_gridfile>
glide-grid_1h00

> <i_i_glide_lignum>
370

> <i_i_glide_rotatable_bonds>
5

> <r_i_docking_score>
-7.58244077421703

> <r_i_glide_ligand_efficiency>
-0.303297630968681

> <r_i_glide_ligand_efficiency_sa>
-0.886847651958812

> <r_i_glide_ligand_efficiency_ln>
-1.79726569090331

> <r_i_glide_gscore>
-7.58244077421703

> <r_i_glide_lipo>
-3.05670828225123

> <r_i_glide_hbond>
-0.364384372797995

> <r_i_glide_metal>
0

> <r_i_glide_rewards>
-1.709084080137

> <r_i_glide_evdw>
-37.5125999450684

> <r_i_glide_ecoul>
-7.25332689285278

> <r_i_glide_erotb>
0.590732401401459

> <r_i_glide_esite>
-0.0793674092509326

> <r_i_glide_emodel>
-62.2571088403839

> <r_i_glide_energy>
-44.7659268379211

> <r_i_glide_einternal>
5.57518911361694

> <i_i_glide_confnum>
90

> <i_i_glide_posenum>
167

> <r_i_glide_eff_state_penalty>
0

> <s_user_duplicate_titles>
CHEMBL301_lig228,131436

> <s_m_subgroup_title>
dock_pv

> <s_m_subgroupid>
dock_pv

> <b_m_subgroup_collapsed>
1

$$$$
CHEMBL301_lig1395
                    3D
 Schrodinger Suite 2021-1.
 40 41  0  0  1  0            999 V2000
   -0.2844   27.0580   10.3074 C   0  0  0  0  0  0
   -0.4068   28.1740   11.3614 C   0  0  2  0  0  0
   -0.8369   27.6363   12.7436 C   0  0  0  0  0  0
    0.0580   26.6630   13.2504 O   0  0  0  0  0  0
   -1.5416   29.4962   10.8376 S   0  0  0  0  0  0
   -0.7606   30.5494    9.6445 C   0  0  0  0  0  0
    0.2696   30.0437    8.9121 N   0  0  0  0  0  0
    0.8580   30.8776    8.0118 C   0  0  0  0  0  0
    1.9708   30.4560    7.2729 N   0  0  0  0  0  0
    2.8612   29.3788    7.3994 C   0  0  0  0  0  0
    3.6313   29.0468    6.2856 C   0  0  0  0  0  0
    4.5451   27.9973    6.3313 C   0  0  0  0  0  0
    4.6909   27.2620    7.5077 C   0  0  0  0  0  0
    3.9367   27.6003    8.6318 C   0  0  0  0  0  0
    3.0271   28.6529    8.5804 C   0  0  0  0  0  0
    5.7727   25.8308    7.5860 S   0  0  1  0  0  0
    6.8580   26.2513    8.5760 N   0  0  0  0  0  0
    4.9446   24.6332    7.7506 O   0  0  0  0  0  0
    6.7340   25.7279    5.9732 C   0  0  0  0  0  0
    0.4781   32.1591    7.7761 N   0  0  0  0  0  0
   -0.5265   32.6510    8.5467 C   0  0  0  0  0  0
   -1.1865   31.8788    9.5008 C   0  0  0  0  0  0
   -2.5830   32.6517   10.5486 Br  0  0  0  0  0  0
    0.3870   26.2634   10.6335 H   0  0  0  0  0  0
   -1.2530   26.6066   10.0894 H   0  0  0  0  0  0
    0.1178   27.4480    9.3759 H   0  0  0  0  0  0
    0.5742   28.6397   11.4724 H   0  0  0  0  0  0
   -1.8336   27.1954   12.6877 H   0  0  0  0  0  0
   -0.9009   28.4573   13.4581 H   0  0  0  0  0  0
    0.9422   27.0517   13.3366 H   0  0  0  0  0  0
    2.2732   31.1348    6.5922 H   0  0  0  0  0  0
    3.5300   29.6138    5.3752 H   0  0  0  0  0  0
    5.1213   27.7638    5.4488 H   0  0  0  0  0  0
    4.0516   27.0483    9.5509 H   0  0  0  0  0  0
    2.4651   28.8983    9.4670 H   0  0  0  0  0  0
    6.4781   26.2519    9.5263 H   0  0  0  0  0  0
    7.2898   26.6517    5.8252 H   0  0  0  0  0  0
    7.4276   24.8918    6.0424 H   0  0  0  0  0  0
    6.0382   25.5624    5.1525 H   0  0  0  0  0  0
   -0.8020   33.6812    8.3710 H   0  0  0  0  0  0
  1  2  1  0  0  0
  1 24  1  0  0  0
  1 25  1  0  0  0
  1 26  1  0  0  0
  2  3  1  0  0  0
  2  5  1  0  0  0
  2 27  1  0  0  0
  3  4  1  0  0  0
  3 28  1  0  0  0
  3 29  1  0  0  0
  4 30  1  0  0  0
  5  6  1  0  0  0
  6  7  2  0  0  0
  6 22  1  0  0  0
  7  8  1  0  0  0
  8  9  1  0  0  0
  8 20  2  0  0  0
  9 10  1  0  0  0
  9 31  1  0  0  0
 10 11  2  0  0  0
 10 15  1  0  0  0
 11 12  1  0  0  0
 11 32  1  0  0  0
 12 13  2  0  0  0
 12 33  1  0  0  0
 13 14  1  0  0  0
 13 16  1  0  0  0
 14 15  2  0  0  0
 14 34  1  0  0  0
 15 35  1  0  0  0
 16 17  2  0  0  0
 16 18  2  0  0  0
 16 19  1  0  0  0
 17 36  1  0  0  0
 19 37  1  0  0  0
 19 38  1  0  0  0
 19 39  1  0  0  0
 20 21  1  0  0  0
 21 22  2  0  0  0
 21 40  1  0  0  0
 22 23  1  0  0  0
M  END
> <s_m_entry_id>
32868

> <s_m_entry_name>
dock_pv.269

> <s_m_Source_Path>
/home/csk/Desktop/cluster/DUD-E-result/cdk2

> <s_m_Source_File>
dock_pv.maegz

> <i_m_Source_File_Index>
269

> <chembl_id>
CHEMBL3648106

> <chembl_pref_name>
None

> <i_lp_mmshare_version>
53161

> <i_f3d_flags>
0

> <r_lp_tautomer_probability>
0.999999987636

> <s_lp_Force_Field>
OPLS_2005

> <r_lp_Energy>
-0.218441

> <b_lp_Chiralities_Consistent>
1

> <s_lp_Variant>
CHEMBL301_lig1395-3

> <s_i_glide_gridfile>
glide-grid_1h00

> <i_i_glide_lignum>
1892

> <i_i_glide_rotatable_bonds>
7

> <r_i_docking_score>
-7.57948907251248

> <r_i_glide_ligand_efficiency>
-0.329543003152717

> <r_i_glide_ligand_efficiency_sa>
-0.937176464127628

> <r_i_glide_ligand_efficiency_ln>
-1.83278918474066

> <r_i_glide_gscore>
-7.57948907251248

> <r_i_glide_lipo>
-2.60647886122692

> <r_i_glide_hbond>
-0.485748271913895

> <r_i_glide_metal>
0

> <r_i_glide_rewards>
-1.45932765829811

> <r_i_glide_evdw>
-37.9301872253418

> <r_i_glide_ecoul>
-11.3252267837524

> <r_i_glide_erotb>
0.567359097756403

> <r_i_glide_esite>
0

> <r_i_glide_emodel>
-69.9475540138502

> <r_i_glide_energy>
-49.2554140090942

> <r_i_glide_einternal>
6.29141521453857

> <i_i_glide_confnum>
69

> <i_i_glide_posenum>
94

> <r_i_glide_eff_state_penalty>
0

> <s_user_duplicate_titles>
CHEMBL301_lig1395

> <s_m_subgroup_title>
dock_pv

> <s_m_subgroupid>
dock_pv

> <b_m_subgroup_collapsed>
1

$$$$
CHEMBL301_lig669
                    3D
 Schrodinger Suite 2021-1.
 34 36  0  0  1  0            999 V2000
    0.1512   30.5672    8.4420 C   0  0  0  0  0  0
   -0.6058   31.7231    8.5760 C   0  0  0  0  0  0
    0.1388   32.6638    7.9187 N   0  0  0  0  0  0
    1.2606   32.1897    7.3753 N   0  0  0  0  0  0
    1.3120   30.9258    7.7237 C   0  0  0  0  0  0
    2.4121   30.1537    7.3664 N   0  0  0  0  0  0
    2.8580   29.0862    8.0665 C   0  0  0  0  0  0
    3.9954   28.2877    7.4671 C   0  0  0  0  0  0
    2.3723   28.7289    9.1426 O   0  0  0  0  0  0
   -1.9270   32.0582    9.2287 C   0  0  0  0  0  0
    4.2341   28.2512    6.0846 C   0  0  0  0  0  0
    5.1775   27.3705    5.5560 C   0  0  0  0  0  0
    5.9110   26.5205    6.3996 C   0  0  0  0  0  0
    5.6859   26.5788    7.7759 C   0  0  0  0  0  0
    4.7455   27.4555    8.3000 C   0  0  0  0  0  0
   -3.0244   31.0281    9.3510 C   0  0  0  0  0  0
   -2.2589   31.4818   10.5759 C   0  0  0  0  0  0
    6.9147   25.5294    5.8602 C   0  0  0  0  0  0
    7.5343   25.8520    4.7265 N   0  0  0  0  0  0
    7.1703   24.4821    6.4514 O   0  0  0  0  0  0
   -0.0895   29.5922    8.8389 H   0  0  0  0  0  0
   -0.1282   33.6337    7.8069 H   0  0  0  0  0  0
    3.0502   30.5567    6.6919 H   0  0  0  0  0  0
   -2.2610   33.0796    9.0453 H   0  0  0  0  0  0
    3.6643   28.8671    5.4037 H   0  0  0  0  0  0
    5.3203   27.3464    4.4850 H   0  0  0  0  0  0
    6.2250   25.9351    8.4580 H   0  0  0  0  0  0
    4.5781   27.4520    9.3690 H   0  0  0  0  0  0
   -4.0571   31.3521    9.2226 H   0  0  0  0  0  0
   -2.8559   30.0205    8.9761 H   0  0  0  0  0  0
   -1.5575   30.7903   11.0437 H   0  0  0  0  0  0
   -2.7444   32.1294   11.3073 H   0  0  0  0  0  0
    7.4808   26.8025    4.3893 H   0  0  0  0  0  0
    8.2022   25.2103    4.3281 H   0  0  0  0  0  0
  1  5  1  0  0  0
  1  2  2  0  0  0
  1 21  1  0  0  0
  2 10  1  0  0  0
  2  3  1  0  0  0
  3  4  1  0  0  0
  3 22  1  0  0  0
  4  5  2  0  0  0
  5  6  1  0  0  0
  6  7  1  0  0  0
  6 23  1  0  0  0
  7  8  1  0  0  0
  7  9  2  0  0  0
  8 11  2  0  0  0
  8 15  1  0  0  0
 10 16  1  0  0  0
 10 17  1  0  0  0
 10 24  1  0  0  0
 11 12  1  0  0  0
 11 25  1  0  0  0
 12 13  2  0  0  0
 12 26  1  0  0  0
 13 14  1  0  0  0
 13 18  1  0  0  0
 14 15  2  0  0  0
 14 27  1  0  0  0
 15 28  1  0  0  0
 16 17  1  0  0  0
 16 29  1  0  0  0
 16 30  1  0  0  0
 17 31  1  0  0  0
 17 32  1  0  0  0
 18 19  1  0  0  0
 18 20  2  0  0  0
 19 33  1  0  0  0
 19 34  1  0  0  0
M  END
> <s_m_entry_id>
32869

> <s_m_entry_name>
dock_pv.270

> <s_m_Source_Path>
/home/csk/Desktop/cluster/DUD-E-result/cdk2

> <s_m_Source_File>
dock_pv.maegz

> <i_m_Source_File_Index>
270

> <chembl_id>
CHEMBL325606

> <chembl_pref_name>
None

> <i_lp_mmshare_version>
53161

> <i_f3d_flags>
0

> <r_lp_tautomer_probability>
0.5

> <s_lp_Force_Field>
OPLS_2005

> <r_lp_Energy>
15.247774

> <b_lp_Chiralities_Consistent>
1

> <s_lp_Variant>
CHEMBL301_lig669-1

> <s_i_glide_gridfile>
glide-grid_1h00

> <i_i_glide_lignum>
922

> <i_i_glide_rotatable_bonds>
5

> <r_i_docking_score>
-7.57596755145381

> <r_i_glide_ligand_efficiency>
-0.378798377572691

> <r_i_glide_ligand_efficiency_sa>
-1.02821698819413

> <r_i_glide_ligand_efficiency_ln>
-1.89601480599585

> <r_i_glide_gscore>
-7.57596755145381

> <r_i_glide_lipo>
-2.12337025720721

> <r_i_glide_hbond>
-0.566794047049464

> <r_i_glide_metal>
0

> <r_i_glide_rewards>
-3.13800358371276

> <r_i_glide_evdw>
-32.8785858154297

> <r_i_glide_ecoul>
-7.01087236404419

> <r_i_glide_erotb>
0.979182573328998

> <r_i_glide_esite>
-0.0314220914352623

> <r_i_glide_emodel>
-54.3976601632244

> <r_i_glide_energy>
-39.8894581794739

> <r_i_glide_einternal>
3.20261311531067

> <i_i_glide_confnum>
4

> <i_i_glide_posenum>
1

> <r_i_glide_eff_state_penalty>
0

> <s_user_duplicate_titles>
CHEMBL301_lig669,186861

> <s_m_subgroup_title>
dock_pv

> <s_m_subgroupid>
dock_pv

> <b_m_subgroup_collapsed>
1

$$$$
CHEMBL301_lig690
                    3D
 Schrodinger Suite 2021-1.
 37 39  0  0  1  0            999 V2000
    0.2890   30.3409    8.4193 C   0  0  0  0  0  0
   -0.5580   31.4279    8.5769 C   0  0  0  0  0  0
    0.1053   32.4440    7.9394 N   0  0  0  0  0  0
    1.2573   32.0698    7.3753 N   0  0  0  0  0  0
    1.4111   30.8091    7.7099 C   0  0  0  0  0  0
    2.5924   30.1699    7.3772 N   0  0  0  0  0  0
    3.1344   29.1343    8.0538 C   0  0  0  0  0  0
    4.5514   28.7127    7.6361 C   0  0  0  0  0  0
    2.5802   28.5364    8.9771 O   0  0  0  0  0  0
   -1.8859   31.6382    9.2670 C   0  0  0  0  0  0
   -2.7870   30.4728    9.6005 C   0  0  0  0  0  0
   -2.0560   31.2101   10.7019 C   0  0  0  0  0  0
    4.5626   27.3461    6.9631 C   0  0  0  0  0  0
    4.5922   27.2538    5.5716 C   0  0  0  0  0  0
    4.5428   26.0070    4.9534 C   0  0  0  0  0  0
    4.4623   24.8344    5.7218 C   0  0  0  0  0  0
    4.4570   24.9410    7.1198 C   0  0  0  0  0  0
    4.5004   26.1860    7.7367 C   0  0  0  0  0  0
    4.3698   23.4643    5.0834 C   0  0  0  0  0  0
    4.4999   22.4333    5.7407 O   0  0  0  0  0  0
    4.1153   23.4006    3.7760 N   0  0  0  0  0  0
    0.1411   29.3483    8.8103 H   0  0  0  0  0  0
   -0.2404   33.3900    7.8596 H   0  0  0  0  0  0
    3.1898   30.6487    6.7144 H   0  0  0  0  0  0
    5.1837   28.6915    8.5257 H   0  0  0  0  0  0
    5.0044   29.4516    6.9765 H   0  0  0  0  0  0
   -2.3885   32.5648    8.9833 H   0  0  0  0  0  0
   -3.8642   30.6023    9.5005 H   0  0  0  0  0  0
   -2.4682   29.4553    9.3760 H   0  0  0  0  0  0
   -1.2324   30.7043   11.2095 H   0  0  0  0  0  0
   -2.6253   31.8526   11.3736 H   0  0  0  0  0  0
    4.6453   28.1471    4.9655 H   0  0  0  0  0  0
    4.5664   25.9683    3.8735 H   0  0  0  0  0  0
    4.3887   24.0581    7.7407 H   0  0  0  0  0  0
    4.4611   26.2519    8.8157 H   0  0  0  0  0  0
    4.0154   22.4971    3.3422 H   0  0  0  0  0  0
    4.0618   24.2252    3.1926 H   0  0  0  0  0  0
  1  5  1  0  0  0
  1  2  2  0  0  0
  1 22  1  0  0  0
  2  3  1  0  0  0
  2 10  1  0  0  0
  3  4  1  0  0  0
  3 23  1  0  0  0
  4  5  2  0  0  0
  5  6  1  0  0  0
  6  7  1  0  0  0
  6 24  1  0  0  0
  7  8  1  0  0  0
  7  9  2  0  0  0
  8 13  1  0  0  0
  8 25  1  0  0  0
  8 26  1  0  0  0
 10 11  1  0  0  0
 10 12  1  0  0  0
 10 27  1  0  0  0
 11 12  1  0  0  0
 11 28  1  0  0  0
 11 29  1  0  0  0
 12 30  1  0  0  0
 12 31  1  0  0  0
 13 14  2  0  0  0
 13 18  1  0  0  0
 14 15  1  0  0  0
 14 32  1  0  0  0
 15 16  2  0  0  0
 15 33  1  0  0  0
 16 17  1  0  0  0
 16 19  1  0  0  0
 17 18  2  0  0  0
 17 34  1  0  0  0
 18 35  1  0  0  0
 19 20  2  0  0  0
 19 21  1  0  0  0
 21 36  1  0  0  0
 21 37  1  0  0  0
M  END
> <s_m_entry_id>
32870

> <s_m_entry_name>
dock_pv.271

> <s_m_Source_Path>
/home/csk/Desktop/cluster/DUD-E-result/cdk2

> <s_m_Source_File>
dock_pv.maegz

> <i_m_Source_File_Index>
271

> <chembl_id>
CHEMBL324577

> <chembl_pref_name>
None

> <i_lp_mmshare_version>
53161

> <i_f3d_flags>
0

> <r_lp_tautomer_probability>
0.5

> <s_lp_Force_Field>
OPLS_2005

> <r_lp_Energy>
13.742699

> <b_lp_Chiralities_Consistent>
1

> <s_lp_Variant>
CHEMBL301_lig690-1

> <s_i_glide_gridfile>
glide-grid_1h00

> <i_i_glide_lignum>
964

> <i_i_glide_rotatable_bonds>
6

> <r_i_docking_score>
-7.57026781364261

> <r_i_glide_ligand_efficiency>
-0.360488943506791

> <r_i_glide_ligand_efficiency_sa>
-0.994561660549653

> <r_i_glide_ligand_efficiency_ln>
-1.87173341975666

> <r_i_glide_gscore>
-7.57026781364261

> <r_i_glide_lipo>
-2.46957490240118

> <r_i_glide_hbond>
-0.344118950430523

> <r_i_glide_metal>
0

> <r_i_glide_rewards>
-3.12708665879891

> <r_i_glide_evdw>
-32.6604766845703

> <r_i_glide_ecoul>
-7.03320169448853

> <r_i_glide_erotb>
1.12112470639453

> <r_i_glide_esite>
-0.0626079200047412

> <r_i_glide_emodel>
-56.2874520801024

> <r_i_glide_energy>
-39.6936783790588

> <r_i_glide_einternal>
4.19992256164551

> <i_i_glide_confnum>
7

> <i_i_glide_posenum>
394

> <r_i_glide_eff_state_penalty>
0

> <s_user_duplicate_titles>
CHEMBL301_lig690,CHEMBL301_lig690,187205

> <s_m_subgroup_title>
dock_pv

> <s_m_subgroupid>
dock_pv

> <b_m_subgroup_collapsed>
1

$$$$
CHEMBL301_lig1312
                    3D
 Schrodinger Suite 2021-1.
 55 59  0  0  1  0            999 V2000
    0.1168   30.0229    9.1275 C   0  0  0  0  0  0
   -0.6978   29.2768   10.0365 N   0  0  0  0  0  0
    1.3097   29.5128    8.7166 N   0  0  0  0  0  0
   -1.9904   29.6362   10.3558 C   0  0  0  0  0  0
   -0.3487   31.2518    8.6346 C   0  0  0  0  0  0
   -2.4510   30.8976    9.7848 C   0  0  0  0  0  0
    2.0272   30.2520    7.8350 C   0  0  0  0  0  0
   -1.6873   31.6840    9.0077 C   0  0  0  0  0  0
    1.6578   31.4631    7.3447 N   0  0  0  0  0  0
    5.5241   24.7040    6.9218 N   0  0  0  0  0  0
    0.4755   31.9664    7.7759 C   0  0  0  0  0  0
    3.2579   29.7947    7.3761 N   0  0  0  0  0  0
    5.0257   25.9955    7.0712 C   0  0  0  0  0  0
   -0.1019   28.0455   10.6476 C   0  0  0  0  0  0
   -2.7409   28.9742   11.0675 O   0  0  0  0  0  0
    5.3078   22.9294    4.5684 N   0  0  0  0  0  0
   -4.2873   31.4519   10.1760 Br  0  0  0  0  0  0
    4.2298   26.3020    8.1790 C   0  0  0  0  0  0
    5.2584   26.9957    6.1210 C   0  0  0  0  0  0
    3.8688   28.5368    7.3587 C   0  0  0  0  0  0
    3.6734   27.5689    8.3446 C   0  0  0  0  0  0
    4.6810   28.2518    6.2633 C   0  0  0  0  0  0
    6.6768   24.3865    6.0563 C   0  0  0  0  0  0
    4.5658   23.5867    6.8360 C   0  0  0  0  0  0
    4.1475   23.2961    5.3738 C   0  0  0  0  0  0
    6.2747   24.0237    4.6016 C   0  0  0  0  0  0
   -0.0870   28.0237   12.1952 C   0  0  0  0  0  0
   -0.7599   26.7162   10.2062 C   0  0  0  0  0  0
   -1.2766   26.0524   11.4878 C   0  0  0  0  0  0
   -0.3422   26.5658   12.5836 C   0  0  0  0  0  0
   -2.0930   32.6103    8.6240 H   0  0  0  0  0  0
    0.1799   32.9273    7.3759 H   0  0  0  0  0  0
    3.7262   30.4731    6.7779 H   0  0  0  0  0  0
    0.9493   27.9081   10.3931 H   0  0  0  0  0  0
    5.0231   22.7658    3.6105 H   0  0  0  0  0  0
    4.0535   25.5567    8.9409 H   0  0  0  0  0  0
    5.8720   26.8094    5.2534 H   0  0  0  0  0  0
    3.0785   27.7709    9.2210 H   0  0  0  0  0  0
    4.8546   28.9995    5.5020 H   0  0  0  0  0  0
    7.3823   25.2185    6.0522 H   0  0  0  0  0  0
    7.2142   23.5441    6.4933 H   0  0  0  0  0  0
    5.0208   22.6942    7.2685 H   0  0  0  0  0  0
    3.6724   23.7893    7.4291 H   0  0  0  0  0  0
    3.4131   22.4911    5.3321 H   0  0  0  0  0  0
    3.6577   24.1658    4.9324 H   0  0  0  0  0  0
    7.1523   23.7314    4.0243 H   0  0  0  0  0  0
    5.8610   24.8872    4.0786 H   0  0  0  0  0  0
   -0.8664   28.6410   12.6423 H   0  0  0  0  0  0
    0.8523   28.4163   12.5809 H   0  0  0  0  0  0
    0.0013   26.0643    9.7759 H   0  0  0  0  0  0
   -1.5421   26.8388    9.4580 H   0  0  0  0  0  0
   -2.3007   26.3718   11.6895 H   0  0  0  0  0  0
   -1.2843   24.9641   11.4200 H   0  0  0  0  0  0
   -0.7776   26.4721   13.5793 H   0  0  0  0  0  0
    0.5958   26.0071   12.5765 H   0  0  0  0  0  0
  1  2  1  0  0  0
  1  3  2  0  0  0
  1  5  1  0  0  0
  2  4  1  0  0  0
  2 14  1  0  0  0
  3  7  1  0  0  0
  4 15  2  0  0  0
  4  6  1  0  0  0
  5  8  1  0  0  0
  5 11  2  0  0  0
  6  8  2  0  0  0
  6 17  1  0  0  0
  7 12  1  0  0  0
  7  9  2  0  0  0
  8 31  1  0  0  0
  9 11  1  0  0  0
 10 13  1  0  0  0
 10 23  1  0  0  0
 10 24  1  0  0  0
 11 32  1  0  0  0
 12 20  1  0  0  0
 12 33  1  0  0  0
 13 19  1  0  0  0
 13 18  2  0  0  0
 14 27  1  0  0  0
 14 28  1  0  0  0
 14 34  1  0  0  0
 16 25  1  0  0  0
 16 26  1  0  0  0
 16 35  1  0  0  0
 18 21  1  0  0  0
 18 36  1  0  0  0
 19 22  2  0  0  0
 19 37  1  0  0  0
 20 21  2  0  0  0
 20 22  1  0  0  0
 21 38  1  0  0  0
 22 39  1  0  0  0
 23 26  1  0  0  0
 23 40  1  0  0  0
 23 41  1  0  0  0
 24 25  1  0  0  0
 24 42  1  0  0  0
 24 43  1  0  0  0
 25 44  1  0  0  0
 25 45  1  0  0  0
 26 46  1  0  0  0
 26 47  1  0  0  0
 27 30  1  0  0  0
 27 48  1  0  0  0
 27 49  1  0  0  0
 28 29  1  0  0  0
 28 50  1  0  0  0
 28 51  1  0  0  0
 29 30  1  0  0  0
 29 52  1  0  0  0
 29 53  1  0  0  0
 30 54  1  0  0  0
 30 55  1  0  0  0
M  END
> <s_m_entry_id>
32871

> <s_m_entry_name>
dock_pv.272

> <s_m_Source_Path>
/home/csk/Desktop/cluster/DUD-E-result/cdk2

> <s_m_Source_File>
dock_pv.maegz

> <i_m_Source_File_Index>
272

> <chembl_id>
CHEMBL190281

> <chembl_pref_name>
None

> <i_lp_mmshare_version>
53161

> <i_f3d_flags>
0

> <r_lp_tautomer_probability>
1

> <s_lp_Force_Field>
OPLS_2005

> <r_lp_Energy>
64.111837

> <b_lp_Chiralities_Consistent>
1

> <s_lp_Variant>
CHEMBL301_lig1312-1

> <s_i_glide_gridfile>
glide-grid_1h00

> <i_i_glide_lignum>
1728

> <i_i_glide_rotatable_bonds>
4

> <r_i_docking_score>
-7.56929422936719

> <r_i_glide_ligand_efficiency>
-0.252309807645573

> <r_i_glide_ligand_efficiency_sa>
-0.783985234998461

> <r_i_glide_ligand_efficiency_ln>
-1.71982612297851

> <r_i_glide_gscore>
-7.56929422936719

> <r_i_glide_lipo>
-2.62705704219928

> <r_i_glide_hbond>
-0.32

> <r_i_glide_metal>
0

> <r_i_glide_rewards>
-2.00351359428085

> <r_i_glide_evdw>
-40.3217964172363

> <r_i_glide_ecoul>
-6.46218347549438

> <r_i_glide_erotb>
0.366693749298904

> <r_i_glide_esite>
0

> <r_i_glide_emodel>
-62.9027220575319

> <r_i_glide_energy>
-46.7839798927307

> <r_i_glide_einternal>
6.65364551544189

> <i_i_glide_confnum>
7

> <i_i_glide_posenum>
162

> <r_i_glide_eff_state_penalty>
0

> <s_user_duplicate_titles>
CHEMBL301_lig1312,320121

> <s_m_subgroup_title>
dock_pv

> <s_m_subgroupid>
dock_pv

> <b_m_subgroup_collapsed>
1

$$$$
CHEMBL301_lig7
                    3D
 Schrodinger Suite 2021-1.
 53 55  0  0  1  0            999 V2000
    1.7240   28.2519    9.8899 N   0  0  0  0  0  0
    2.8150   27.5019    9.6663 C   0  0  0  0  0  0
    3.7209   27.6045    8.6857 N   0  0  0  0  0  0
    3.5687   28.5981    7.7760 C   0  0  0  0  0  0
    1.6091   29.2533    8.9760 C   0  0  0  0  0  0
    2.4689   29.4785    7.9127 C   0  0  0  0  0  0
    2.0585   30.5182    7.1647 N   0  0  0  0  0  0
    0.9922   30.9554    7.7758 C   0  0  0  0  0  0
    0.6460   30.2237    8.8527 N   0  0  0  0  0  0
    4.4757   28.6520    6.7255 N   0  0  0  0  0  0
   -0.5304   30.5132    9.7648 C   0  0  2  0  0  0
   -0.7866   29.4379   10.6074 O   0  0  0  0  0  0
   -2.0894   29.5666   11.1286 C   0  0  1  0  0  0
   -2.8537   30.0621    9.8965 C   0  0  2  0  0  0
   -1.8241   30.7583    9.0114 C   0  0  1  0  0  0
   -3.9420   30.9110   10.1760 O   0  0  0  0  0  0
   -1.9680   32.1625    8.8387 O   0  0  0  0  0  0
   -2.5228   28.2288   11.7706 C   0  0  0  0  0  0
   -1.9414   27.0934   11.1222 O   0  0  0  0  0  0
   -1.0546   26.0555   12.0160 P   0  0  1  0  0  0
   -0.2050   25.1761   10.9531 O   0  0  0  0  0  0
    0.0580   27.0330   12.6563 O   0  0  0  0  0  0
   -1.8157   25.2604   13.0165 O   0  0  0  0  0  0
    1.1156   24.0905   10.9896 P   0  0  1  0  0  0
    0.3743   22.5554   11.0006 O   0  0  0  0  0  0
    1.9751   24.2241    9.5216 O   0  0  0  0  0  0
    2.0270   24.2780   12.1758 O   0  0  0  0  0  0
    0.3544   21.2213   11.9174 P   0  0  1  0  0  0
    1.3176   20.1327   11.0507 N   0  0  3  0  0  0
    0.6983   21.4531   13.3449 O   0  0  0  0  0  0
   -1.1420   20.6520   11.6808 O   0  0  0  0  0  0
    2.7756   20.1689   11.0478 C   0  0  0  0  0  0
    3.2273   20.9093    9.8578 C   0  0  0  0  0  0
    3.5828   21.5265    8.8654 C   0  0  0  0  0  0
    2.9823   26.6985   10.3697 H   0  0  0  0  0  0
    0.4048   31.8127    7.4776 H   0  0  0  0  0  0
    4.5440   29.5433    6.2432 H   0  0  0  0  0  0
    5.2619   28.0211    6.7626 H   0  0  0  0  0  0
   -0.3258   31.3563   10.4232 H   0  0  0  0  0  0
   -2.0693   30.3492   11.8879 H   0  0  0  0  0  0
   -3.2281   29.2106    9.3533 H   0  0  0  0  0  0
   -1.7694   30.2534    8.0493 H   0  0  0  0  0  0
   -3.9677   31.0525   11.1377 H   0  0  0  0  0  0
   -2.9018   32.3422    8.6882 H   0  0  0  0  0  0
   -3.6090   28.1375   11.7758 H   0  0  0  0  0  0
   -2.2299   28.2516   12.8221 H   0  0  0  0  0  0
    0.6073   27.5166   12.0067 H   0  0  0  0  0  0
    1.6068   24.0141    8.6346 H   0  0  0  0  0  0
    0.8734   19.4278   10.4624 H   0  0  0  0  0  0
   -1.3295   19.7481   12.0528 H   0  0  0  0  0  0
    3.1696   19.1525   11.0122 H   0  0  0  0  0  0
    3.1465   20.6534   11.9520 H   0  0  0  0  0  0
    3.8632   22.0752    7.9929 H   0  0  0  0  0  0
  1  2  2  0  0  0
  1  5  1  0  0  0
  2  3  1  0  0  0
  2 35  1  0  0  0
  3  4  2  0  0  0
  4  6  1  0  0  0
  4 10  1  0  0  0
  5  9  1  0  0  0
  5  6  2  0  0  0
  6  7  1  0  0  0
  7  8  2  0  0  0
  8  9  1  0  0  0
  8 36  1  0  0  0
  9 11  1  0  0  0
 10 37  1  0  0  0
 10 38  1  0  0  0
 11 12  1  0  0  0
 11 15  1  0  0  0
 11 39  1  0  0  0
 12 13  1  0  0  0
 13 18  1  0  0  0
 13 14  1  0  0  0
 13 40  1  0  0  0
 14 16  1  0  0  0
 14 15  1  0  0  0
 14 41  1  0  0  0
 15 17  1  0  0  0
 15 42  1  0  0  0
 16 43  1  0  0  0
 17 44  1  0  0  0
 18 19  1  0  0  0
 18 45  1  0  0  0
 18 46  1  0  0  0
 19 20  1  0  0  0
 20 21  1  0  0  0
 20 22  1  0  0  0
 20 23  2  0  0  0
 21 24  1  0  0  0
 22 47  1  0  0  0
 24 25  1  0  0  0
 24 26  1  0  0  0
 24 27  2  0  0  0
 25 28  1  0  0  0
 26 48  1  0  0  0
 28 29  1  0  0  0
 28 30  2  0  0  0
 28 31  1  0  0  0
 29 32  1  0  0  0
 29 49  1  0  0  0
 31 50  1  0  0  0
 32 33  1  0  0  0
 32 51  1  0  0  0
 32 52  1  0  0  0
 33 34  3  0  0  0
 34 53  1  0  0  0
M  END
> <s_m_entry_id>
32872

> <s_m_entry_name>
dock_pv.273

> <s_m_Source_Path>
/home/csk/Desktop/cluster/DUD-E-result/cdk2

> <s_m_Source_File>
dock_pv.maegz

> <i_m_Source_File_Index>
273

> <chembl_id>
CHEMBL557670

> <chembl_pref_name>
None

> <i_lp_mmshare_version>
53161

> <i_f3d_flags>
0

> <r_lp_tautomer_probability>
0.999997216410988

> <s_lp_Force_Field>
OPLS_2005

> <r_lp_Energy>
25.893568

> <b_lp_Chiralities_Consistent>
1

> <s_lp_Variant>
CHEMBL301_lig7-4

> <s_i_glide_gridfile>
glide-grid_1h00

> <i_i_glide_lignum>
11

> <i_i_glide_rotatable_bonds>
16

> <r_i_docking_score>
-7.56277888380056

> <r_i_glide_ligand_efficiency>
-0.222434673052958

> <r_i_glide_ligand_efficiency_sa>
-0.720601990988626

> <r_i_glide_ligand_efficiency_ln>
-1.67082998419395

> <r_i_glide_gscore>
-7.56277888380056

> <r_i_glide_lipo>
-0.983486886423234

> <r_i_glide_hbond>
-0.32

> <r_i_glide_metal>
0

> <r_i_glide_rewards>
-1.31381593035096

> <r_i_glide_evdw>
-41.4413757324219

> <r_i_glide_ecoul>
-23.7560710906982

> <r_i_glide_erotb>
0.768624783623472

> <r_i_glide_esite>
-0.078621400424008

> <r_i_glide_emodel>
-91.3708045494741

> <r_i_glide_energy>
-65.1974468231201

> <r_i_glide_einternal>
15.633074760437

> <i_i_glide_confnum>
250

> <i_i_glide_posenum>
144

> <r_i_glide_eff_state_penalty>
0

> <s_user_duplicate_titles>
CHEMBL301_lig7

> <s_m_subgroup_title>
dock_pv

> <s_m_subgroupid>
dock_pv

> <b_m_subgroup_collapsed>
1

$$$$
CHEMBL301_lig1092
                    3D
 Schrodinger Suite 2021-1.
 53 56  0  0  1  0            999 V2000
   -0.9647   31.8509    9.0947 C   0  0  0  0  0  0
   -0.3405   32.7064    8.1801 C   0  0  0  0  0  0
    0.7732   32.4066    7.4661 N   0  0  0  0  0  0
   -0.4241   30.5753    9.3461 C   0  0  0  0  0  0
   -1.0661   29.7557   10.2932 N   0  0  0  0  0  0
   -0.3004   28.8797   11.1663 C   0  0  0  0  0  0
    0.7745   30.2519    8.6590 C   0  0  0  0  0  0
    1.2594   31.1990    7.7246 C   0  0  0  0  0  0
    2.4037   30.6521    7.2158 N   0  0  0  0  0  0
    2.5809   29.4455    7.8347 C   0  0  0  0  0  0
    1.6590   29.1999    8.7439 N   0  0  0  0  0  0
    3.6586   28.5024    7.4218 C   0  0  0  0  0  0
    4.2188   27.5897    8.3177 C   0  0  0  0  0  0
    5.1730   26.6765    7.8745 C   0  0  0  0  0  0
    5.5767   26.6504    6.5411 C   0  0  0  0  0  0
    5.0047   27.5588    5.6408 C   0  0  0  0  0  0
    4.0656   28.4843    6.0821 C   0  0  0  0  0  0
    6.5385   25.7177    6.2062 O   0  0  0  0  0  0
    7.0500   25.6992    4.8751 C   0  0  0  0  0  0
   -2.5093   32.4807   10.0203 Br  0  0  0  0  0  0
   -1.1887   28.1941   12.2196 C   0  0  0  0  0  0
   -0.4223   27.2786   13.1871 C   0  0  0  0  0  0
    0.0575   26.0522   12.5478 N   0  0  0  0  0  0
   -0.3968   24.8115   12.8097 C   0  0  0  0  0  0
    0.2095   23.6703   12.0174 C   0  0  0  0  0  0
   -1.2652   24.5940   13.6622 O   0  0  0  0  0  0
   -0.2125   22.3549   12.2735 C   0  0  0  0  0  0
    0.3198   21.2839   11.5609 C   0  0  0  0  0  0
    1.2813   21.5176   10.5824 C   0  0  0  0  0  0
    1.7129   22.8120   10.3096 C   0  0  0  0  0  0
    1.1815   23.8853   11.0228 C   0  0  0  0  0  0
   -0.7437   33.6955    8.0088 H   0  0  0  0  0  0
   -1.8212   30.2342   10.7665 H   0  0  0  0  0  0
    0.4886   29.4539   11.6566 H   0  0  0  0  0  0
    0.2414   28.1359   10.5834 H   0  0  0  0  0  0
    3.0670   31.0345    6.5509 H   0  0  0  0  0  0
    3.9138   27.5773    9.3556 H   0  0  0  0  0  0
    5.6076   25.9766    8.5753 H   0  0  0  0  0  0
    5.2978   27.5742    4.6031 H   0  0  0  0  0  0
    3.6406   29.1753    5.3698 H   0  0  0  0  0  0
    7.8070   24.9195    4.7903 H   0  0  0  0  0  0
    6.2676   25.4752    4.1477 H   0  0  0  0  0  0
    7.5246   26.6483    4.6139 H   0  0  0  0  0  0
   -1.9877   27.6322   11.7344 H   0  0  0  0  0  0
   -1.6955   28.9670   12.8017 H   0  0  0  0  0  0
   -1.0283   27.0851   14.0753 H   0  0  0  0  0  0
    0.4565   27.8077   13.5564 H   0  0  0  0  0  0
    0.8393   26.1558   11.9178 H   0  0  0  0  0  0
   -0.9605   22.1455   13.0280 H   0  0  0  0  0  0
   -0.0158   20.2760   11.7672 H   0  0  0  0  0  0
    1.6868   20.6898   10.0211 H   0  0  0  0  0  0
    2.4401   22.9929    9.5305 H   0  0  0  0  0  0
    1.5315   24.8768   10.7729 H   0  0  0  0  0  0
  1  2  2  0  0  0
  1  4  1  0  0  0
  1 20  1  0  0  0
  2  3  1  0  0  0
  2 32  1  0  0  0
  3  8  2  0  0  0
  4  7  2  0  0  0
  4  5  1  0  0  0
  5  6  1  0  0  0
  5 33  1  0  0  0
  6 21  1  0  0  0
  6 34  1  0  0  0
  6 35  1  0  0  0
  7 11  1  0  0  0
  7  8  1  0  0  0
  8  9  1  0  0  0
  9 10  1  0  0  0
  9 36  1  0  0  0
 10 11  2  0  0  0
 10 12  1  0  0  0
 12 17  1  0  0  0
 12 13  2  0  0  0
 13 14  1  0  0  0
 13 37  1  0  0  0
 14 15  2  0  0  0
 14 38  1  0  0  0
 15 16  1  0  0  0
 15 18  1  0  0  0
 16 17  2  0  0  0
 16 39  1  0  0  0
 17 40  1  0  0  0
 18 19  1  0  0  0
 19 41  1  0  0  0
 19 42  1  0  0  0
 19 43  1  0  0  0
 21 22  1  0  0  0
 21 44  1  0  0  0
 21 45  1  0  0  0
 22 23  1  0  0  0
 22 46  1  0  0  0
 22 47  1  0  0  0
 23 24  1  0  0  0
 23 48  1  0  0  0
 24 25  1  0  0  0
 24 26  2  0  0  0
 25 27  2  0  0  0
 25 31  1  0  0  0
 27 28  1  0  0  0
 27 49  1  0  0  0
 28 29  2  0  0  0
 28 50  1  0  0  0
 29 30  1  0  0  0
 29 51  1  0  0  0
 30 31  2  0  0  0
 30 52  1  0  0  0
 31 53  1  0  0  0
M  END
> <s_m_entry_id>
32873

> <s_m_entry_name>
dock_pv.274

> <s_m_Source_Path>
/home/csk/Desktop/cluster/DUD-E-result/cdk2

> <s_m_Source_File>
dock_pv.maegz

> <i_m_Source_File_Index>
274

> <chembl_id>
CHEMBL2011937

> <chembl_pref_name>
None

> <i_lp_mmshare_version>
53161

> <i_f3d_flags>
0

> <r_lp_tautomer_probability>
1

> <s_lp_Force_Field>
OPLS_2005

> <r_lp_Energy>
28.454186

> <b_lp_Chiralities_Consistent>
1

> <s_lp_Variant>
CHEMBL301_lig1092-1

> <s_i_glide_gridfile>
glide-grid_1h00

> <i_i_glide_lignum>
1496

> <i_i_glide_rotatable_bonds>
9

> <r_i_docking_score>
-7.56084509958944

> <r_i_glide_ligand_efficiency>
-0.243898229019014

> <r_i_glide_ligand_efficiency_sa>
-0.766177176915842

> <r_i_glide_ligand_efficiency_ln>
-1.70520228203215

> <r_i_glide_gscore>
-7.56084509958944

> <r_i_glide_lipo>
-2.64617083308414

> <r_i_glide_hbond>
-0.32

> <r_i_glide_metal>
0

> <r_i_glide_rewards>
-1.86451097250644

> <r_i_glide_evdw>
-41.3309555053711

> <r_i_glide_ecoul>
-8.47499942779541

> <r_i_glide_erotb>
0.615183447100336

> <r_i_glide_esite>
-0.00754905166132916

> <r_i_glide_emodel>
-70.2727634471012

> <r_i_glide_energy>
-49.8059549331665

> <r_i_glide_einternal>
5.53908395767212

> <i_i_glide_confnum>
28

> <i_i_glide_posenum>
310

> <r_i_glide_eff_state_penalty>
0

> <s_user_duplicate_titles>
CHEMBL301_lig1092

> <s_m_subgroup_title>
dock_pv

> <s_m_subgroupid>
dock_pv

> <b_m_subgroup_collapsed>
1

$$$$
CHEMBL301_lig912
                    3D
 Schrodinger Suite 2021-1.
 30 34  0  0  1  0            999 V2000
    2.4341   26.7931   10.1754 C   0  0  0  0  0  0
    2.0427   28.9064    9.0048 C   0  0  0  0  0  0
    2.8401   27.8244    9.3203 C   0  0  0  0  0  0
    4.0319   27.9405    8.6782 O   0  0  0  0  0  0
    3.9542   29.0975    7.8935 C   0  0  0  0  0  0
    2.7315   29.7289    8.1705 O   0  0  0  0  0  0
    1.1516   26.8991   10.7256 C   0  0  0  0  0  0
   -0.8194   27.9107   11.1020 C   0  0  0  0  0  0
   -0.7989   26.7225   11.8309 N   0  0  0  0  0  0
    0.3598   26.0405   11.6623 C   0  0  0  0  0  0
    0.3653   27.9955   10.4220 C   0  0  0  0  0  0
    0.7350   29.0516    9.5677 C   0  0  0  0  0  0
   -1.7498   28.9368   10.9774 C   0  0  0  0  0  0
   -1.4584   30.0599   10.1372 C   0  0  0  0  0  0
   -0.2112   30.1029    9.4091 C   0  0  0  0  0  0
    0.0580   31.2219    8.5760 C   0  0  0  0  0  0
   -0.8032   32.3082    8.5649 C   0  0  0  0  0  0
   -2.0118   32.2528    9.2331 C   0  0  0  0  0  0
   -2.3642   31.1513    9.9938 C   0  0  0  0  0  0
    0.6626   24.9656   12.1754 O   0  0  0  0  0  0
   -3.6034   31.1782   10.5751 O   0  0  0  0  0  0
    3.0888   25.9637   10.3997 H   0  0  0  0  0  0
    3.9918   28.8246    6.8378 H   0  0  0  0  0  0
    4.7757   29.7653    8.1600 H   0  0  0  0  0  0
   -1.5473   26.3987   12.4232 H   0  0  0  0  0  0
   -2.6850   28.9048   11.5189 H   0  0  0  0  0  0
    0.9764   31.2850    8.0144 H   0  0  0  0  0  0
   -0.5561   33.1830    7.9786 H   0  0  0  0  0  0
   -2.7013   33.0774    9.1600 H   0  0  0  0  0  0
   -3.6272   31.0510   11.5461 H   0  0  0  0  0  0
  1  7  1  0  0  0
  1  3  2  0  0  0
  1 22  1  0  0  0
  2  3  1  0  0  0
  2  6  1  0  0  0
  2 12  2  0  0  0
  3  4  1  0  0  0
  4  5  1  0  0  0
  5  6  1  0  0  0
  5 23  1  0  0  0
  5 24  1  0  0  0
  7 10  1  0  0  0
  7 11  2  0  0  0
  8  9  1  0  0  0
  8 13  2  0  0  0
  8 11  1  0  0  0
  9 10  1  0  0  0
  9 25  1  0  0  0
 10 20  2  0  0  0
 11 12  1  0  0  0
 12 15  1  0  0  0
 13 14  1  0  0  0
 13 26  1  0  0  0
 14 15  2  0  0  0
 14 19  1  0  0  0
 15 16  1  0  0  0
 16 17  2  0  0  0
 16 27  1  0  0  0
 17 18  1  0  0  0
 17 28  1  0  0  0
 18 19  2  0  0  0
 18 29  1  0  0  0
 19 21  1  0  0  0
 21 30  1  0  0  0
M  END
> <s_m_entry_id>
32874

> <s_m_entry_name>
dock_pv.275

> <s_m_Source_Path>
/home/csk/Desktop/cluster/DUD-E-result/cdk2

> <s_m_Source_File>
dock_pv.maegz

> <i_m_Source_File_Index>
275

> <chembl_id>
CHEMBL609040

> <chembl_pref_name>
None

> <i_lp_mmshare_version>
53161

> <i_f3d_flags>
0

> <r_lp_tautomer_probability>
1

> <s_lp_Force_Field>
OPLS_2005

> <r_lp_Energy>
67.414637

> <b_lp_Chiralities_Consistent>
1

> <s_lp_Variant>
CHEMBL301_lig912-1

> <s_i_glide_gridfile>
glide-grid_1h00

> <i_i_glide_lignum>
1286

> <i_i_glide_rotatable_bonds>
1

> <r_i_docking_score>
-7.55839277683453

> <r_i_glide_ligand_efficiency>
-0.359923465563549

> <r_i_glide_ligand_efficiency_sa>
-0.993001549782415

> <r_i_glide_ligand_efficiency_ln>
-1.86879734090164

> <r_i_glide_gscore>
-7.55839277683453

> <r_i_glide_lipo>
-2.35408161659047

> <r_i_glide_hbond>
-0.16

> <r_i_glide_metal>
0

> <r_i_glide_rewards>
-2.2807337466851

> <r_i_glide_evdw>
-30.1709613800049

> <r_i_glide_ecoul>
-8.36686229705811

> <r_i_glide_erotb>
0

> <r_i_glide_esite>
0

> <r_i_glide_emodel>
-55.0056605098003

> <r_i_glide_energy>
-38.537823677063

> <r_i_glide_einternal>
1.96264922618866

> <i_i_glide_confnum>
1

> <i_i_glide_posenum>
369

> <r_i_glide_eff_state_penalty>
0

> <s_user_duplicate_titles>
CHEMBL301_lig912,602216

> <s_m_subgroup_title>
dock_pv

> <s_m_subgroupid>
dock_pv

> <b_m_subgroup_collapsed>
1

$$$$
CHEMBL301_lig981
                    3D
 Schrodinger Suite 2021-1.
 40 42  0  0  1  0            999 V2000
    4.8577   27.1997    5.4064 C   0  0  0  0  0  0
    5.2615   26.4296    6.4955 C   0  0  0  0  0  0
    4.8728   26.7908    7.7832 C   0  0  0  0  0  0
    4.0705   27.9137    7.9991 C   0  0  0  0  0  0
    3.6291   28.6755    6.9049 C   0  0  0  0  0  0
    4.0586   28.3223    5.6218 C   0  0  0  0  0  0
    2.8578   29.8499    7.0014 N   0  0  0  0  0  0
    1.7612   30.2516    7.7757 C   0  0  0  0  0  0
    1.3162   29.4489    8.7679 N   0  0  0  0  0  0
    0.1799   29.7875    9.4347 C   0  0  0  0  0  0
   -0.4849   30.9848    9.1235 C   0  0  0  0  0  0
    0.0764   31.7912    8.1319 C   0  0  0  0  0  0
    1.1840   31.4289    7.4258 N   0  0  0  0  0  0
    3.7441   28.2425    9.2687 F   0  0  0  0  0  0
   -0.2795   28.8204   10.4907 C   0  0  0  0  0  0
   -1.5177   28.9833   11.1270 C   0  0  0  0  0  0
   -1.9414   28.0923   12.1049 C   0  0  0  0  0  0
   -1.1445   27.0143   12.4751 C   0  0  0  0  0  0
    0.0829   26.8212   11.8488 C   0  0  0  0  0  0
    0.5093   27.7174   10.8711 C   0  0  0  0  0  0
   -1.6785   25.9051   13.7760 S   0  0  0  0  0  0
   -3.4208   25.8545   13.6823 N   0  0  0  0  0  0
   -1.1812   24.5660   13.4458 O   0  0  0  0  0  0
   -1.3379   26.5427   15.0508 O   0  0  0  0  0  0
    5.3032   26.8433    4.0000 C   0  0  0  0  0  0
    5.8878   25.5611    6.3498 H   0  0  0  0  0  0
    5.2062   26.1960    8.6168 H   0  0  0  0  0  0
    3.7682   28.9262    4.7778 H   0  0  0  0  0  0
    3.1897   30.5819    6.3843 H   0  0  0  0  0  0
   -1.3742   31.3128    9.6381 H   0  0  0  0  0  0
   -0.3692   32.7402    7.8668 H   0  0  0  0  0  0
   -2.1773   29.8017   10.8838 H   0  0  0  0  0  0
   -2.8943   28.2529   12.5756 H   0  0  0  0  0  0
    0.7222   25.9970   12.1325 H   0  0  0  0  0  0
    1.4763   27.5466   10.4195 H   0  0  0  0  0  0
   -3.7599   25.4250   12.8142 H   0  0  0  0  0  0
   -3.8371   26.7729   13.8737 H   0  0  0  0  0  0
    6.0807   26.0780    3.9976 H   0  0  0  0  0  0
    5.7124   27.7238    3.5035 H   0  0  0  0  0  0
    4.4583   26.4907    3.4076 H   0  0  0  0  0  0
  1  6  1  0  0  0
  1  2  2  0  0  0
  1 25  1  0  0  0
  2  3  1  0  0  0
  2 26  1  0  0  0
  3  4  2  0  0  0
  3 27  1  0  0  0
  4 14  1  0  0  0
  4  5  1  0  0  0
  5  7  1  0  0  0
  5  6  2  0  0  0
  6 28  1  0  0  0
  7  8  1  0  0  0
  7 29  1  0  0  0
  8 13  1  0  0  0
  8  9  2  0  0  0
  9 10  1  0  0  0
 10 15  1  0  0  0
 10 11  2  0  0  0
 11 12  1  0  0  0
 11 30  1  0  0  0
 12 13  2  0  0  0
 12 31  1  0  0  0
 15 16  2  0  0  0
 15 20  1  0  0  0
 16 17  1  0  0  0
 16 32  1  0  0  0
 17 18  2  0  0  0
 17 33  1  0  0  0
 18 19  1  0  0  0
 18 21  1  0  0  0
 19 20  2  0  0  0
 19 34  1  0  0  0
 20 35  1  0  0  0
 21 22  1  0  0  0
 21 23  2  0  0  0
 21 24  2  0  0  0
 22 36  1  0  0  0
 22 37  1  0  0  0
 25 38  1  0  0  0
 25 39  1  0  0  0
 25 40  1  0  0  0
M  END
> <s_m_entry_id>
32875

> <s_m_entry_name>
dock_pv.276

> <s_m_Source_Path>
/home/csk/Desktop/cluster/DUD-E-result/cdk2

> <s_m_Source_File>
dock_pv.maegz

> <i_m_Source_File_Index>
276

> <chembl_id>
CHEMBL1241566

> <chembl_pref_name>
None

> <i_lp_mmshare_version>
53161

> <i_f3d_flags>
0

> <r_lp_tautomer_probability>
0.999999987636

> <s_lp_Force_Field>
OPLS_2005

> <r_lp_Energy>
10.403788

> <b_lp_Chiralities_Consistent>
1

> <s_lp_Variant>
CHEMBL301_lig981-1

> <s_i_glide_gridfile>
glide-grid_1h00

> <i_i_glide_lignum>
1376

> <i_i_glide_rotatable_bonds>
4

> <r_i_docking_score>
-7.55211016087584

> <r_i_glide_ligand_efficiency>
-0.302084406435034

> <r_i_glide_ligand_efficiency_sa>
-0.883300161905799

> <r_i_glide_ligand_efficiency_ln>
-1.79007642660632

> <r_i_glide_gscore>
-7.55211016087584

> <r_i_glide_lipo>
-2.43017467366672

> <r_i_glide_hbond>
-0.596527167703566

> <r_i_glide_metal>
0

> <r_i_glide_rewards>
-1.45449632329483

> <r_i_glide_evdw>
-36.403018951416

> <r_i_glide_ecoul>
-10.5309524536133

> <r_i_glide_erotb>
0.447398120625706

> <r_i_glide_esite>
-0.118516301223638

> <r_i_glide_emodel>
-64.7547343950586

> <r_i_glide_energy>
-46.9339714050293

> <r_i_glide_einternal>
2.7572226524353

> <i_i_glide_confnum>
13

> <i_i_glide_posenum>
112

> <r_i_glide_eff_state_penalty>
0

> <s_user_duplicate_titles>
CHEMBL301_lig981

> <s_m_subgroup_title>
dock_pv

> <s_m_subgroupid>
dock_pv

> <b_m_subgroup_collapsed>
1

$$$$
CHEMBL301_lig12
                    3D
 Schrodinger Suite 2021-1.
 55 57  0  0  1  0            999 V2000
    2.0203   27.9726    9.8770 N   0  0  0  0  0  0
    1.0459   27.9313   10.7970 C   0  0  0  0  0  0
   -0.0323   28.7149   10.9157 N   0  0  0  0  0  0
   -0.2007   29.7027   10.0005 C   0  0  0  0  0  0
    1.8334   28.9702    8.9760 C   0  0  0  0  0  0
    0.7658   29.8520    8.9760 C   0  0  0  0  0  0
    0.8580   30.7294    7.9618 N   0  0  0  0  0  0
    1.9677   30.4002    7.3507 C   0  0  0  0  0  0
    2.5567   29.2958    7.8467 N   0  0  0  0  0  0
   -1.3199   30.5189   10.1283 N   0  0  0  0  0  0
    3.8302   28.6692    7.2833 C   0  0  2  0  0  0
    3.6580   28.2834    5.9508 O   0  0  0  0  0  0
    4.7684   27.4820    5.5687 C   0  0  1  0  0  0
    4.9911   26.6199    6.8093 C   0  0  2  0  0  0
    4.3793   27.4162    7.9699 C   0  0  1  0  0  0
    6.3513   26.2520    6.9760 O   0  0  0  0  0  0
    5.2580   27.8520    8.9760 O   0  0  0  0  0  0
    4.4664   26.6586    4.3074 C   0  0  0  0  0  0
    4.5727   27.4520    3.1330 O   0  0  0  0  0  0
    5.9097   27.4520    2.1905 P   0  0  2  0  0  0
    6.5063   25.9771    2.4028 O   0  0  0  0  0  0
    6.9542   28.4108    2.9760 O   0  0  0  0  0  0
    5.6580   27.8520    0.7790 O   0  0  0  0  0  0
    7.5137   24.8552    1.6639 P   0  0  1  0  0  0
    8.6780   24.5855    2.8662 O   0  0  0  0  0  0
    6.4580   23.5320    1.5539 O   0  0  0  0  0  0
    8.0585   25.3351    0.3406 O   0  0  0  0  0  0
   10.0828   25.2493    3.2882 P   0  0  2  0  0  0
   10.4955   24.4210    4.7049 N   0  0  1  0  0  0
   10.0463   26.7326    3.3760 O   0  0  0  0  0  0
   11.0964   24.6520    2.1760 O   0  0  0  0  0  0
   11.3799   25.0547    5.6820 C   0  0  0  0  0  0
   11.8803   24.1801    6.8208 C   0  0  0  0  0  0
   11.6128   22.8769    7.0158 C   0  0  0  0  0  0
    1.1492   27.1623   11.5490 H   0  0  0  0  0  0
    2.3798   30.8876    6.4773 H   0  0  0  0  0  0
   -1.4303   31.3016    9.5012 H   0  0  0  0  0  0
   -1.9452   30.3655   10.9073 H   0  0  0  0  0  0
    4.5773   29.4674    7.3037 H   0  0  0  0  0  0
    5.6286   28.1306    5.3983 H   0  0  0  0  0  0
    4.4084   25.7014    6.7080 H   0  0  0  0  0  0
    3.5657   26.8230    8.3804 H   0  0  0  0  0  0
    6.8556   27.0507    7.1530 H   0  0  0  0  0  0
    5.3126   27.1552    9.6529 H   0  0  0  0  0  0
    3.4572   26.2520    4.3624 H   0  0  0  0  0  0
    5.1220   25.7887    4.2674 H   0  0  0  0  0  0
    7.2041   28.1839    3.8993 H   0  0  0  0  0  0
    5.5126   23.7115    1.3075 H   0  0  0  0  0  0
    9.7238   23.9106    5.1310 H   0  0  0  0  0  0
   11.5195   25.3492    1.5986 H   0  0  0  0  0  0
   10.8580   25.9099    6.1139 H   0  0  0  0  0  0
   12.2500   25.4521    5.1573 H   0  0  0  0  0  0
   12.5132   24.6887    7.5344 H   0  0  0  0  0  0
   10.9883   22.3161    6.3357 H   0  0  0  0  0  0
   12.0201   22.3503    7.8667 H   0  0  0  0  0  0
  1  2  2  0  0  0
  1  5  1  0  0  0
  2  3  1  0  0  0
  2 35  1  0  0  0
  3  4  2  0  0  0
  4  6  1  0  0  0
  4 10  1  0  0  0
  5  9  1  0  0  0
  5  6  2  0  0  0
  6  7  1  0  0  0
  7  8  2  0  0  0
  8  9  1  0  0  0
  8 36  1  0  0  0
  9 11  1  0  0  0
 10 37  1  0  0  0
 10 38  1  0  0  0
 11 12  1  0  0  0
 11 15  1  0  0  0
 11 39  1  0  0  0
 12 13  1  0  0  0
 13 18  1  0  0  0
 13 14  1  0  0  0
 13 40  1  0  0  0
 14 16  1  0  0  0
 14 15  1  0  0  0
 14 41  1  0  0  0
 15 17  1  0  0  0
 15 42  1  0  0  0
 16 43  1  0  0  0
 17 44  1  0  0  0
 18 19  1  0  0  0
 18 45  1  0  0  0
 18 46  1  0  0  0
 19 20  1  0  0  0
 20 21  1  0  0  0
 20 22  1  0  0  0
 20 23  2  0  0  0
 21 24  1  0  0  0
 22 47  1  0  0  0
 24 25  1  0  0  0
 24 26  1  0  0  0
 24 27  2  0  0  0
 25 28  1  0  0  0
 26 48  1  0  0  0
 28 29  1  0  0  0
 28 30  2  0  0  0
 28 31  1  0  0  0
 29 32  1  0  0  0
 29 49  1  0  0  0
 31 50  1  0  0  0
 32 33  1  0  0  0
 32 51  1  0  0  0
 32 52  1  0  0  0
 33 34  2  0  0  0
 33 53  1  0  0  0
 34 54  1  0  0  0
 34 55  1  0  0  0
M  END
> <s_m_entry_id>
32876

> <s_m_entry_name>
dock_pv.277

> <s_m_Source_Path>
/home/csk/Desktop/cluster/DUD-E-result/cdk2

> <s_m_Source_File>
dock_pv.maegz

> <i_m_Source_File_Index>
277

> <chembl_id>
CHEMBL560604

> <chembl_pref_name>
None

> <i_lp_mmshare_version>
53161

> <i_f3d_flags>
0

> <r_lp_tautomer_probability>
0.999997216410988

> <s_lp_Force_Field>
OPLS_2005

> <r_lp_Energy>
24.501313

> <b_lp_Chiralities_Consistent>
1

> <s_lp_Variant>
CHEMBL301_lig12-7

> <s_i_glide_gridfile>
glide-grid_1h00

> <i_i_glide_lignum>
54

> <i_i_glide_rotatable_bonds>
16

> <r_i_docking_score>
-7.54858368364745

> <r_i_glide_ligand_efficiency>
-0.222017167166101

> <r_i_glide_ligand_efficiency_sa>
-0.719249433992054

> <r_i_glide_ligand_efficiency_ln>
-1.66769386631825

> <r_i_glide_gscore>
-7.54858368364745

> <r_i_glide_lipo>
-1.17556221873601

> <r_i_glide_hbond>
-0.149437677558286

> <r_i_glide_metal>
0

> <r_i_glide_rewards>
-1.21592633862278

> <r_i_glide_evdw>
-33.6016387939453

> <r_i_glide_ecoul>
-27.7030067443848

> <r_i_glide_erotb>
0.763399580262734

> <r_i_glide_esite>
-0.0909750892958407

> <r_i_glide_emodel>
-81.6897872692602

> <r_i_glide_energy>
-61.3046455383301

> <r_i_glide_einternal>
23.223970413208

> <i_i_glide_confnum>
262

> <i_i_glide_posenum>
165

> <r_i_glide_eff_state_penalty>
0

> <s_user_duplicate_titles>
CHEMBL301_lig12

> <s_m_subgroup_title>
dock_pv

> <s_m_subgroupid>
dock_pv

> <b_m_subgroup_collapsed>
1

$$$$
CHEMBL301_lig1091
                    3D
 Schrodinger Suite 2021-1.
 56 59  0  0  1  0            999 V2000
   -0.8546   31.8780    9.0768 C   0  0  0  0  0  0
   -0.2268   32.7417    8.1760 C   0  0  0  0  0  0
    0.8516   32.4287    7.4081 N   0  0  0  0  0  0
   -0.3419   30.5847    9.2900 C   0  0  0  0  0  0
   -1.0001   29.7630   10.2291 N   0  0  0  0  0  0
   -0.3184   28.6426   10.8660 C   0  0  0  0  0  0
    0.8497   30.2628    8.5764 C   0  0  0  0  0  0
    1.3272   31.2094    7.6345 C   0  0  0  0  0  0
    2.4532   30.6525    7.0954 N   0  0  0  0  0  0
    2.6480   29.4522    7.7240 C   0  0  0  0  0  0
    1.7425   29.2175    8.6486 N   0  0  0  0  0  0
    3.7299   28.5063    7.3261 C   0  0  0  0  0  0
    4.3311   27.6608    8.2595 C   0  0  0  0  0  0
    5.2904   26.7396    7.8474 C   0  0  0  0  0  0
    5.6579   26.6385    6.5088 C   0  0  0  0  0  0
    5.0412   27.4755    5.5690 C   0  0  0  0  0  0
    4.0971   28.4113    5.9795 C   0  0  0  0  0  0
    6.6262   25.7014    6.2061 O   0  0  0  0  0  0
    7.0951   25.6006    4.8653 C   0  0  0  0  0  0
   -2.3599   32.5379   10.0473 Br  0  0  0  0  0  0
   -0.3883   27.3381   10.0467 C   0  0  0  0  0  0
    0.6521   26.2852   10.4758 C   0  0  0  0  0  0
    0.4594   25.8244   11.8493 N   0  0  0  0  0  0
   -0.4048   24.8592   12.2054 C   0  0  0  0  0  0
   -0.5248   24.5614   13.7184 C   0  0  0  0  0  0
   -1.1018   24.2520   11.3884 O   0  0  0  0  0  0
   -2.0067   24.6001   14.1904 C   0  0  0  0  0  0
   -2.3339   23.1985   14.7288 C   0  0  0  0  0  0
   -1.3066   22.2704   14.0830 C   0  0  0  0  0  0
   -0.0403   23.1269   14.0334 C   0  0  0  0  0  0
   -0.6172   33.7403    8.0351 H   0  0  0  0  0  0
   -1.4398   30.3659   10.9119 H   0  0  0  0  0  0
   -0.7325   28.4737   11.8613 H   0  0  0  0  0  0
    0.7188   28.9232   11.0549 H   0  0  0  0  0  0
    3.1077   31.0346    6.4198 H   0  0  0  0  0  0
    4.0553   27.7076    9.3035 H   0  0  0  0  0  0
    5.7539   26.0921    8.5760 H   0  0  0  0  0  0
    5.3008   27.4290    4.5230 H   0  0  0  0  0  0
    3.6406   29.0505    5.2391 H   0  0  0  0  0  0
    7.8700   24.8363    4.8102 H   0  0  0  0  0  0
    6.2958   25.3084    4.1825 H   0  0  0  0  0  0
    7.5336   26.5393    4.5223 H   0  0  0  0  0  0
   -0.2619   27.5544    8.9875 H   0  0  0  0  0  0
   -1.3933   26.9190   10.1138 H   0  0  0  0  0  0
    1.6464   26.7347   10.4379 H   0  0  0  0  0  0
    0.6760   25.4486    9.7742 H   0  0  0  0  0  0
    1.0205   26.2805   12.5569 H   0  0  0  0  0  0
    0.0577   25.2997   14.2741 H   0  0  0  0  0  0
   -2.7067   24.8431   13.3866 H   0  0  0  0  0  0
   -2.1557   25.3526   14.9657 H   0  0  0  0  0  0
   -3.3581   22.8955   14.5085 H   0  0  0  0  0  0
   -2.2151   23.1785   15.8114 H   0  0  0  0  0  0
   -1.6213   21.9974   13.0728 H   0  0  0  0  0  0
   -1.1650   21.3449   14.6443 H   0  0  0  0  0  0
    0.4535   23.1135   15.0068 H   0  0  0  0  0  0
    0.6869   22.7344   13.3179 H   0  0  0  0  0  0
  1  2  2  0  0  0
  1  4  1  0  0  0
  1 20  1  0  0  0
  2  3  1  0  0  0
  2 31  1  0  0  0
  3  8  2  0  0  0
  4  7  2  0  0  0
  4  5  1  0  0  0
  5  6  1  0  0  0
  5 32  1  0  0  0
  6 21  1  0  0  0
  6 33  1  0  0  0
  6 34  1  0  0  0
  7  8  1  0  0  0
  7 11  1  0  0  0
  8  9  1  0  0  0
  9 10  1  0  0  0
  9 35  1  0  0  0
 10 11  2  0  0  0
 10 12  1  0  0  0
 12 17  1  0  0  0
 12 13  2  0  0  0
 13 14  1  0  0  0
 13 36  1  0  0  0
 14 15  2  0  0  0
 14 37  1  0  0  0
 15 16  1  0  0  0
 15 18  1  0  0  0
 16 17  2  0  0  0
 16 38  1  0  0  0
 17 39  1  0  0  0
 18 19  1  0  0  0
 19 40  1  0  0  0
 19 41  1  0  0  0
 19 42  1  0  0  0
 21 22  1  0  0  0
 21 43  1  0  0  0
 21 44  1  0  0  0
 22 23  1  0  0  0
 22 45  1  0  0  0
 22 46  1  0  0  0
 23 24  1  0  0  0
 23 47  1  0  0  0
 24 25  1  0  0  0
 24 26  2  0  0  0
 25 27  1  0  0  0
 25 30  1  0  0  0
 25 48  1  0  0  0
 27 28  1  0  0  0
 27 49  1  0  0  0
 27 50  1  0  0  0
 28 29  1  0  0  0
 28 51  1  0  0  0
 28 52  1  0  0  0
 29 30  1  0  0  0
 29 53  1  0  0  0
 29 54  1  0  0  0
 30 55  1  0  0  0
 30 56  1  0  0  0
M  END
> <s_m_entry_id>
32877

> <s_m_entry_name>
dock_pv.278

> <s_m_Source_Path>
/home/csk/Desktop/cluster/DUD-E-result/cdk2

> <s_m_Source_File>
dock_pv.maegz

> <i_m_Source_File_Index>
278

> <chembl_id>
CHEMBL2011936

> <chembl_pref_name>
None

> <i_lp_mmshare_version>
53161

> <i_f3d_flags>
0

> <r_lp_tautomer_probability>
1

> <s_lp_Force_Field>
OPLS_2005

> <r_lp_Energy>
40.431817

> <b_lp_Chiralities_Consistent>
1

> <s_lp_Variant>
CHEMBL301_lig1091-1

> <s_i_glide_gridfile>
glide-grid_1h00

> <i_i_glide_lignum>
1495

> <i_i_glide_rotatable_bonds>
9

> <r_i_docking_score>
-7.54727615182918

> <r_i_glide_ligand_efficiency>
-0.251575871727639

> <r_i_glide_ligand_efficiency_sa>
-0.781704725459555

> <r_i_glide_ligand_efficiency_ln>
-1.7148233758557

> <r_i_glide_gscore>
-7.54727615182918

> <r_i_glide_lipo>
-2.68530298508075

> <r_i_glide_hbond>
-0.462433950164423

> <r_i_glide_metal>
0

> <r_i_glide_rewards>
-1.92648969274201

> <r_i_glide_evdw>
-39.280445098877

> <r_i_glide_ecoul>
-7.62214851379395

> <r_i_glide_erotb>
0.63429500817094

> <r_i_glide_esite>
0

> <r_i_glide_emodel>
-65.147545744321

> <r_i_glide_energy>
-46.9025936126709

> <r_i_glide_einternal>
5.30591535568237

> <i_i_glide_confnum>
20

> <i_i_glide_posenum>
270

> <r_i_glide_eff_state_penalty>
0

> <s_user_duplicate_titles>
CHEMBL301_lig1091

> <s_m_subgroup_title>
dock_pv

> <s_m_subgroupid>
dock_pv

> <b_m_subgroup_collapsed>
1

$$$$
CHEMBL301_lig1391
                    3D
 Schrodinger Suite 2021-1.
 46 47  0  0  1  0            999 V2000
    1.5768   27.7039   10.8567 C   0  0  0  0  0  0
    0.0583   27.5421   10.6125 C   0  0  2  0  0  0
   -0.7998   29.1729   10.6151 S   0  0  0  0  0  0
   -0.1915   30.2517    9.3336 C   0  0  0  0  0  0
    0.8459   29.8154    8.5755 N   0  0  0  0  0  0
    1.3438   30.6521    7.6269 C   0  0  0  0  0  0
    2.3938   30.2178    6.8004 N   0  0  0  0  0  0
    3.2852   29.1425    6.9376 C   0  0  0  0  0  0
    3.8355   28.8480    8.1768 C   0  0  0  0  0  0
    4.7375   27.8031    8.3290 C   0  0  0  0  0  0
    5.1259   27.0538    7.2170 C   0  0  0  0  0  0
    4.6113   27.3705    5.9569 C   0  0  0  0  0  0
    3.7024   28.4205    5.8183 C   0  0  0  0  0  0
    6.2234   25.6428    7.4111 S   0  0  1  0  0  0
    7.1421   26.0154    8.5760 N   0  0  0  0  0  0
    5.4271   24.4130    7.3601 O   0  0  0  0  0  0
    7.4277   25.6915    5.9682 C   0  0  0  0  0  0
    0.8898   31.9107    7.3965 N   0  0  0  0  0  0
   -0.1407   32.3370    8.1762 C   0  0  0  0  0  0
   -0.7426   31.5303    9.1462 C   0  0  0  0  0  0
   -2.2003   32.2088   10.1751 Br  0  0  0  0  0  0
   -0.5684   26.4622   11.5658 C   0  0  0  0  0  0
   -2.0938   26.3148   11.3916 C   0  0  0  0  0  0
    0.0731   25.0650   11.4003 C   0  0  0  0  0  0
   -0.3420   26.8440   12.9109 O   0  0  0  0  0  0
    2.1140   26.7609   10.9159 H   0  0  0  0  0  0
    2.0617   28.2555   10.0641 H   0  0  0  0  0  0
    1.7563   28.2527   11.7756 H   0  0  0  0  0  0
   -0.0624   27.1741    9.5936 H   0  0  0  0  0  0
    2.7357   30.9295    6.1705 H   0  0  0  0  0  0
    3.5488   29.4504    9.0138 H   0  0  0  0  0  0
    5.1200   27.5780    9.3133 H   0  0  0  0  0  0
    4.8990   26.8018    5.0847 H   0  0  0  0  0  0
    3.3077   28.6514    4.8434 H   0  0  0  0  0  0
    6.6385   25.9923    9.4637 H   0  0  0  0  0  0
    7.9369   26.6518    5.9623 H   0  0  0  0  0  0
    8.1528   24.8903    6.1022 H   0  0  0  0  0  0
    6.8849   25.5420    5.0373 H   0  0  0  0  0  0
   -0.4941   33.3435    7.9952 H   0  0  0  0  0  0
   -2.3420   25.9415   10.3979 H   0  0  0  0  0  0
   -2.6233   27.2556   11.5462 H   0  0  0  0  0  0
   -2.5084   25.6104   12.1134 H   0  0  0  0  0  0
    0.0489   24.7426   10.3588 H   0  0  0  0  0  0
    1.1092   25.0290   11.7339 H   0  0  0  0  0  0
   -0.4548   24.3116   11.9866 H   0  0  0  0  0  0
    0.5947   27.0512   13.0041 H   0  0  0  0  0  0
  1  2  1  0  0  0
  1 26  1  0  0  0
  1 27  1  0  0  0
  1 28  1  0  0  0
  2  3  1  0  0  0
  2 22  1  0  0  0
  2 29  1  0  0  0
  3  4  1  0  0  0
  4  5  2  0  0  0
  4 20  1  0  0  0
  5  6  1  0  0  0
  6  7  1  0  0  0
  6 18  2  0  0  0
  7  8  1  0  0  0
  7 30  1  0  0  0
  8  9  2  0  0  0
  8 13  1  0  0  0
  9 10  1  0  0  0
  9 31  1  0  0  0
 10 11  2  0  0  0
 10 32  1  0  0  0
 11 12  1  0  0  0
 11 14  1  0  0  0
 12 13  2  0  0  0
 12 33  1  0  0  0
 13 34  1  0  0  0
 14 15  2  0  0  0
 14 16  2  0  0  0
 14 17  1  0  0  0
 15 35  1  0  0  0
 17 36  1  0  0  0
 17 37  1  0  0  0
 17 38  1  0  0  0
 18 19  1  0  0  0
 19 20  2  0  0  0
 19 39  1  0  0  0
 20 21  1  0  0  0
 22 23  1  0  0  0
 22 24  1  0  0  0
 22 25  1  0  0  0
 23 40  1  0  0  0
 23 41  1  0  0  0
 23 42  1  0  0  0
 24 43  1  0  0  0
 24 44  1  0  0  0
 24 45  1  0  0  0
 25 46  1  0  0  0
M  END
> <s_m_entry_id>
32878

> <s_m_entry_name>
dock_pv.279

> <s_m_Source_Path>
/home/csk/Desktop/cluster/DUD-E-result/cdk2

> <s_m_Source_File>
dock_pv.maegz

> <i_m_Source_File_Index>
279

> <chembl_id>
CHEMBL3648104

> <chembl_pref_name>
None

> <i_lp_mmshare_version>
53161

> <i_f3d_flags>
0

> <r_lp_tautomer_probability>
0.999999987636

> <s_lp_Force_Field>
OPLS_2005

> <r_lp_Energy>
5.541538

> <b_lp_Chiralities_Consistent>
1

> <s_lp_Variant>
CHEMBL301_lig1391-3

> <s_i_glide_gridfile>
glide-grid_1h00

> <i_i_glide_lignum>
1881

> <i_i_glide_rotatable_bonds>
7

> <r_i_docking_score>
-7.54623374275364

> <r_i_glide_ligand_efficiency>
-0.301849349710146

> <r_i_glide_ligand_efficiency_sa>
-0.882612851873477

> <r_i_glide_ligand_efficiency_ln>
-1.78868353940931

> <r_i_glide_gscore>
-7.54623374275364

> <r_i_glide_lipo>
-2.82858699122061

> <r_i_glide_hbond>
-0.51332763485484

> <r_i_glide_metal>
0

> <r_i_glide_rewards>
-1.33256821609311

> <r_i_glide_evdw>
-38.9802589416504

> <r_i_glide_ecoul>
-9.51345157623291

> <r_i_glide_erotb>
0.504279782932377

> <r_i_glide_esite>
0

> <r_i_glide_emodel>
-69.1541401120838

> <r_i_glide_energy>
-48.4937105178833

> <r_i_glide_einternal>
4.88363981246948

> <i_i_glide_confnum>
68

> <i_i_glide_posenum>
162

> <r_i_glide_eff_state_penalty>
0

> <s_user_duplicate_titles>
CHEMBL301_lig1391

> <s_m_subgroup_title>
dock_pv

> <s_m_subgroupid>
dock_pv

> <b_m_subgroup_collapsed>
1

$$$$
CHEMBL301_lig327
                    3D
 Schrodinger Suite 2021-1.
 51 54  0  0  1  0            999 V2000
    1.2450   30.3468    8.2058 C   0  0  0  0  0  0
    0.0168   30.4142    8.9760 C   0  0  0  0  0  0
    6.7586   24.6329    6.1283 S   0  0  0  0  0  0
    1.2580   31.5360    7.3760 C   0  0  0  0  0  0
    0.2137   32.2779    7.7760 N   0  0  0  0  0  0
   -0.5853   31.6187    8.6851 C   0  0  0  0  0  0
    2.2177   29.4154    8.1970 C   0  0  0  0  0  0
   -0.6003   29.5679    9.9057 C   0  0  0  0  0  0
   -2.3420   29.0419   11.3760 N   0  0  0  0  0  0
   -0.1110   27.9962   10.5395 S   0  0  0  0  0  0
   -1.5636   28.0071   11.5002 C   0  0  0  0  0  0
    5.6975   26.0315    6.5075 C   0  0  0  0  0  0
   -1.8336   29.9473   10.5024 C   0  0  0  0  0  0
    8.1399   25.1127    6.2322 O   0  0  0  0  0  0
    6.3034   23.5259    6.9760 O   0  0  0  0  0  0
    6.4358   24.1413    4.4552 N   0  0  2  0  0  0
    3.3668   29.3799    7.4446 N   0  0  0  0  0  0
    2.0580   31.8520    6.5048 O   0  0  0  0  0  0
   -1.7875   32.0182    9.2648 C   0  0  0  0  0  0
   -2.4325   31.1777   10.1759 C   0  0  0  0  0  0
    5.1211   26.1246    7.7760 C   0  0  0  0  0  0
    5.4906   27.0520    5.5786 C   0  0  0  0  0  0
    4.1469   28.2523    7.1752 C   0  0  0  0  0  0
    6.7182   24.9653    3.2454 C   0  0  0  0  0  0
    4.7256   28.1616    5.9146 C   0  0  0  0  0  0
    4.3486   27.2334    8.1123 C   0  0  0  0  0  0
    9.2581   27.6771   -0.2772 O   0  0  0  0  0  0
    8.0113   26.6623    2.1727 O   0  0  0  0  0  0
    7.9974   25.8228    3.3163 C   0  0  0  0  0  0
    8.9918   28.4501    0.8771 C   0  0  0  0  0  0
    9.0889   27.5909    2.1474 C   0  0  0  0  0  0
    0.0282   33.1965    7.3978 H   0  0  0  0  0  0
    2.1324   28.5605    8.8504 H   0  0  0  0  0  0
   -1.7941   27.1870   12.1643 H   0  0  0  0  0  0
    5.6465   23.4973    4.3562 H   0  0  0  0  0  0
    3.5104   30.1404    6.7857 H   0  0  0  0  0  0
   -2.2299   32.9725    9.0183 H   0  0  0  0  0  0
   -3.3626   31.4717   10.6421 H   0  0  0  0  0  0
    5.2892   25.3583    8.5195 H   0  0  0  0  0  0
    5.9444   27.0381    4.6051 H   0  0  0  0  0  0
    6.8272   24.2453    2.4330 H   0  0  0  0  0  0
    5.8349   25.5706    3.0376 H   0  0  0  0  0  0
    4.5906   28.9523    5.1898 H   0  0  0  0  0  0
    3.9326   27.2948    9.1074 H   0  0  0  0  0  0
   10.1354   27.2794   -0.1769 H   0  0  0  0  0  0
    8.0142   26.4492    4.2064 H   0  0  0  0  0  0
    8.8836   25.1866    3.3478 H   0  0  0  0  0  0
    7.9819   28.8493    0.7816 H   0  0  0  0  0  0
    9.6580   29.3104    0.9313 H   0  0  0  0  0  0
    9.0228   28.2446    3.0188 H   0  0  0  0  0  0
   10.0575   27.0872    2.1992 H   0  0  0  0  0  0
  1  2  1  0  0  0
  1  4  1  0  0  0
  1  7  2  0  0  0
  2  6  2  0  0  0
  2  8  1  0  0  0
  3 12  1  0  0  0
  3 14  2  0  0  0
  3 15  2  0  0  0
  3 16  1  0  0  0
  4  5  1  0  0  0
  4 18  2  0  0  0
  5  6  1  0  0  0
  5 32  1  0  0  0
  6 19  1  0  0  0
  7 17  1  0  0  0
  7 33  1  0  0  0
  8 10  1  0  0  0
  8 13  2  0  0  0
  9 13  1  0  0  0
  9 11  2  0  0  0
 10 11  1  0  0  0
 11 34  1  0  0  0
 12 21  2  0  0  0
 12 22  1  0  0  0
 13 20  1  0  0  0
 16 24  1  0  0  0
 16 35  1  0  0  0
 17 23  1  0  0  0
 17 36  1  0  0  0
 19 20  2  0  0  0
 19 37  1  0  0  0
 20 38  1  0  0  0
 21 26  1  0  0  0
 21 39  1  0  0  0
 22 25  2  0  0  0
 22 40  1  0  0  0
 23 25  1  0  0  0
 23 26  2  0  0  0
 24 29  1  0  0  0
 24 41  1  0  0  0
 24 42  1  0  0  0
 25 43  1  0  0  0
 26 44  1  0  0  0
 27 30  1  0  0  0
 27 45  1  0  0  0
 28 29  1  0  0  0
 28 31  1  0  0  0
 29 46  1  0  0  0
 29 47  1  0  0  0
 30 31  1  0  0  0
 30 48  1  0  0  0
 30 49  1  0  0  0
 31 50  1  0  0  0
 31 51  1  0  0  0
M  END
> <s_m_entry_id>
32880

> <s_m_entry_name>
dock_pv.281

> <s_m_Source_Path>
/home/csk/Desktop/cluster/DUD-E-result/cdk2

> <s_m_Source_File>
dock_pv.maegz

> <i_m_Source_File_Index>
281

> <chembl_id>
CHEMBL1964259

> <chembl_pref_name>
None

> <i_lp_mmshare_version>
53161

> <i_f3d_flags>
0

> <r_lp_tautomer_probability>
0.499999999999422

> <s_lp_Force_Field>
OPLS_2005

> <r_lp_Energy>
38.344362

> <b_lp_Chiralities_Consistent>
1

> <s_lp_Variant>
CHEMBL301_lig327-1

> <s_i_glide_gridfile>
glide-grid_1h00

> <i_i_glide_lignum>
504

> <i_i_glide_rotatable_bonds>
10

> <r_i_docking_score>
-7.53405917800062

> <r_i_glide_ligand_efficiency>
-0.243034167032278

> <r_i_glide_ligand_efficiency_sa>
-0.76346282931135

> <r_i_glide_ligand_efficiency_ln>
-1.69916123582396

> <r_i_glide_gscore>
-7.53405917800062

> <r_i_glide_lipo>
-2.5231934999792

> <r_i_glide_hbond>
-0.614985185268218

> <r_i_glide_metal>
0

> <r_i_glide_rewards>
-1.18198655603841

> <r_i_glide_evdw>
-43.2959861755371

> <r_i_glide_ecoul>
-10.8667964935303

> <r_i_glide_erotb>
0.597932625765474

> <r_i_glide_esite>
-0.0170077796738751

> <r_i_glide_emodel>
-75.3079837493459

> <r_i_glide_energy>
-54.1627826690674

> <r_i_glide_einternal>
7.25167560577393

> <i_i_glide_confnum>
78

> <i_i_glide_posenum>
375

> <r_i_glide_eff_state_penalty>
0

> <s_user_duplicate_titles>
CHEMBL301_lig327,226694

> <s_m_subgroup_title>
dock_pv

> <s_m_subgroupid>
dock_pv

> <b_m_subgroup_collapsed>
1

$$$$
CHEMBL301_lig1380
                    3D
 Schrodinger Suite 2021-1.
 43 44  0  0  1  0            999 V2000
   -0.2049   27.2279   12.8294 C   0  0  0  0  0  0
    0.5845   27.4221   11.5199 C   0  0  1  0  0  0
    1.5053   26.3586   11.3760 O   0  0  0  0  0  0
   -0.2990   27.5398   10.2581 C   0  0  1  0  0  0
   -1.1782   26.3023    9.9998 C   0  0  0  0  0  0
   -1.2485   29.1071   10.2202 S   0  0  0  0  0  0
   -0.3842   30.2882    9.2151 C   0  0  0  0  0  0
    0.7238   29.8516    8.5719 N   0  0  0  0  0  0
    1.3283   30.6986    7.7065 C   0  0  0  0  0  0
    2.4310   30.2496    6.9716 N   0  0  0  0  0  0
    3.2596   29.1232    7.0947 C   0  0  0  0  0  0
    3.5248   28.5332    8.3308 C   0  0  0  0  0  0
    4.4510   27.5012    8.4178 C   0  0  0  0  0  0
    5.1311   27.0621    7.2819 C   0  0  0  0  0  0
    4.8460   27.6267    6.0387 C   0  0  0  0  0  0
    3.9094   28.6520    5.9500 C   0  0  0  0  0  0
    6.3754   25.7838    7.4562 S   0  0  2  0  0  0
    5.5363   24.5101    7.3754 N   0  0  0  0  0  0
    7.2578   26.1268    8.5755 O   0  0  0  0  0  0
    7.3667   25.6908    5.8606 C   0  0  0  0  0  0
    0.9310   31.9740    7.4645 N   0  0  0  0  0  0
   -0.1370   32.4222    8.1761 C   0  0  0  0  0  0
   -0.8496   31.6033    9.0575 C   0  0  0  0  0  0
   -2.3706   32.2888    9.9806 Br  0  0  0  0  0  0
   -0.8970   28.0538   12.9995 H   0  0  0  0  0  0
    0.4578   27.1798   13.6925 H   0  0  0  0  0  0
   -0.7898   26.3081   12.8132 H   0  0  0  0  0  0
    1.1789   28.3337   11.6054 H   0  0  0  0  0  0
    2.1780   26.4851   12.0568 H   0  0  0  0  0  0
    0.3883   27.5635    9.4139 H   0  0  0  0  0  0
   -0.6193   25.3742   10.1236 H   0  0  0  0  0  0
   -2.0387   26.2640   10.6681 H   0  0  0  0  0  0
   -1.5444   26.3105    8.9761 H   0  0  0  0  0  0
    2.8100   30.9437    6.3431 H   0  0  0  0  0  0
    3.0447   28.8852    9.2312 H   0  0  0  0  0  0
    4.6438   27.0533    9.3760 H   0  0  0  0  0  0
    5.3586   27.3036    5.1455 H   0  0  0  0  0  0
    3.7236   29.1095    4.9891 H   0  0  0  0  0  0
    6.1015   23.6905    7.2238 H   0  0  0  0  0  0
    6.7047   25.4407    5.0331 H   0  0  0  0  0  0
    7.8466   26.6519    5.6887 H   0  0  0  0  0  0
    8.1287   24.9210    5.9709 H   0  0  0  0  0  0
   -0.4329   33.4480    8.0032 H   0  0  0  0  0  0
  1  2  1  0  0  0
  1 25  1  0  0  0
  1 26  1  0  0  0
  1 27  1  0  0  0
  2  3  1  0  0  0
  2  4  1  0  0  0
  2 28  1  0  0  0
  3 29  1  0  0  0
  4  5  1  0  0  0
  4  6  1  0  0  0
  4 30  1  0  0  0
  5 31  1  0  0  0
  5 32  1  0  0  0
  5 33  1  0  0  0
  6  7  1  0  0  0
  7  8  2  0  0  0
  7 23  1  0  0  0
  8  9  1  0  0  0
  9 10  1  0  0  0
  9 21  2  0  0  0
 10 11  1  0  0  0
 10 34  1  0  0  0
 11 12  2  0  0  0
 11 16  1  0  0  0
 12 13  1  0  0  0
 12 35  1  0  0  0
 13 14  2  0  0  0
 13 36  1  0  0  0
 14 15  1  0  0  0
 14 17  1  0  0  0
 15 16  2  0  0  0
 15 37  1  0  0  0
 16 38  1  0  0  0
 17 18  2  0  0  0
 17 19  2  0  0  0
 17 20  1  0  0  0
 18 39  1  0  0  0
 20 40  1  0  0  0
 20 41  1  0  0  0
 20 42  1  0  0  0
 21 22  1  0  0  0
 22 23  2  0  0  0
 22 43  1  0  0  0
 23 24  1  0  0  0
M  END
> <s_m_entry_id>
32881

> <s_m_entry_name>
dock_pv.282

> <s_m_Source_Path>
/home/csk/Desktop/cluster/DUD-E-result/cdk2

> <s_m_Source_File>
dock_pv.maegz

> <i_m_Source_File_Index>
282

> <chembl_id>
CHEMBL3648102

> <chembl_pref_name>
None

> <i_lp_mmshare_version>
53161

> <i_f3d_flags>
0

> <r_lp_tautomer_probability>
0.999999987636

> <s_lp_Force_Field>
OPLS_2005

> <r_lp_Energy>
3.330379

> <b_lp_Chiralities_Consistent>
1

> <s_lp_Variant>
CHEMBL301_lig1380-4

> <s_i_glide_gridfile>
glide-grid_1h00

> <i_i_glide_lignum>
1855

> <i_i_glide_rotatable_bonds>
7

> <r_i_docking_score>
-7.53380433540895

> <r_i_glide_ligand_efficiency>
-0.313908513975373

> <r_i_glide_ligand_efficiency_sa>
-0.905468837834428

> <r_i_glide_ligand_efficiency_ln>
-1.80318508121796

> <r_i_glide_gscore>
-7.53380433540895

> <r_i_glide_lipo>
-2.61639747869697

> <r_i_glide_hbond>
-0.562065664873758

> <r_i_glide_metal>
0

> <r_i_glide_rewards>
-1.52225403170149

> <r_i_glide_evdw>
-39.9002952575684

> <r_i_glide_ecoul>
-9.14995765686035

> <r_i_glide_erotb>
0.534421251270742

> <r_i_glide_esite>
0

> <r_i_glide_emodel>
-67.1663997403629

> <r_i_glide_energy>
-49.0502529144287

> <r_i_glide_einternal>
5.86762142181396

> <i_i_glide_confnum>
24

> <i_i_glide_posenum>
265

> <r_i_glide_eff_state_penalty>
0

> <s_user_duplicate_titles>
CHEMBL301_lig1380

> <s_m_subgroup_title>
dock_pv

> <s_m_subgroupid>
dock_pv

> <b_m_subgroup_collapsed>
1

$$$$
CHEMBL301_lig1384
                    3D
 Schrodinger Suite 2021-1.
 51 52  0  0  1  0            999 V2000
   -0.8442   27.1673    9.8279 C   0  0  0  0  0  0
   -0.7408   28.3997   10.7549 C   0  0  1  0  0  0
   -1.3363   29.5851   10.1207 N   0  0  0  0  0  0
   -0.6100   30.4036    9.2345 C   0  0  0  0  0  0
    0.4719   29.8884    8.5874 N   0  0  0  0  0  0
    1.1808   30.7179    7.7760 C   0  0  0  0  0  0
    2.3639   30.2678    7.1775 N   0  0  0  0  0  0
    3.1121   29.0931    7.3425 C   0  0  0  0  0  0
    3.0972   28.3567    8.5313 C   0  0  0  0  0  0
    3.7410   27.1292    8.5792 C   0  0  0  0  0  0
    4.4583   26.6750    7.4726 C   0  0  0  0  0  0
    4.5717   27.4578    6.3271 C   0  0  0  0  0  0
    3.8735   28.6530    6.2580 C   0  0  0  0  0  0
    5.2201   25.0736    7.5629 S   0  0  1  0  0  0
    6.5682   25.4520    8.1758 N   0  0  0  0  0  0
    4.2683   24.1365    8.1654 O   0  0  0  0  0  0
    5.6704   24.5062    5.8137 C   0  0  0  0  0  0
    4.4278   24.2519    4.9382 C   0  0  0  0  0  0
    3.6599   23.1726    5.4280 O   0  0  0  0  0  0
    0.8618   32.0107    7.5246 N   0  0  0  0  0  0
   -0.2107   32.5144    8.1861 C   0  0  0  0  0  0
   -0.9752   31.7465    9.0686 C   0  0  0  0  0  0
   -2.4110   32.5477   10.0332 Br  0  0  0  0  0  0
   -1.2848   28.1431   12.2061 C   0  0  0  0  0  0
   -0.6215   26.9280   12.8841 C   0  0  0  0  0  0
   -1.1019   29.3863   13.1020 C   0  0  0  0  0  0
   -2.6705   27.8540   12.1755 O   0  0  0  0  0  0
   -0.0612   26.4439   10.0516 H   0  0  0  0  0  0
   -1.7980   26.6519    9.9337 H   0  0  0  0  0  0
   -0.7419   27.4505    8.7806 H   0  0  0  0  0  0
    0.3250   28.6061   10.8706 H   0  0  0  0  0  0
   -2.0919   30.0258   10.6278 H   0  0  0  0  0  0
    2.8106   30.9519    6.5815 H   0  0  0  0  0  0
    2.5478   28.6948    9.3954 H   0  0  0  0  0  0
    3.6608   26.5266    9.4731 H   0  0  0  0  0  0
    5.1575   27.1411    5.4774 H   0  0  0  0  0  0
    3.9222   29.2425    5.3550 H   0  0  0  0  0  0
    6.4428   25.8260    9.1112 H   0  0  0  0  0  0
    6.3337   25.2459    5.3686 H   0  0  0  0  0  0
    6.2488   23.5895    5.9239 H   0  0  0  0  0  0
    3.7869   25.1331    4.9118 H   0  0  0  0  0  0
    4.7231   24.0616    3.9053 H   0  0  0  0  0  0
    3.1825   23.4512    6.2198 H   0  0  0  0  0  0
   -0.4387   33.5566    8.0155 H   0  0  0  0  0  0
    0.4580   27.0488   12.9288 H   0  0  0  0  0  0
   -0.8267   25.9997   12.3498 H   0  0  0  0  0  0
   -0.9788   26.7916   13.9066 H   0  0  0  0  0  0
   -0.0453   29.6169   13.2344 H   0  0  0  0  0  0
   -1.5683   30.2719   12.6755 H   0  0  0  0  0  0
   -1.5366   29.2436   14.0912 H   0  0  0  0  0  0
   -3.0913   28.2719   12.9441 H   0  0  0  0  0  0
  1  2  1  0  0  0
  1 28  1  0  0  0
  1 29  1  0  0  0
  1 30  1  0  0  0
  2  3  1  0  0  0
  2 24  1  0  0  0
  2 31  1  0  0  0
  3  4  1  0  0  0
  3 32  1  0  0  0
  4  5  2  0  0  0
  4 22  1  0  0  0
  5  6  1  0  0  0
  6  7  1  0  0  0
  6 20  2  0  0  0
  7  8  1  0  0  0
  7 33  1  0  0  0
  8  9  2  0  0  0
  8 13  1  0  0  0
  9 10  1  0  0  0
  9 34  1  0  0  0
 10 11  2  0  0  0
 10 35  1  0  0  0
 11 12  1  0  0  0
 11 14  1  0  0  0
 12 13  2  0  0  0
 12 36  1  0  0  0
 13 37  1  0  0  0
 14 15  2  0  0  0
 14 16  2  0  0  0
 14 17  1  0  0  0
 15 38  1  0  0  0
 17 18  1  0  0  0
 17 39  1  0  0  0
 17 40  1  0  0  0
 18 19  1  0  0  0
 18 41  1  0  0  0
 18 42  1  0  0  0
 19 43  1  0  0  0
 20 21  1  0  0  0
 21 22  2  0  0  0
 21 44  1  0  0  0
 22 23  1  0  0  0
 24 25  1  0  0  0
 24 26  1  0  0  0
 24 27  1  0  0  0
 25 45  1  0  0  0
 25 46  1  0  0  0
 25 47  1  0  0  0
 26 48  1  0  0  0
 26 49  1  0  0  0
 26 50  1  0  0  0
 27 51  1  0  0  0
M  END
> <s_m_entry_id>
32882

> <s_m_entry_name>
dock_pv.283

> <s_m_Source_Path>
/home/csk/Desktop/cluster/DUD-E-result/cdk2

> <s_m_Source_File>
dock_pv.maegz

> <i_m_Source_File_Index>
283

> <chembl_id>
CHEMBL3648107

> <chembl_pref_name>
None

> <i_lp_mmshare_version>
53161

> <i_f3d_flags>
0

> <r_lp_tautomer_probability>
0.999999624730965

> <s_lp_Force_Field>
OPLS_2005

> <r_lp_Energy>
10.356658

> <b_lp_Chiralities_Consistent>
1

> <s_lp_Variant>
CHEMBL301_lig1384-2

> <s_i_glide_gridfile>
glide-grid_1h00

> <i_i_glide_lignum>
1867

> <i_i_glide_rotatable_bonds>
10

> <r_i_docking_score>
-7.53366721819403

> <r_i_glide_ligand_efficiency>
-0.279024711784964

> <r_i_glide_ligand_efficiency_sa>
-0.837074134435272

> <r_i_glide_ligand_efficiency_ln>
-1.75371352618455

> <r_i_glide_gscore>
-7.53366721819403

> <r_i_glide_lipo>
-2.79220050054951

> <r_i_glide_hbond>
-0.551762075356304

> <r_i_glide_metal>
0

> <r_i_glide_rewards>
-1.37801174200576

> <r_i_glide_evdw>
-38.309196472168

> <r_i_glide_ecoul>
-11.0801649093628

> <r_i_glide_erotb>
0.765791659730373

> <r_i_glide_esite>
0

> <r_i_glide_emodel>
-71.0472540518638

> <r_i_glide_energy>
-49.3893613815308

> <r_i_glide_einternal>
6.26459646224976

> <i_i_glide_confnum>
90

> <i_i_glide_posenum>
206

> <r_i_glide_eff_state_penalty>
0

> <s_user_duplicate_titles>
CHEMBL301_lig1384

> <s_m_subgroup_title>
dock_pv

> <s_m_subgroupid>
dock_pv

> <b_m_subgroup_collapsed>
1

$$$$
CHEMBL301_lig680
                    3D
 Schrodinger Suite 2021-1.
 36 38  0  0  1  0            999 V2000
    0.5738   30.2631    8.3067 C   0  0  0  0  0  0
   -0.1470   31.4119    8.5762 C   0  0  0  0  0  0
    0.4584   32.3492    7.7759 N   0  0  0  0  0  0
    1.4866   31.8760    7.0514 N   0  0  0  0  0  0
    1.6230   30.6326    7.4490 C   0  0  0  0  0  0
    2.6815   29.8521    7.0238 N   0  0  0  0  0  0
    3.2578   28.8860    7.7762 C   0  0  0  0  0  0
    4.3170   28.0419    7.1030 C   0  0  0  0  0  0
    2.9572   28.6564    8.9516 O   0  0  0  0  0  0
   -1.2319   31.7462    9.5973 C   0  0  0  0  0  0
    5.1891   27.2793    7.8919 C   0  0  0  0  0  0
    6.0761   26.3848    7.3038 C   0  0  0  0  0  0
    6.1051   26.2523    5.9193 C   0  0  0  0  0  0
    5.2583   27.0136    5.1173 C   0  0  0  0  0  0
    4.3725   27.9116    5.7052 C   0  0  0  0  0  0
    7.3247   25.0318    5.1187 Br  0  0  0  0  0  0
   -2.6359   31.8522    8.9789 C   0  0  0  0  0  0
   -3.4226   30.6088    9.4166 C   0  0  0  0  0  0
   -2.4088   29.6917   10.1061 C   0  0  0  0  0  0
   -1.3754   30.6495   10.6704 C   0  0  0  0  0  0
    0.4342   29.2972    8.7684 H   0  0  0  0  0  0
    0.1740   33.3182    7.7180 H   0  0  0  0  0  0
    3.2293   30.2205    6.2576 H   0  0  0  0  0  0
   -0.9043   32.6841   10.0499 H   0  0  0  0  0  0
    5.1645   27.3476    8.9720 H   0  0  0  0  0  0
    6.7353   25.7944    7.9223 H   0  0  0  0  0  0
    5.2892   26.9054    4.0431 H   0  0  0  0  0  0
    3.7066   28.4673    5.0612 H   0  0  0  0  0  0
   -3.1419   32.7112    9.4142 H   0  0  0  0  0  0
   -2.6359   31.9710    7.8965 H   0  0  0  0  0  0
   -4.1986   30.8961   10.1287 H   0  0  0  0  0  0
   -3.9238   30.1226    8.5802 H   0  0  0  0  0  0
   -2.8650   29.0712   10.8790 H   0  0  0  0  0  0
   -1.9397   29.0284    9.3791 H   0  0  0  0  0  0
   -0.4366   30.1704   10.9515 H   0  0  0  0  0  0
   -1.8158   31.0528   11.5816 H   0  0  0  0  0  0
  1  5  1  0  0  0
  1  2  2  0  0  0
  1 21  1  0  0  0
  2 10  1  0  0  0
  2  3  1  0  0  0
  3  4  1  0  0  0
  3 22  1  0  0  0
  4  5  2  0  0  0
  5  6  1  0  0  0
  6  7  1  0  0  0
  6 23  1  0  0  0
  7  8  1  0  0  0
  7  9  2  0  0  0
  8 11  2  0  0  0
  8 15  1  0  0  0
 10 17  1  0  0  0
 10 20  1  0  0  0
 10 24  1  0  0  0
 11 12  1  0  0  0
 11 25  1  0  0  0
 12 13  2  0  0  0
 12 26  1  0  0  0
 13 14  1  0  0  0
 13 16  1  0  0  0
 14 15  2  0  0  0
 14 27  1  0  0  0
 15 28  1  0  0  0
 17 18  1  0  0  0
 17 29  1  0  0  0
 17 30  1  0  0  0
 18 19  1  0  0  0
 18 31  1  0  0  0
 18 32  1  0  0  0
 19 20  1  0  0  0
 19 33  1  0  0  0
 19 34  1  0  0  0
 20 35  1  0  0  0
 20 36  1  0  0  0
M  END
> <s_m_entry_id>
32884

> <s_m_entry_name>
dock_pv.285

> <s_m_Source_Path>
/home/csk/Desktop/cluster/DUD-E-result/cdk2

> <s_m_Source_File>
dock_pv.maegz

> <i_m_Source_File_Index>
285

> <chembl_id>
CHEMBL419753

> <chembl_pref_name>
None

> <i_lp_mmshare_version>
53161

> <i_f3d_flags>
0

> <r_lp_tautomer_probability>
0.5

> <s_lp_Force_Field>
OPLS_2005

> <r_lp_Energy>
28.635052

> <b_lp_Chiralities_Consistent>
1

> <s_lp_Variant>
CHEMBL301_lig680-1

> <s_i_glide_gridfile>
glide-grid_1h00

> <i_i_glide_lignum>
944

> <i_i_glide_rotatable_bonds>
4

> <r_i_docking_score>
-7.52628445823598

> <r_i_glide_ligand_efficiency>
-0.376314222911799

> <r_i_glide_ligand_efficiency_sa>
-1.02147395502699

> <r_i_glide_ligand_efficiency_ln>
-1.88358076642151

> <r_i_glide_gscore>
-7.52628445823598

> <r_i_glide_lipo>
-2.5533827087527

> <r_i_glide_hbond>
-0.397925210981679

> <r_i_glide_metal>
0

> <r_i_glide_rewards>
-2.81797446440107

> <r_i_glide_evdw>
-34.2637825012207

> <r_i_glide_ecoul>
-3.44354200363159

> <r_i_glide_erotb>
0.47271835150524

> <r_i_glide_esite>
0

> <r_i_glide_emodel>
-53.931636823514

> <r_i_glide_energy>
-37.7073245048523

> <r_i_glide_einternal>
3.47117853164673

> <i_i_glide_confnum>
105

> <i_i_glide_posenum>
55

> <r_i_glide_eff_state_penalty>
0

> <s_user_duplicate_titles>
CHEMBL301_lig680,187143

> <s_m_subgroup_title>
dock_pv

> <s_m_subgroupid>
dock_pv

> <b_m_subgroup_collapsed>
1

$$$$
CHEMBL301_lig1436
                    3D
 Schrodinger Suite 2021-1.
 41 43  0  0  1  0            999 V2000
    7.2353   25.4654    5.9706 C   0  0  0  0  0  0
    6.0536   25.4932    7.4314 S   0  0  2  0  0  0
    7.0045   25.8519    8.5760 N   0  0  0  0  0  0
    5.2098   24.2956    7.4000 O   0  0  0  0  0  0
    5.0025   26.9425    7.2909 C   0  0  0  0  0  0
    4.8147   27.5723    6.0607 C   0  0  0  0  0  0
    3.9404   28.6521    5.9673 C   0  0  0  0  0  0
    3.2579   29.1131    7.0982 C   0  0  0  0  0  0
    2.4237   30.2338    6.9605 N   0  0  0  0  0  0
    1.3253   30.7100    7.6894 C   0  0  0  0  0  0
    1.0038   32.0044    7.4391 N   0  0  0  0  0  0
   -0.0099   32.5305    8.1750 C   0  0  0  0  0  0
   -0.7424   31.7789    9.0925 C   0  0  0  0  0  0
   -2.1673   32.5981   10.0654 Br  0  0  0  0  0  0
   -0.3648   30.4393    9.2713 C   0  0  0  0  0  0
   -1.0646   29.6721   10.2177 N   0  0  0  0  0  0
   -0.9422   28.3682   10.7297 C   0  0  0  0  0  0
   -1.8014   28.0216   11.7771 C   0  0  0  0  0  0
   -1.7611   26.7445   12.3316 C   0  0  0  0  0  0
   -0.8521   25.8095   11.8415 C   0  0  0  0  0  0
    0.0150   26.1426   10.8040 C   0  0  0  0  0  0
   -0.0305   27.4190   10.2477 C   0  0  0  0  0  0
    0.6779   29.9043    8.5758 N   0  0  0  0  0  0
    3.4636   28.4956    8.3303 C   0  0  0  0  0  0
    4.3241   27.4092    8.4193 C   0  0  0  0  0  0
    7.8171   26.3837    5.9643 H   0  0  0  0  0  0
    6.6686   25.3586    5.0474 H   0  0  0  0  0  0
    7.9036   24.6146    6.0911 H   0  0  0  0  0  0
    6.5203   25.8711    9.4769 H   0  0  0  0  0  0
    5.3304   27.2331    5.1752 H   0  0  0  0  0  0
    3.8078   29.1367    5.0096 H   0  0  0  0  0  0
    2.8209   30.9308    6.3457 H   0  0  0  0  0  0
   -0.2500   33.5682    7.9947 H   0  0  0  0  0  0
   -1.7923   30.2053   10.6713 H   0  0  0  0  0  0
   -2.5102   28.7388   12.1699 H   0  0  0  0  0  0
   -2.4334   26.4854   13.1372 H   0  0  0  0  0  0
   -0.8179   24.8192   12.2712 H   0  0  0  0  0  0
    0.7210   25.4150   10.4283 H   0  0  0  0  0  0
    0.6506   27.6389    9.4437 H   0  0  0  0  0  0
    2.9676   28.8499    9.2214 H   0  0  0  0  0  0
    4.4567   26.9331    9.3737 H   0  0  0  0  0  0
  1  2  1  0  0  0
  1 26  1  0  0  0
  1 27  1  0  0  0
  1 28  1  0  0  0
  2  3  2  0  0  0
  2  4  2  0  0  0
  2  5  1  0  0  0
  3 29  1  0  0  0
  5  6  2  0  0  0
  5 25  1  0  0  0
  6  7  1  0  0  0
  6 30  1  0  0  0
  7  8  2  0  0  0
  7 31  1  0  0  0
  8  9  1  0  0  0
  8 24  1  0  0  0
  9 10  1  0  0  0
  9 32  1  0  0  0
 10 11  2  0  0  0
 10 23  1  0  0  0
 11 12  1  0  0  0
 12 13  2  0  0  0
 12 33  1  0  0  0
 13 14  1  0  0  0
 13 15  1  0  0  0
 15 16  1  0  0  0
 15 23  2  0  0  0
 16 17  1  0  0  0
 16 34  1  0  0  0
 17 18  2  0  0  0
 17 22  1  0  0  0
 18 19  1  0  0  0
 18 35  1  0  0  0
 19 20  2  0  0  0
 19 36  1  0  0  0
 20 21  1  0  0  0
 20 37  1  0  0  0
 21 22  2  0  0  0
 21 38  1  0  0  0
 22 39  1  0  0  0
 24 25  2  0  0  0
 24 40  1  0  0  0
 25 41  1  0  0  0
M  END
> <s_m_entry_id>
32885

> <s_m_entry_name>
dock_pv.286

> <s_m_Source_Path>
/home/csk/Desktop/cluster/DUD-E-result/cdk2

> <s_m_Source_File>
dock_pv.maegz

> <i_m_Source_File_Index>
286

> <chembl_id>
CHEMBL3940661

> <chembl_pref_name>
None

> <i_lp_mmshare_version>
53161

> <i_f3d_flags>
0

> <r_lp_tautomer_probability>
0.999999624730965

> <s_lp_Force_Field>
OPLS_2005

> <r_lp_Energy>
5.574883

> <b_lp_Chiralities_Consistent>
1

> <s_lp_Variant>
CHEMBL301_lig1436-2

> <s_i_glide_gridfile>
glide-grid_1h00

> <i_i_glide_lignum>
1949

> <i_i_glide_rotatable_bonds>
5

> <r_i_docking_score>
-7.52625036387648

> <r_i_glide_ligand_efficiency>
-0.301050014555059

> <r_i_glide_ligand_efficiency_sa>
-0.880275581703736

> <r_i_glide_ligand_efficiency_ln>
-1.78394687976189

> <r_i_glide_gscore>
-7.52625036387648

> <r_i_glide_lipo>
-2.74655307288381

> <r_i_glide_hbond>
-0.355997706559611

> <r_i_glide_metal>
0

> <r_i_glide_rewards>
-1.50870846608621

> <r_i_glide_evdw>
-40.2538299560547

> <r_i_glide_ecoul>
-9.02863883972168

> <r_i_glide_erotb>
0.451996205414131

> <r_i_glide_esite>
0

> <r_i_glide_emodel>
-70.2295053703204

> <r_i_glide_energy>
-49.2824687957764

> <r_i_glide_einternal>
3.91171026229858

> <i_i_glide_confnum>
9

> <i_i_glide_posenum>
296

> <r_i_glide_eff_state_penalty>
0

> <s_user_duplicate_titles>
CHEMBL301_lig1436

> <s_m_subgroup_title>
dock_pv

> <s_m_subgroupid>
dock_pv

> <b_m_subgroup_collapsed>
1

$$$$
CHEMBL301_lig131
                    3D
 Schrodinger Suite 2021-1.
 52 55  0  0  1  0            999 V2000
   -0.3419   30.6279    8.9874 C   0  0  0  0  0  0
    0.0495   29.4032    9.4831 C   0  0  0  0  0  0
    1.6337   29.9196    8.0389 C   0  0  0  0  0  0
    6.9498   25.5422    6.7415 S   0  0  0  0  0  0
    1.2574   29.0075    8.9756 O   0  0  0  0  0  0
    0.6967   31.0368    8.0384 C   0  0  0  0  0  0
   -0.7254   28.6726   10.3918 C   0  0  0  0  0  0
   -1.5243   31.2119    9.4354 C   0  0  0  0  0  0
   -1.9164   29.2745   10.8467 C   0  0  0  0  0  0
   -2.3032   30.5318   10.3711 C   0  0  0  0  0  0
    2.6778   29.7964    7.1920 C   0  0  0  0  0  0
    5.6350   26.7499    6.8506 C   0  0  0  0  0  0
   -0.5530   24.8216   12.4683 N   0  0  2  0  0  0
    7.8982   25.8518    7.8151 O   0  0  0  0  0  0
    6.3135   24.2248    6.6473 O   0  0  0  0  0  0
   -0.2792   27.2871   10.8789 C   0  0  0  0  0  0
    7.7618   25.8520    5.2313 N   0  0  0  0  0  0
    0.8302   32.0677    7.3760 O   0  0  0  0  0  0
    3.6715   28.7141    7.1037 C   0  0  0  0  0  0
    5.2582   27.2104    8.1099 C   0  0  0  0  0  0
    5.0174   27.2561    5.7069 C   0  0  0  0  0  0
    0.0161   27.2516   12.3891 C   0  0  0  0  0  0
   -1.2289   26.1397   10.4662 C   0  0  0  0  0  0
   -0.7549   24.7784   11.0150 C   0  0  0  0  0  0
    0.4195   25.8451   12.8707 C   0  0  0  0  0  0
   -1.9267   32.4355    8.9762 O   0  0  0  0  0  0
   -2.7231   28.6523   11.7674 O   0  0  0  0  0  0
    4.2658   28.1748    8.2438 C   0  0  0  0  0  0
    4.0548   28.2521    5.8401 C   0  0  0  0  0  0
   -0.1706   23.5122   12.9838 C   0  0  0  0  0  0
   -3.2209   30.9759   10.7297 H   0  0  0  0  0  0
    2.8354   30.5925    6.4785 H   0  0  0  0  0  0
    0.6706   27.0912   10.3765 H   0  0  0  0  0  0
    7.2103   25.5866    4.4124 H   0  0  0  0  0  0
    8.1211   26.8112    5.1724 H   0  0  0  0  0  0
    5.7593   26.8213    8.9760 H   0  0  0  0  0  0
    5.2981   26.9128    4.7212 H   0  0  0  0  0  0
    0.8553   27.9195   12.5763 H   0  0  0  0  0  0
   -0.8092   27.6071   13.0049 H   0  0  0  0  0  0
   -2.2600   26.2997   10.7830 H   0  0  0  0  0  0
   -1.2422   26.0547    9.3790 H   0  0  0  0  0  0
    0.1588   24.4484   10.5173 H   0  0  0  0  0  0
   -1.5164   24.0292   10.7978 H   0  0  0  0  0  0
    1.4191   25.5820   12.5179 H   0  0  0  0  0  0
    0.4580   25.8550   13.9606 H   0  0  0  0  0  0
   -2.7315   32.7371    9.4031 H   0  0  0  0  0  0
   -3.2443   29.2722   12.2983 H   0  0  0  0  0  0
    3.9916   28.5246    9.2291 H   0  0  0  0  0  0
    3.6036   28.6668    4.9521 H   0  0  0  0  0  0
   -0.9186   22.7588   12.7315 H   0  0  0  0  0  0
    0.7895   23.1878   12.5791 H   0  0  0  0  0  0
   -0.0887   23.5351   14.0707 H   0  0  0  0  0  0
  1  2  1  0  0  0
  1  6  1  0  0  0
  1  8  2  0  0  0
  2  5  1  0  0  0
  2  7  2  0  0  0
  3  6  1  0  0  0
  3 11  2  0  0  0
  3  5  1  0  0  0
  4 12  1  0  0  0
  4 14  2  0  0  0
  4 15  2  0  0  0
  4 17  1  0  0  0
  6 18  2  0  0  0
  7 16  1  0  0  0
  7  9  1  0  0  0
  8 10  1  0  0  0
  8 26  1  0  0  0
  9 10  2  0  0  0
  9 27  1  0  0  0
 10 31  1  0  0  0
 11 19  1  0  0  0
 11 32  1  0  0  0
 12 21  1  0  0  0
 12 20  2  0  0  0
 13 24  1  0  0  0
 13 30  1  0  0  0
 13 25  1  0  0  0
 16 22  1  0  0  0
 16 23  1  0  0  0
 16 33  1  0  0  0
 17 34  1  0  0  0
 17 35  1  0  0  0
 19 28  2  0  0  0
 19 29  1  0  0  0
 20 28  1  0  0  0
 20 36  1  0  0  0
 21 29  2  0  0  0
 21 37  1  0  0  0
 22 25  1  0  0  0
 22 38  1  0  0  0
 22 39  1  0  0  0
 23 24  1  0  0  0
 23 40  1  0  0  0
 23 41  1  0  0  0
 24 42  1  0  0  0
 24 43  1  0  0  0
 25 44  1  0  0  0
 25 45  1  0  0  0
 26 46  1  0  0  0
 27 47  1  0  0  0
 28 48  1  0  0  0
 29 49  1  0  0  0
 30 50  1  0  0  0
 30 51  1  0  0  0
 30 52  1  0  0  0
M  END
> <s_m_entry_id>
32886

> <s_m_entry_name>
dock_pv.287

> <s_m_Source_Path>
/home/csk/Desktop/cluster/DUD-E-result/cdk2

> <s_m_Source_File>
dock_pv.maegz

> <i_m_Source_File_Index>
287

> <chembl_id>
CHEMBL48362

> <chembl_pref_name>
None

> <i_lp_mmshare_version>
53161

> <i_f3d_flags>
0

> <r_lp_tautomer_probability>
1

> <s_lp_Force_Field>
OPLS_2005

> <r_lp_Energy>
49.342995

> <b_lp_Chiralities_Consistent>
1

> <s_lp_Variant>
CHEMBL301_lig131-1

> <s_i_glide_gridfile>
glide-grid_1h00

> <i_i_glide_lignum>
270

> <i_i_glide_rotatable_bonds>
5

> <r_i_docking_score>
-7.52086528084336

> <r_i_glide_ligand_efficiency>
-0.250695509361445

> <r_i_glide_ligand_efficiency_sa>
-0.778969234901401

> <r_i_glide_ligand_efficiency_ln>
-1.70882253819824

> <r_i_glide_gscore>
-7.52086528084336

> <r_i_glide_lipo>
-3.00506178848813

> <r_i_glide_hbond>
-0.486029156999645

> <r_i_glide_metal>
0

> <r_i_glide_rewards>
-0.674235974476216

> <r_i_glide_evdw>
-43.195484161377

> <r_i_glide_ecoul>
-9.20539379119873

> <r_i_glide_erotb>
0.214576864503289

> <r_i_glide_esite>
-0.0295319486340007

> <r_i_glide_emodel>
-71.8851158470462

> <r_i_glide_energy>
-52.4008779525757

> <r_i_glide_einternal>
7.03359985351562

> <i_i_glide_confnum>
5

> <i_i_glide_posenum>
167

> <r_i_glide_eff_state_penalty>
0

> <s_user_duplicate_titles>
CHEMBL301_lig131,73969

> <s_m_subgroup_title>
dock_pv

> <s_m_subgroupid>
dock_pv

> <b_m_subgroup_collapsed>
1

$$$$
CHEMBL301_lig713
                    3D
 Schrodinger Suite 2021-1.
 48 51  0  0  1  0            999 V2000
    0.2038   30.5161    8.2867 C   0  0  0  0  0  0
   -0.5739   31.6291    8.5746 C   0  0  0  0  0  0
    0.1293   32.6537    7.9964 N   0  0  0  0  0  0
    1.2522   32.2741    7.3759 N   0  0  0  0  0  0
    1.3288   30.9809    7.5739 C   0  0  0  0  0  0
    2.4513   30.3012    7.1275 N   0  0  0  0  0  0
    2.9471   29.1883    7.6937 C   0  0  0  0  0  0
    4.3582   28.7674    7.2416 C   0  0  2  0  0  0
    2.3968   28.5740    8.6092 O   0  0  0  0  0  0
   -1.8944   31.8494    9.2801 C   0  0  0  0  0  0
   -2.8102   30.6870    9.5960 C   0  0  0  0  0  0
   -2.0814   31.4087   10.7069 C   0  0  0  0  0  0
    4.4464   27.3563    6.6435 C   0  0  0  0  0  0
    4.4580   27.1950    5.2562 C   0  0  0  0  0  0
    4.4570   25.9182    4.6993 C   0  0  0  0  0  0
    4.4437   24.7811    5.5163 C   0  0  0  0  0  0
    4.4582   24.9496    6.9050 C   0  0  0  0  0  0
    4.4586   26.2224    7.4658 C   0  0  0  0  0  0
    5.2581   28.9157    8.4590 C   0  0  0  0  0  0
    4.3886   23.4944    4.9558 N   0  0  0  0  0  0
    4.3540   22.2238    5.6823 C   0  0  0  0  0  0
    4.5739   21.1102    4.6643 C   0  0  0  0  0  0
    3.9375   21.6803    3.4144 C   0  0  0  0  0  0
    4.2390   23.1737    3.5331 C   0  0  0  0  0  0
   -0.0008   29.4964    8.5800 H   0  0  0  0  0  0
   -0.1670   33.6203    7.9920 H   0  0  0  0  0  0
    3.0771   30.8119    6.5164 H   0  0  0  0  0  0
    4.7318   29.4519    6.4800 H   0  0  0  0  0  0
   -2.3863   32.7831    9.0047 H   0  0  0  0  0  0
   -2.4999   29.6654    9.3758 H   0  0  0  0  0  0
   -3.8861   30.8300    9.4879 H   0  0  0  0  0  0
   -2.6515   32.0546   11.3749 H   0  0  0  0  0  0
   -1.2672   30.8903   11.2160 H   0  0  0  0  0  0
    4.4482   28.0561    4.6037 H   0  0  0  0  0  0
    4.4498   25.8213    3.6232 H   0  0  0  0  0  0
    4.4365   24.0967    7.5658 H   0  0  0  0  0  0
    4.4333   26.3235    8.5412 H   0  0  0  0  0  0
    4.7681   28.6138    9.3760 H   0  0  0  0  0  0
    6.0796   28.2264    8.3750 H   0  0  0  0  0  0
    5.6214   29.9376    8.5737 H   0  0  0  0  0  0
    5.1679   22.2107    6.4083 H   0  0  0  0  0  0
    3.4117   22.1072    6.2193 H   0  0  0  0  0  0
    5.6399   20.9216    4.5280 H   0  0  0  0  0  0
    4.1130   20.1729    4.9762 H   0  0  0  0  0  0
    2.8611   21.5052    3.3929 H   0  0  0  0  0  0
    4.3580   21.2525    2.5031 H   0  0  0  0  0  0
    3.3834   23.7235    3.1349 H   0  0  0  0  0  0
    5.1311   23.4444    2.9652 H   0  0  0  0  0  0
  1  5  1  0  0  0
  1  2  2  0  0  0
  1 25  1  0  0  0
  2  3  1  0  0  0
  2 10  1  0  0  0
  3  4  1  0  0  0
  3 26  1  0  0  0
  4  5  2  0  0  0
  5  6  1  0  0  0
  6  7  1  0  0  0
  6 27  1  0  0  0
  7  8  1  0  0  0
  7  9  2  0  0  0
  8 13  1  0  0  0
  8 19  1  0  0  0
  8 28  1  0  0  0
 10 11  1  0  0  0
 10 12  1  0  0  0
 10 29  1  0  0  0
 11 12  1  0  0  0
 11 30  1  0  0  0
 11 31  1  0  0  0
 12 32  1  0  0  0
 12 33  1  0  0  0
 13 14  2  0  0  0
 13 18  1  0  0  0
 14 15  1  0  0  0
 14 34  1  0  0  0
 15 16  2  0  0  0
 15 35  1  0  0  0
 16 17  1  0  0  0
 16 20  1  0  0  0
 17 18  2  0  0  0
 17 36  1  0  0  0
 18 37  1  0  0  0
 19 38  1  0  0  0
 19 39  1  0  0  0
 19 40  1  0  0  0
 20 21  1  0  0  0
 20 24  1  0  0  0
 21 22  1  0  0  0
 21 41  1  0  0  0
 21 42  1  0  0  0
 22 23  1  0  0  0
 22 43  1  0  0  0
 22 44  1  0  0  0
 23 24  1  0  0  0
 23 45  1  0  0  0
 23 46  1  0  0  0
 24 47  1  0  0  0
 24 48  1  0  0  0
M  END
> <s_m_entry_id>
32887

> <s_m_entry_name>
dock_pv.288

> <s_m_Source_Path>
/home/csk/Desktop/cluster/DUD-E-result/cdk2

> <s_m_Source_File>
dock_pv.maegz

> <i_m_Source_File_Index>
288

> <chembl_id>
CHEMBL365341

> <chembl_pref_name>
None

> <i_lp_mmshare_version>
53161

> <i_f3d_flags>
0

> <r_lp_tautomer_probability>
0.5

> <s_lp_Force_Field>
OPLS_2005

> <r_lp_Energy>
39.478556

> <b_lp_Chiralities_Consistent>
1

> <s_lp_Variant>
CHEMBL301_lig713-1

> <s_i_glide_gridfile>
glide-grid_1h00

> <i_i_glide_lignum>
1010

> <i_i_glide_rotatable_bonds>
6

> <r_i_docking_score>
-7.52055317041308

> <r_i_glide_ligand_efficiency>
-0.313356382100545

> <r_i_glide_ligand_efficiency_sa>
-0.903876213917667

> <r_i_glide_ligand_efficiency_ln>
-1.8000134693781

> <r_i_glide_gscore>
-7.52055317041308

> <r_i_glide_lipo>
-2.67544758176229

> <r_i_glide_hbond>
-0.433658617113308

> <r_i_glide_metal>
0

> <r_i_glide_rewards>
-2.73684216402116

> <r_i_glide_evdw>
-31.3204555511475

> <r_i_glide_ecoul>
-5.70607280731201

> <r_i_glide_erotb>
0.747328891137862

> <r_i_glide_esite>
0

> <r_i_glide_emodel>
-48.7851060311687

> <r_i_glide_energy>
-37.0265283584595

> <r_i_glide_einternal>
7.61300992965698

> <i_i_glide_confnum>
48

> <i_i_glide_posenum>
302

> <r_i_glide_eff_state_penalty>
0

> <s_user_duplicate_titles>
CHEMBL301_lig713,320920,321231

> <s_m_subgroup_title>
dock_pv

> <s_m_subgroupid>
dock_pv

> <b_m_subgroup_collapsed>
1

$$$$
CHEMBL301_lig1423
                    3D
 Schrodinger Suite 2021-1.
 55 59  0  0  1  0            999 V2000
    4.0999   22.2785    3.3752 C   0  0  0  0  0  0
    4.1496   22.4765    4.8911 C   0  0  0  0  0  0
    4.0433   21.4698    5.5936 O   0  0  0  0  0  0
    4.4213   23.7084    5.3979 N   0  0  0  0  0  0
    4.6046   23.8840    6.8571 C   0  0  0  0  0  0
    5.9076   24.6940    7.0593 C   0  0  0  0  0  0
    5.8746   26.0552    6.3153 C   0  0  0  0  0  0
    5.6406   25.7304    4.8213 C   0  0  0  0  0  0
    4.3414   24.9378    4.5741 C   0  0  0  0  0  0
    4.9514   27.0529    6.9316 N   0  0  0  0  0  0
    4.7112   26.9585    8.2447 N   0  0  0  0  0  0
    3.9418   27.9660    8.5586 C   0  0  0  0  0  0
    3.6288   28.7586    7.4597 C   0  0  0  0  0  0
    4.3461   28.1839    6.4133 C   0  0  0  0  0  0
    2.8580   29.8924    7.3760 N   0  0  0  0  0  0
    1.6641   30.2520    8.0110 C   0  0  0  0  0  0
    1.0970   29.4480    8.9490 N   0  0  0  0  0  0
   -0.1124   29.8003    9.4715 C   0  0  0  0  0  0
   -0.7016   31.0325    9.0976 C   0  0  0  0  0  0
   -0.0073   31.8201    8.1760 C   0  0  0  0  0  0
    1.1472   31.4277    7.5892 N   0  0  0  0  0  0
   -2.2066   31.6433    9.6891 Cl  0  0  0  0  0  0
   -0.7336   28.7669   10.3991 C   0  0  0  0  0  0
   -0.2318   27.5057   10.7387 N   0  0  0  0  0  0
   -1.2048   26.9105   11.5735 C   0  0  0  0  0  0
   -2.2518   27.7327   11.7760 N   0  0  0  0  0  0
   -1.9416   28.8176   11.1116 C   0  0  0  0  0  0
   -1.0009   25.6080   12.0660 C   0  0  0  0  0  0
    0.1699   24.9310   11.7272 C   0  0  0  0  0  0
    1.1234   25.5276   10.9111 C   0  0  0  0  0  0
    0.9149   26.8123   10.4182 C   0  0  0  0  0  0
    4.4584   28.6495    4.9897 C   0  0  0  0  0  0
    5.0163   22.6393    2.9079 H   0  0  0  0  0  0
    3.2580   22.8143    2.9395 H   0  0  0  0  0  0
    3.9897   21.2234    3.1267 H   0  0  0  0  0  0
    3.7499   24.4393    7.2468 H   0  0  0  0  0  0
    4.6825   22.9383    7.3954 H   0  0  0  0  0  0
    6.1246   24.8403    8.1180 H   0  0  0  0  0  0
    6.7832   24.1230    6.7454 H   0  0  0  0  0  0
    6.8588   26.5183    6.4104 H   0  0  0  0  0  0
    6.5020   25.1761    4.4433 H   0  0  0  0  0  0
    5.7085   26.6090    4.1904 H   0  0  0  0  0  0
    4.2411   24.7550    3.5037 H   0  0  0  0  0  0
    3.4840   25.5227    4.9085 H   0  0  0  0  0  0
    3.6278   28.1347    9.5768 H   0  0  0  0  0  0
    3.1146   30.5740    6.6727 H   0  0  0  0  0  0
   -0.3827   32.7875    7.8751 H   0  0  0  0  0  0
   -2.6431   29.6345   11.1407 H   0  0  0  0  0  0
   -1.7449   25.1436   12.6956 H   0  0  0  0  0  0
    0.3406   23.9312   12.1011 H   0  0  0  0  0  0
    2.0284   24.9957   10.6529 H   0  0  0  0  0  0
    1.6339   27.2795    9.7754 H   0  0  0  0  0  0
    4.0583   29.6562    4.9306 H   0  0  0  0  0  0
    5.4881   28.7149    4.6427 H   0  0  0  0  0  0
    3.8903   28.0289    4.2975 H   0  0  0  0  0  0
  1  2  1  0  0  0
  1 33  1  0  0  0
  1 34  1  0  0  0
  1 35  1  0  0  0
  2  3  2  0  0  0
  2  4  1  0  0  0
  4  5  1  0  0  0
  4  9  1  0  0  0
  5  6  1  0  0  0
  5 36  1  0  0  0
  5 37  1  0  0  0
  6  7  1  0  0  0
  6 38  1  0  0  0
  6 39  1  0  0  0
  7  8  1  0  0  0
  7 10  1  0  0  0
  7 40  1  0  0  0
  8  9  1  0  0  0
  8 41  1  0  0  0
  8 42  1  0  0  0
  9 43  1  0  0  0
  9 44  1  0  0  0
 10 11  1  0  0  0
 10 14  1  0  0  0
 11 12  2  0  0  0
 12 13  1  0  0  0
 12 45  1  0  0  0
 13 14  2  0  0  0
 13 15  1  0  0  0
 14 32  1  0  0  0
 15 16  1  0  0  0
 15 46  1  0  0  0
 16 17  2  0  0  0
 16 21  1  0  0  0
 17 18  1  0  0  0
 18 19  2  0  0  0
 18 23  1  0  0  0
 19 20  1  0  0  0
 19 22  1  0  0  0
 20 21  2  0  0  0
 20 47  1  0  0  0
 23 24  1  0  0  0
 23 27  2  0  0  0
 24 25  1  0  0  0
 24 31  1  0  0  0
 25 26  2  0  0  0
 25 28  1  0  0  0
 26 27  1  0  0  0
 27 48  1  0  0  0
 28 29  2  0  0  0
 28 49  1  0  0  0
 29 30  1  0  0  0
 29 50  1  0  0  0
 30 31  2  0  0  0
 30 51  1  0  0  0
 31 52  1  0  0  0
 32 53  1  0  0  0
 32 54  1  0  0  0
 32 55  1  0  0  0
M  END
> <s_m_entry_id>
32888

> <s_m_entry_name>
dock_pv.289

> <s_m_Source_Path>
/home/csk/Desktop/cluster/DUD-E-result/cdk2

> <s_m_Source_File>
dock_pv.maegz

> <i_m_Source_File_Index>
289

> <chembl_id>
CHEMBL3822583

> <chembl_pref_name>
None

> <i_lp_mmshare_version>
53161

> <i_f3d_flags>
0

> <r_lp_tautomer_probability>
0.999999987636

> <s_lp_Force_Field>
OPLS_2005

> <r_lp_Energy>
28.640039

> <b_lp_Chiralities_Consistent>
1

> <s_lp_Variant>
CHEMBL301_lig1423-1

> <s_i_glide_gridfile>
glide-grid_1h00

> <i_i_glide_lignum>
1935

> <i_i_glide_rotatable_bonds>
5

> <r_i_docking_score>
-7.51927999159049

> <r_i_glide_ligand_efficiency>
-0.234977499737203

> <r_i_glide_ligand_efficiency_sa>
-0.746007059681565

> <r_i_glide_ligand_efficiency_ln>
-1.68377175794842

> <r_i_glide_gscore>
-7.51927999159049

> <r_i_glide_lipo>
-2.70445463344213

> <r_i_glide_hbond>
-0.25115904411659

> <r_i_glide_metal>
0

> <r_i_glide_rewards>
-1.92126448161152

> <r_i_glide_evdw>
-48.3673858642578

> <r_i_glide_ecoul>
-4.0845832824707

> <r_i_glide_erotb>
0.394485934762865

> <r_i_glide_esite>
-0.0058309815996211

> <r_i_glide_emodel>
-72.0538633383905

> <r_i_glide_energy>
-52.4519691467285

> <r_i_glide_einternal>
6.5412483215332

> <i_i_glide_confnum>
22

> <i_i_glide_posenum>
20

> <r_i_glide_eff_state_penalty>
0

> <s_user_duplicate_titles>
CHEMBL301_lig1423

> <s_m_subgroup_title>
dock_pv

> <s_m_subgroupid>
dock_pv

> <b_m_subgroup_collapsed>
1

$$$$
CHEMBL301_lig578
                    3D
 Schrodinger Suite 2021-1.
 50 52  0  0  1  0            999 V2000
   -0.4985   28.3828   12.4753 C   0  0  0  0  0  0
   -0.9184   29.5650   12.0755 N   0  0  0  0  0  0
   -1.4741   29.3126   10.9156 C   0  0  0  0  0  0
   -1.4748   28.0000   10.5646 O   0  0  0  0  0  0
   -0.8269   27.3828   11.5817 C   0  0  0  0  0  0
   -0.5932   25.8786   11.4988 C   0  0  0  0  0  0
    0.0557   25.5207   10.1489 C   0  0  0  0  0  0
   -1.9409   25.1522   11.6198 C   0  0  0  0  0  0
    0.3337   25.4103   12.6413 C   0  0  0  0  0  0
   -2.0348   30.3168    9.9391 C   0  0  0  0  0  0
   -0.8238   31.3247    9.0068 S   0  0  0  0  0  0
    0.6034   30.3285    8.6518 C   0  0  0  0  0  0
    1.2607   29.3177    9.3685 C   0  0  0  0  0  0
    2.3614   28.8213    8.8324 N   0  0  0  0  0  0
    2.6602   29.4254    7.7098 C   0  0  0  0  0  0
    1.6052   30.7215    7.2866 S   0  0  0  0  0  0
    3.6180   29.0494    6.8036 N   0  0  0  0  0  0
    4.3120   27.7725    6.7200 C   0  0  1  0  0  0
    4.8062   27.5651    5.2756 C   0  0  0  0  0  0
    5.5026   26.1995    5.1376 C   0  0  0  0  0  0
    6.6363   26.0206    6.1706 C   0  0  0  0  0  0
    6.1975   26.3714    7.6125 C   0  0  2  0  0  0
    5.4424   27.7144    7.7347 C   0  0  0  0  0  0
    7.2587   26.2506    8.5764 N   0  0  0  0  0  0
    0.0588   28.2452   13.3760 H   0  0  0  0  0  0
    0.3667   24.4769   10.1127 H   0  0  0  0  0  0
    0.9398   26.1299    9.9538 H   0  0  0  0  0  0
   -0.6487   25.6876    9.3342 H   0  0  0  0  0  0
   -2.4355   25.3786   12.5667 H   0  0  0  0  0  0
   -2.6218   25.4560   10.8219 H   0  0  0  0  0  0
   -1.8182   24.0715   11.5565 H   0  0  0  0  0  0
   -0.0587   25.6893   13.6203 H   0  0  0  0  0  0
    0.4606   24.3268   12.6385 H   0  0  0  0  0  0
    1.3259   25.8525   12.5544 H   0  0  0  0  0  0
   -2.6975   29.8473    9.2162 H   0  0  0  0  0  0
   -2.6712   31.0170   10.4824 H   0  0  0  0  0  0
    0.9642   28.9108   10.3164 H   0  0  0  0  0  0
    4.0309   29.7595    6.2079 H   0  0  0  0  0  0
    3.6580   26.9555    6.9871 H   0  0  0  0  0  0
    3.9693   27.6164    4.5772 H   0  0  0  0  0  0
    5.4933   28.3603    4.9848 H   0  0  0  0  0  0
    5.8975   26.0822    4.1274 H   0  0  0  0  0  0
    4.7658   25.4048    5.2664 H   0  0  0  0  0  0
    7.4696   26.6517    5.8692 H   0  0  0  0  0  0
    6.9959   24.9918    6.1273 H   0  0  0  0  0  0
    5.4555   25.6132    7.8709 H   0  0  0  0  0  0
    6.0579   28.5868    7.5613 H   0  0  0  0  0  0
    5.0388   27.8118    8.7449 H   0  0  0  0  0  0
    6.7995   26.2162    9.4882 H   0  0  0  0  0  0
    7.7132   25.3583    8.4545 H   0  0  0  0  0  0
  1  5  2  0  0  0
  1  2  1  0  0  0
  1 25  1  0  0  0
  2  3  2  0  0  0
  3  4  1  0  0  0
  3 10  1  0  0  0
  4  5  1  0  0  0
  5  6  1  0  0  0
  6  7  1  0  0  0
  6  8  1  0  0  0
  6  9  1  0  0  0
  7 26  1  0  0  0
  7 27  1  0  0  0
  7 28  1  0  0  0
  8 29  1  0  0  0
  8 30  1  0  0  0
  8 31  1  0  0  0
  9 32  1  0  0  0
  9 33  1  0  0  0
  9 34  1  0  0  0
 10 11  1  0  0  0
 10 35  1  0  0  0
 10 36  1  0  0  0
 11 12  1  0  0  0
 12 13  2  0  0  0
 12 16  1  0  0  0
 13 14  1  0  0  0
 13 37  1  0  0  0
 14 15  2  0  0  0
 15 16  1  0  0  0
 15 17  1  0  0  0
 17 18  1  0  0  0
 17 38  1  0  0  0
 18 19  1  0  0  0
 18 23  1  0  0  0
 18 39  1  0  0  0
 19 20  1  0  0  0
 19 40  1  0  0  0
 19 41  1  0  0  0
 20 21  1  0  0  0
 20 42  1  0  0  0
 20 43  1  0  0  0
 21 22  1  0  0  0
 21 44  1  0  0  0
 21 45  1  0  0  0
 22 23  1  0  0  0
 22 24  1  0  0  0
 22 46  1  0  0  0
 23 47  1  0  0  0
 23 48  1  0  0  0
 24 49  1  0  0  0
 24 50  1  0  0  0
M  END
> <s_m_entry_id>
32889

> <s_m_entry_name>
dock_pv.290

> <s_m_Source_Path>
/home/csk/Desktop/cluster/DUD-E-result/cdk2

> <s_m_Source_File>
dock_pv.maegz

> <i_m_Source_File_Index>
290

> <chembl_id>
CHEMBL505474

> <chembl_pref_name>
None

> <i_lp_mmshare_version>
53161

> <i_f3d_flags>
0

> <r_lp_tautomer_probability>
1

> <s_lp_Force_Field>
OPLS_2005

> <r_lp_Energy>
5.685503

> <b_lp_Chiralities_Consistent>
1

> <s_lp_Variant>
CHEMBL301_lig578-2

> <s_i_glide_gridfile>
glide-grid_1h00

> <i_i_glide_lignum>
810

> <i_i_glide_rotatable_bonds>
6

> <r_i_docking_score>
-7.51896204039005

> <r_i_glide_ligand_efficiency>
-0.313290085016252

> <r_i_glide_ligand_efficiency_sa>
-0.903684980035202

> <r_i_glide_ligand_efficiency_ln>
-1.79963263895139

> <r_i_glide_gscore>
-7.51896204039005

> <r_i_glide_lipo>
-3.00248560819935

> <r_i_glide_hbond>
-0.568304850855048

> <r_i_glide_metal>
0

> <r_i_glide_rewards>
-2.01824328787879

> <r_i_glide_evdw>
-34.1151351928711

> <r_i_glide_ecoul>
-6.26999759674072

> <r_i_glide_erotb>
0.716328105697801

> <r_i_glide_esite>
0

> <r_i_glide_emodel>
-56.4148053523327

> <r_i_glide_energy>
-40.3851327896118

> <r_i_glide_einternal>
4.31665229797363

> <i_i_glide_confnum>
29

> <i_i_glide_posenum>
209

> <r_i_glide_eff_state_penalty>
0

> <s_user_duplicate_titles>
CHEMBL301_lig578

> <s_m_subgroup_title>
dock_pv

> <s_m_subgroupid>
dock_pv

> <b_m_subgroup_collapsed>
1

$$$$
CHEMBL301_lig11
                    3D
 Schrodinger Suite 2021-1.
 68 70  0  0  1  0            999 V2000
   -1.0606   29.5122   10.2972 N   0  0  0  0  0  0
   -1.1566   30.5413    9.4490 C   0  0  0  0  0  0
   -0.2917   30.9418    8.5089 N   0  0  0  0  0  0
    0.8689   30.2512    8.3816 C   0  0  0  0  0  0
    0.1066   28.8332   10.1534 C   0  0  0  0  0  0
    1.1060   29.1509    9.2528 C   0  0  0  0  0  0
    2.1518   28.3158    9.3726 N   0  0  0  0  0  0
    1.8056   27.5010   10.3403 C   0  0  0  0  0  0
    0.5530   27.7008   10.7947 N   0  0  0  0  0  0
    1.7494   30.6479    7.3788 N   0  0  0  0  0  0
   -0.0648   26.9706   11.9764 C   0  0  2  0  0  0
    0.0142   25.5869   11.8155 O   0  0  0  0  0  0
   -0.7944   24.9750   12.8124 C   0  0  1  0  0  0
   -2.0145   25.9019   12.8476 C   0  0  2  0  0  0
   -1.5252   27.2652   12.3309 C   0  0  1  0  0  0
   -2.6201   25.9483   14.1296 O   0  0  0  0  0  0
   -1.5416   28.3513   13.2426 O   0  0  0  0  0  0
   -1.1041   23.5127   12.4312 C   0  0  0  0  0  0
   -0.0417   22.6598   12.8083 O   0  0  0  0  0  0
    0.0590   21.1370   12.2313 P   0  0  2  0  0  0
    0.5534   21.3568   10.7113 O   0  0  0  0  0  0
   -1.4737   20.6520   12.0543 O   0  0  0  0  0  0
    0.9174   20.2313   13.0347 O   0  0  0  0  0  0
    2.0706   21.5727   10.0151 P   0  0  1  0  0  0
    2.2015   21.0078    8.4281 O   0  0  0  0  0  0
    2.1926   23.2499    9.7761 O   0  0  0  0  0  0
    3.1943   21.0572   10.8938 O   0  0  0  0  0  0
    3.3584   20.2968    7.5597 P   0  0  1  0  0  0
    2.9255   20.6497    5.9656 N   0  0  1  0  0  0
    4.7424   20.6670    7.9669 O   0  0  0  0  0  0
    3.0170   18.7275    7.7023 O   0  0  0  0  0  0
    3.0722   21.9948    5.4248 C   0  0  0  0  0  0
    4.1983   22.1202    4.3899 C   0  0  0  0  0  0
    4.2258   23.4786    3.6694 C   0  0  0  0  0  0
    4.5255   24.7005    4.5614 C   0  0  0  0  0  0
    4.6775   25.9992    3.7399 C   0  0  0  0  0  0
    5.1327   27.2282    4.5528 C   0  0  0  0  0  0
    4.0772   27.6741    5.4313 N   0  0  0  0  0  0
    4.4562   28.2518    6.4502 N   0  3  0  0  0  0
    4.8160   28.6524    7.4567 N   0  5  0  0  0  0
   -2.0636   31.1230    9.5198 H   0  0  0  0  0  0
    2.4162   26.7055   10.7475 H   0  0  0  0  0  0
    2.6831   30.2635    7.3763 H   0  0  0  0  0  0
    1.5135   31.4635    6.8367 H   0  0  0  0  0  0
    0.5576   27.2405   12.8300 H   0  0  0  0  0  0
   -0.2638   25.0053   13.7684 H   0  0  0  0  0  0
   -2.7431   25.5302   12.1310 H   0  0  0  0  0  0
   -2.0740   27.5091   11.4210 H   0  0  0  0  0  0
   -3.1392   26.7583   14.1826 H   0  0  0  0  0  0
   -2.4551   28.6516   13.3717 H   0  0  0  0  0  0
   -1.3094   23.4421   11.3626 H   0  0  0  0  0  0
   -1.9862   23.1725   12.9704 H   0  0  0  0  0  0
   -1.6011   19.6752   12.2298 H   0  0  0  0  0  0
    1.6703   23.6960    9.0698 H   0  0  0  0  0  0
    2.9831   19.8946    5.2838 H   0  0  0  0  0  0
    3.7942   18.1974    7.9593 H   0  0  0  0  0  0
    3.2578   22.6907    6.2457 H   0  0  0  0  0  0
    2.1202   22.2758    4.9757 H   0  0  0  0  0  0
    4.0797   21.3390    3.6381 H   0  0  0  0  0  0
    5.1615   21.9368    4.8700 H   0  0  0  0  0  0
    3.2795   23.6303    3.1427 H   0  0  0  0  0  0
    4.9866   23.4240    2.8880 H   0  0  0  0  0  0
    5.4427   24.5181    5.1197 H   0  0  0  0  0  0
    3.7344   24.8231    5.2996 H   0  0  0  0  0  0
    3.7470   26.2204    3.2165 H   0  0  0  0  0  0
    5.4136   25.8305    2.9530 H   0  0  0  0  0  0
    5.3888   28.0396    3.8698 H   0  0  0  0  0  0
    6.0518   26.9816    5.0904 H   0  0  0  0  0  0
  1  2  2  0  0  0
  1  5  1  0  0  0
  2  3  1  0  0  0
  2 41  1  0  0  0
  3  4  2  0  0  0
  4  6  1  0  0  0
  4 10  1  0  0  0
  5  9  1  0  0  0
  5  6  2  0  0  0
  6  7  1  0  0  0
  7  8  2  0  0  0
  8  9  1  0  0  0
  8 42  1  0  0  0
  9 11  1  0  0  0
 10 43  1  0  0  0
 10 44  1  0  0  0
 11 12  1  0  0  0
 11 15  1  0  0  0
 11 45  1  0  0  0
 12 13  1  0  0  0
 13 14  1  0  0  0
 13 18  1  0  0  0
 13 46  1  0  0  0
 14 15  1  0  0  0
 14 16  1  0  0  0
 14 47  1  0  0  0
 15 17  1  0  0  0
 15 48  1  0  0  0
 16 49  1  0  0  0
 17 50  1  0  0  0
 18 19  1  0  0  0
 18 51  1  0  0  0
 18 52  1  0  0  0
 19 20  1  0  0  0
 20 21  1  0  0  0
 20 22  1  0  0  0
 20 23  2  0  0  0
 21 24  1  0  0  0
 22 53  1  0  0  0
 24 25  1  0  0  0
 24 26  1  0  0  0
 24 27  2  0  0  0
 25 28  1  0  0  0
 26 54  1  0  0  0
 28 29  1  0  0  0
 28 30  2  0  0  0
 28 31  1  0  0  0
 29 32  1  0  0  0
 29 55  1  0  0  0
 31 56  1  0  0  0
 32 33  1  0  0  0
 32 57  1  0  0  0
 32 58  1  0  0  0
 33 34  1  0  0  0
 33 59  1  0  0  0
 33 60  1  0  0  0
 34 35  1  0  0  0
 34 61  1  0  0  0
 34 62  1  0  0  0
 35 36  1  0  0  0
 35 63  1  0  0  0
 35 64  1  0  0  0
 36 37  1  0  0  0
 36 65  1  0  0  0
 36 66  1  0  0  0
 37 38  1  0  0  0
 37 67  1  0  0  0
 37 68  1  0  0  0
 38 39  2  0  0  0
 39 40  2  0  0  0
M  CHG  2  39   1  40  -1
M  END
> <s_m_entry_id>
32890

> <s_m_entry_name>
dock_pv.291

> <s_m_Source_Path>
/home/csk/Desktop/cluster/DUD-E-result/cdk2

> <s_m_Source_File>
dock_pv.maegz

> <i_m_Source_File_Index>
291

> <chembl_id>
CHEMBL550942

> <chembl_pref_name>
None

> <i_lp_mmshare_version>
53161

> <i_f3d_flags>
0

> <r_lp_tautomer_probability>
0.999997216410988

> <s_lp_Force_Field>
OPLS_2005

> <r_lp_Energy>
27.12208

> <b_lp_Chiralities_Consistent>
1

> <s_lp_Variant>
CHEMBL301_lig11-3

> <s_i_glide_gridfile>
glide-grid_1h00

> <i_i_glide_lignum>
42

> <i_i_glide_rotatable_bonds>
21

> <r_i_docking_score>
-7.51547619659971

> <r_i_glide_ligand_efficiency>
-0.187886904914993

> <r_i_glide_ligand_efficiency_sa>
-0.642564175410225

> <r_i_glide_ligand_efficiency_ln>
-1.60282990214342

> <r_i_glide_gscore>
-7.51547619659971

> <r_i_glide_lipo>
-0.701237280711367

> <r_i_glide_hbond>
-0.130446231386912

> <r_i_glide_metal>
0

> <r_i_glide_rewards>
-0.869292575894077

> <r_i_glide_evdw>
-48.191276550293

> <r_i_glide_ecoul>
-28.1526756286621

> <r_i_glide_erotb>
0.709520437685188

> <r_i_glide_esite>
-0.114456718777893

> <r_i_glide_emodel>
-101.181917779481

> <r_i_glide_energy>
-76.3439521789551

> <r_i_glide_einternal>
20.8061256408691

> <i_i_glide_confnum>
8

> <i_i_glide_posenum>
18

> <r_i_glide_eff_state_penalty>
0

> <s_user_duplicate_titles>
CHEMBL301_lig11

> <s_m_subgroup_title>
dock_pv

> <s_m_subgroupid>
dock_pv

> <b_m_subgroup_collapsed>
1

$$$$
CHEMBL301_lig626
                    3D
 Schrodinger Suite 2021-1.
 33 35  0  0  1  0            999 V2000
    3.4912   29.0390    7.9000 C   0  0  0  0  0  0
    3.3899   28.0998    8.9181 C   0  0  0  0  0  0
    2.2211   27.9671    9.6668 C   0  0  0  0  0  0
    2.4243   29.9157    7.6567 C   0  0  0  0  0  0
    1.2708   29.8373    8.4413 C   0  0  0  0  0  0
    1.1101   28.7998    9.3862 C   0  0  0  0  0  0
   -0.7520   30.9503    9.0216 C   0  0  0  0  0  0
    0.2933   30.7842    8.1816 O   0  0  0  0  0  0
   -1.1216   29.8040    9.9198 C   0  0  0  0  0  0
   -0.2451   28.7047   10.0265 C   0  0  0  0  0  0
   -0.6979   27.5476   10.6752 C   0  0  0  0  0  0
   -1.8822   27.5164   11.3911 C   0  0  0  0  0  0
   -2.6906   28.6520   11.3760 C   0  0  0  0  0  0
   -2.3420   29.7672   10.6127 C   0  0  0  0  0  0
   -1.3665   32.0098    8.9013 O   0  0  0  0  0  0
   -3.2318   30.8070   10.5760 O   0  0  0  0  0  0
    2.2607   26.9541   10.8013 C   0  0  0  0  0  0
    4.6537   29.0520    7.1715 O   0  0  0  0  0  0
   -2.1707   26.3403   12.0533 O   0  0  0  0  0  0
    2.4580   30.8387    6.6406 O   0  0  0  0  0  0
   -3.2731   26.3041   12.9495 C   0  0  0  0  0  0
    4.2345   27.4550    9.1223 H   0  0  0  0  0  0
   -0.1413   26.6294   10.6531 H   0  0  0  0  0  0
   -3.6309   28.6531   11.9010 H   0  0  0  0  0  0
   -3.6187   30.9240   11.4666 H   0  0  0  0  0  0
    1.6580   27.2740   11.6482 H   0  0  0  0  0  0
    3.2580   26.8653   11.2159 H   0  0  0  0  0  0
    1.9509   25.9655   10.4628 H   0  0  0  0  0  0
    4.7532   29.8014    6.5760 H   0  0  0  0  0  0
    3.3577   31.0520    6.3303 H   0  0  0  0  0  0
   -3.3586   25.3050   13.3760 H   0  0  0  0  0  0
   -3.1196   26.9996   13.7737 H   0  0  0  0  0  0
   -4.2162   26.5329   12.4515 H   0  0  0  0  0  0
  1  2  2  0  0  0
  1 18  1  0  0  0
  1  4  1  0  0  0
  2  3  1  0  0  0
  2 22  1  0  0  0
  3  6  2  0  0  0
  3 17  1  0  0  0
  4  5  2  0  0  0
  4 20  1  0  0  0
  5  6  1  0  0  0
  5  8  1  0  0  0
  6 10  1  0  0  0
  7 15  2  0  0  0
  7  9  1  0  0  0
  7  8  1  0  0  0
  9 10  2  0  0  0
  9 14  1  0  0  0
 10 11  1  0  0  0
 11 12  2  0  0  0
 11 23  1  0  0  0
 12 13  1  0  0  0
 12 19  1  0  0  0
 13 14  2  0  0  0
 13 24  1  0  0  0
 14 16  1  0  0  0
 16 25  1  0  0  0
 17 26  1  0  0  0
 17 27  1  0  0  0
 17 28  1  0  0  0
 18 29  1  0  0  0
 19 21  1  0  0  0
 20 30  1  0  0  0
 21 31  1  0  0  0
 21 32  1  0  0  0
 21 33  1  0  0  0
M  END
> <s_m_entry_id>
32891

> <s_m_entry_name>
dock_pv.292

> <s_m_Source_Path>
/home/csk/Desktop/cluster/DUD-E-result/cdk2

> <s_m_Source_File>
dock_pv.maegz

> <i_m_Source_File_Index>
292

> <chembl_id>
CHEMBL520144

> <chembl_pref_name>
None

> <i_lp_mmshare_version>
53161

> <i_f3d_flags>
0

> <r_lp_tautomer_probability>
1

> <s_lp_Force_Field>
OPLS_2005

> <r_lp_Energy>
43.658856

> <b_lp_Chiralities_Consistent>
1

> <s_lp_Variant>
CHEMBL301_lig626-1

> <s_i_glide_gridfile>
glide-grid_1h00

> <i_i_glide_lignum>
867

> <i_i_glide_rotatable_bonds>
4

> <r_i_docking_score>
-7.51391367209748

> <r_i_glide_ligand_efficiency>
-0.357805412957023

> <r_i_glide_ligand_efficiency_sa>
-0.987158003245353

> <r_i_glide_ligand_efficiency_ln>
-1.85779997213389

> <r_i_glide_gscore>
-7.51391367209748

> <r_i_glide_lipo>
-2.19296647025666

> <r_i_glide_hbond>
0

> <r_i_glide_metal>
0

> <r_i_glide_rewards>
-1.60013945876831

> <r_i_glide_evdw>
-22.7117538452148

> <r_i_glide_ecoul>
-17.2348003387451

> <r_i_glide_erotb>
0

> <r_i_glide_esite>
0

> <r_i_glide_emodel>
-55.8473048023111

> <r_i_glide_energy>
-39.94655418396

> <r_i_glide_einternal>
3.483966588974

> <i_i_glide_confnum>
1

> <i_i_glide_posenum>
334

> <r_i_glide_eff_state_penalty>
0

> <s_user_duplicate_titles>
CHEMBL301_lig626

> <s_m_subgroup_title>
dock_pv

> <s_m_subgroupid>
dock_pv

> <b_m_subgroup_collapsed>
1

$$$$
CHEMBL301_lig1327
                    3D
 Schrodinger Suite 2021-1.
 47 48  0  0  1  0            999 V2000
    5.3833   22.5743    7.3103 C   0  0  0  0  0  0
    4.7315   23.9476    7.5381 C   0  0  0  0  0  0
    5.8978   25.3296    6.9897 S   0  0  1  0  0  0
    6.8481   25.5227    8.1760 N   0  0  0  0  0  0
    6.3447   25.0868    5.6149 O   0  0  0  0  0  0
    4.9002   26.8087    7.0299 C   0  0  0  0  0  0
    4.7240   27.5380    5.8588 C   0  0  0  0  0  0
    3.8986   28.6520    5.8746 C   0  0  0  0  0  0
    3.2580   29.0544    7.0461 C   0  0  0  0  0  0
    2.4580   30.2062    6.9760 N   0  0  0  0  0  0
    1.3596   30.6588    7.7114 C   0  0  0  0  0  0
    0.9894   31.9395    7.4612 N   0  0  0  0  0  0
   -0.0632   32.4160    8.1760 C   0  0  0  0  0  0
   -0.7795   31.6234    9.0757 C   0  0  0  0  0  0
   -2.2678   32.3560   10.0200 Br  0  0  0  0  0  0
   -0.3420   30.3022    9.2538 C   0  0  0  0  0  0
   -1.0147   29.4624   10.1583 N   0  0  0  0  0  0
   -0.3009   28.4593   10.9597 C   0  0  2  0  0  0
   -0.0757   27.1518   10.1741 C   0  0  0  0  0  0
   -1.0037   28.2234   12.3255 C   0  0  2  0  0  0
   -1.0427   29.4903   13.1864 C   0  0  0  0  0  0
   -0.3420   27.2288   13.0896 O   0  0  0  0  0  0
    0.7444   29.8285    8.5885 N   0  0  0  0  0  0
    3.4652   28.3433    8.2280 C   0  0  0  0  0  0
    4.2748   27.2124    8.2116 C   0  0  0  0  0  0
    4.7625   21.7711    7.7076 H   0  0  0  0  0  0
    5.5237   22.3871    6.2447 H   0  0  0  0  0  0
    6.3665   22.5085    7.7760 H   0  0  0  0  0  0
    4.4580   24.1287    8.5760 H   0  0  0  0  0  0
    3.8224   24.0443    6.9432 H   0  0  0  0  0  0
    6.3697   25.6288    9.0663 H   0  0  0  0  0  0
    5.2158   27.2459    4.9416 H   0  0  0  0  0  0
    3.7724   29.2293    4.9760 H   0  0  0  0  0  0
    2.9001   30.9293    6.4222 H   0  0  0  0  0  0
   -0.3420   33.4453    7.9941 H   0  0  0  0  0  0
   -1.8086   29.8862   10.6180 H   0  0  0  0  0  0
    0.6914   28.8619   11.1764 H   0  0  0  0  0  0
    0.3424   26.3592   10.7941 H   0  0  0  0  0  0
   -1.0017   26.7777    9.7356 H   0  0  0  0  0  0
    0.6421   27.3124    9.3760 H   0  0  0  0  0  0
   -2.0283   27.8855   12.1564 H   0  0  0  0  0  0
   -1.5808   30.2919   12.6854 H   0  0  0  0  0  0
   -0.0348   29.8520   13.3760 H   0  0  0  0  0  0
   -1.5420   29.3156   14.1402 H   0  0  0  0  0  0
    0.5942   27.4520   13.1521 H   0  0  0  0  0  0
    3.0016   28.6521    9.1526 H   0  0  0  0  0  0
    4.4072   26.6520    9.1199 H   0  0  0  0  0  0
  1  2  1  0  0  0
  1 26  1  0  0  0
  1 27  1  0  0  0
  1 28  1  0  0  0
  2  3  1  0  0  0
  2 29  1  0  0  0
  2 30  1  0  0  0
  3  4  2  0  0  0
  3  5  2  0  0  0
  3  6  1  0  0  0
  4 31  1  0  0  0
  6  7  2  0  0  0
  6 25  1  0  0  0
  7  8  1  0  0  0
  7 32  1  0  0  0
  8  9  2  0  0  0
  8 33  1  0  0  0
  9 10  1  0  0  0
  9 24  1  0  0  0
 10 11  1  0  0  0
 10 34  1  0  0  0
 11 12  2  0  0  0
 11 23  1  0  0  0
 12 13  1  0  0  0
 13 14  2  0  0  0
 13 35  1  0  0  0
 14 15  1  0  0  0
 14 16  1  0  0  0
 16 17  1  0  0  0
 16 23  2  0  0  0
 17 18  1  0  0  0
 17 36  1  0  0  0
 18 19  1  0  0  0
 18 20  1  0  0  0
 18 37  1  0  0  0
 19 38  1  0  0  0
 19 39  1  0  0  0
 19 40  1  0  0  0
 20 21  1  0  0  0
 20 22  1  0  0  0
 20 41  1  0  0  0
 21 42  1  0  0  0
 21 43  1  0  0  0
 21 44  1  0  0  0
 22 45  1  0  0  0
 24 25  2  0  0  0
 24 46  1  0  0  0
 25 47  1  0  0  0
M  END
> <s_m_entry_id>
32892

> <s_m_entry_name>
dock_pv.293

> <s_m_Source_Path>
/home/csk/Desktop/cluster/DUD-E-result/cdk2

> <s_m_Source_File>
dock_pv.maegz

> <i_m_Source_File_Index>
293

> <chembl_id>
CHEMBL3648095

> <chembl_pref_name>
None

> <i_lp_mmshare_version>
53161

> <i_f3d_flags>
0

> <r_lp_tautomer_probability>
0.999999624730965

> <s_lp_Force_Field>
OPLS_2005

> <r_lp_Energy>
3.331879

> <b_lp_Chiralities_Consistent>
1

> <s_lp_Variant>
CHEMBL301_lig1327-1

> <s_i_glide_gridfile>
glide-grid_1h00

> <i_i_glide_lignum>
1750

> <i_i_glide_rotatable_bonds>
8

> <r_i_docking_score>
-7.5100804870208

> <r_i_glide_ligand_efficiency>
-0.300403219480832

> <r_i_glide_ligand_efficiency_sa>
-0.878384341435736

> <r_i_glide_ligand_efficiency_ln>
-1.78011413437498

> <r_i_glide_gscore>
-7.5100804870208

> <r_i_glide_lipo>
-2.69263981911522

> <r_i_glide_hbond>
-0.603685393103321

> <r_i_glide_metal>
0

> <r_i_glide_rewards>
-1.71312189587511

> <r_i_glide_evdw>
-38.8517799377441

> <r_i_glide_ecoul>
-8.77220726013184

> <r_i_glide_erotb>
0.757786706979831

> <r_i_glide_esite>
0

> <r_i_glide_emodel>
-67.4424736793902

> <r_i_glide_energy>
-47.623987197876

> <r_i_glide_einternal>
5.41613578796387

> <i_i_glide_confnum>
122

> <i_i_glide_posenum>
377

> <r_i_glide_eff_state_penalty>
0

> <s_user_duplicate_titles>
CHEMBL301_lig1327

> <s_m_subgroup_title>
dock_pv

> <s_m_subgroupid>
dock_pv

> <b_m_subgroup_collapsed>
1

$$$$
CHEMBL301_lig1392
                    3D
 Schrodinger Suite 2021-1.
 54 56  0  0  1  0            999 V2000
   -3.7258   27.0501   12.0758 C   0  0  0  0  0  0
   -2.3025   26.7495   11.5800 C   0  0  0  0  0  0
   -1.1707   27.3018   12.4852 C   0  0  2  0  0  0
    0.1037   27.2585   11.7730 N   0  0  0  0  0  0
    0.4866   28.1145   10.7368 C   0  0  0  0  0  0
    1.7197   27.8383   10.2639 N   0  0  0  0  0  0
    2.2222   28.5971    9.2649 C   0  0  0  0  0  0
    3.5386   28.2521    8.9299 N   0  0  0  0  0  0
    4.3426   28.8292    7.8564 C   0  0  0  0  0  0
    4.4984   27.8509    6.6960 C   0  0  0  0  0  0
    4.8769   26.5162    6.9051 C   0  0  0  0  0  0
    5.0219   25.6578    5.8134 C   0  0  0  0  0  0
    4.7962   26.1646    4.5324 C   0  0  0  0  0  0
    4.4548   27.4564    4.3029 N   0  0  0  0  0  0
    4.3123   28.2756    5.3767 C   0  0  0  0  0  0
    1.4386   29.6416    8.7204 C   0  0  0  0  0  0
    1.6500   30.5613    7.7275 N   0  0  0  0  0  0
    0.5951   31.3321    7.7747 C   0  0  0  0  0  0
   -0.3619   30.9631    8.6993 N   0  0  0  0  0  0
   -1.5974   31.7125    9.0002 C   0  0  0  0  0  0
   -1.5322   32.2723   10.4235 C   0  0  0  0  0  0
   -2.8651   30.8595    8.8221 C   0  0  0  0  0  0
    0.1631   29.8396    9.3203 C   0  0  0  0  0  0
   -0.3455   29.1072   10.3204 N   0  0  0  0  0  0
   -1.0187   26.5715   13.8575 C   0  0  1  0  0  0
   -1.9425   27.0519   14.8291 O   0  0  0  0  0  0
   -1.0073   25.0161   13.8179 C   0  0  0  0  0  0
   -0.5892   24.5123   14.9766 F   0  0  0  0  0  0
   -2.2149   24.4974   13.5973 F   0  0  0  0  0  0
   -0.1908   24.5396   12.8770 F   0  0  0  0  0  0
   -4.4653   26.6546   11.3777 H   0  0  0  0  0  0
   -3.9233   26.5907   13.0438 H   0  0  0  0  0  0
   -3.8910   28.1228   12.1723 H   0  0  0  0  0  0
   -2.1830   27.1739   10.5837 H   0  0  0  0  0  0
   -2.1852   25.6777   11.4227 H   0  0  0  0  0  0
   -1.3894   28.3543   12.6813 H   0  0  0  0  0  0
    0.8011   26.5902   12.0646 H   0  0  0  0  0  0
    3.9466   27.4941    9.4605 H   0  0  0  0  0  0
    3.9654   29.7893    7.5105 H   0  0  0  0  0  0
    5.3344   29.0233    8.2644 H   0  0  0  0  0  0
    5.0500   26.1471    7.9055 H   0  0  0  0  0  0
    5.2999   24.6246    5.9552 H   0  0  0  0  0  0
    4.8903   25.5331    3.6590 H   0  0  0  0  0  0
    4.0452   29.2997    5.1592 H   0  0  0  0  0  0
    0.4568   32.2241    7.1825 H   0  0  0  0  0  0
   -1.6505   32.5541    8.3065 H   0  0  0  0  0  0
   -2.3917   32.9072   10.6405 H   0  0  0  0  0  0
   -0.6306   32.8666   10.5759 H   0  0  0  0  0  0
   -1.5432   31.4515   11.1420 H   0  0  0  0  0  0
   -3.7436   31.3946    9.1873 H   0  0  0  0  0  0
   -3.0485   30.6517    7.7752 H   0  0  0  0  0  0
   -2.8135   29.9184    9.3710 H   0  0  0  0  0  0
   -0.0506   26.8723   14.2641 H   0  0  0  0  0  0
   -2.6069   27.6291   14.4129 H   0  0  0  0  0  0
  1  2  1  0  0  0
  1 31  1  0  0  0
  1 32  1  0  0  0
  1 33  1  0  0  0
  2  3  1  0  0  0
  2 34  1  0  0  0
  2 35  1  0  0  0
  3  4  1  0  0  0
  3 25  1  0  0  0
  3 36  1  0  0  0
  4  5  1  0  0  0
  4 37  1  0  0  0
  5  6  2  0  0  0
  5 24  1  0  0  0
  6  7  1  0  0  0
  7  8  1  0  0  0
  7 16  2  0  0  0
  8  9  1  0  0  0
  8 38  1  0  0  0
  9 10  1  0  0  0
  9 39  1  0  0  0
  9 40  1  0  0  0
 10 11  2  0  0  0
 10 15  1  0  0  0
 11 12  1  0  0  0
 11 41  1  0  0  0
 12 13  2  0  0  0
 12 42  1  0  0  0
 13 14  1  0  0  0
 13 43  1  0  0  0
 14 15  2  0  0  0
 15 44  1  0  0  0
 16 17  1  0  0  0
 16 23  1  0  0  0
 17 18  2  0  0  0
 18 19  1  0  0  0
 18 45  1  0  0  0
 19 20  1  0  0  0
 19 23  1  0  0  0
 20 21  1  0  0  0
 20 22  1  0  0  0
 20 46  1  0  0  0
 21 47  1  0  0  0
 21 48  1  0  0  0
 21 49  1  0  0  0
 22 50  1  0  0  0
 22 51  1  0  0  0
 22 52  1  0  0  0
 23 24  2  0  0  0
 25 26  1  0  0  0
 25 27  1  0  0  0
 25 53  1  0  0  0
 26 54  1  0  0  0
 27 28  1  0  0  0
 27 29  1  0  0  0
 27 30  1  0  0  0
M  END
> <s_m_entry_id>
32893

> <s_m_entry_name>
dock_pv.294

> <s_m_Source_Path>
/home/csk/Desktop/cluster/DUD-E-result/cdk2

> <s_m_Source_File>
dock_pv.maegz

> <i_m_Source_File_Index>
294

> <chembl_id>
CHEMBL3655777

> <chembl_pref_name>
None

> <i_lp_mmshare_version>
53161

> <i_f3d_flags>
0

> <r_lp_tautomer_probability>
1

> <s_lp_Force_Field>
OPLS_2005

> <r_lp_Energy>
27.265868

> <b_lp_Chiralities_Consistent>
1

> <s_lp_Variant>
CHEMBL301_lig1392-3

> <s_i_glide_gridfile>
glide-grid_1h00

> <i_i_glide_lignum>
1885

> <i_i_glide_rotatable_bonds>
10

> <r_i_docking_score>
-7.50557121702577

> <r_i_glide_ligand_efficiency>
-0.250185707234192

> <r_i_glide_ligand_efficiency_sa>
-0.777385161161791

> <r_i_glide_ligand_efficiency_ln>
-1.70534756025671

> <r_i_glide_gscore>
-7.50557121702577

> <r_i_glide_lipo>
-2.83447427920289

> <r_i_glide_hbond>
-0.16

> <r_i_glide_metal>
0

> <r_i_glide_rewards>
-2.02246197267525

> <r_i_glide_evdw>
-43.2225875854492

> <r_i_glide_ecoul>
-6.40358781814575

> <r_i_glide_erotb>
0.663234544842453

> <r_i_glide_esite>
-0.0302019579957542

> <r_i_glide_emodel>
-68.1620634841726

> <r_i_glide_energy>
-49.626175403595

> <r_i_glide_einternal>
11.8726863861084

> <i_i_glide_confnum>
93

> <i_i_glide_posenum>
28

> <r_i_glide_eff_state_penalty>
0

> <s_user_duplicate_titles>
CHEMBL301_lig1392

> <s_m_subgroup_title>
dock_pv

> <s_m_subgroupid>
dock_pv

> <b_m_subgroup_collapsed>
1

$$$$
CHEMBL301_lig18
                    3D
 Schrodinger Suite 2021-1.
 52 54  0  0  1  0            999 V2000
   -2.3421   33.4539   10.9779 O   0  0  0  0  0  0
   -1.4387   33.0521    9.9709 C   0  0  0  0  0  0
   -1.6232   31.5915    9.5156 C   0  0  1  0  0  0
   -2.9873   31.3522    8.8428 C   0  0  0  0  0  0
   -4.1071   31.0589    9.8502 C   0  0  0  0  0  0
   -0.5331   31.2368    8.6043 N   0  0  0  0  0  0
    0.3368   30.1769    8.8684 C   0  0  0  0  0  0
   -0.0394   29.2251    9.7658 N   0  0  0  0  0  0
    0.8898   28.2942    9.9849 C   0  0  0  0  0  0
    0.8487   27.1959   10.8257 N   0  0  0  0  0  0
   -0.2129   26.7715   11.7471 C   0  0  0  0  0  0
   -1.4950   26.4270   10.9723 C   0  0  0  0  0  0
   -0.4562   27.8494   12.8206 C   0  0  0  0  0  0
    2.0551   26.5563   10.6320 C   0  0  0  0  0  0
    2.1628   28.2521    9.3731 C   0  0  0  0  0  0
    2.8580   27.1490    9.7893 N   0  0  0  0  0  0
    1.5167   30.2472    8.2049 N   0  0  0  0  0  0
    2.4535   29.2980    8.4681 C   0  0  0  0  0  0
    3.6584   29.4657    7.7754 N   0  0  0  0  0  0
    4.8079   28.5722    7.8561 C   0  0  0  0  0  0
    4.6959   27.4387    6.8447 C   0  0  0  0  0  0
    4.5542   27.7292    5.4820 C   0  0  0  0  0  0
    4.4578   26.6922    4.5570 C   0  0  0  0  0  0
    4.4955   25.3695    4.9967 C   0  0  0  0  0  0
    4.6474   25.0730    6.3512 C   0  0  0  0  0  0
    4.7581   26.1099    7.2760 C   0  0  0  0  0  0
   -3.2132   33.5633   10.5828 H   0  0  0  0  0  0
   -0.4439   33.1456   10.4074 H   0  0  0  0  0  0
   -1.5310   33.7383    9.1287 H   0  0  0  0  0  0
   -1.5677   30.9803   10.4192 H   0  0  0  0  0  0
   -3.2289   32.1961    8.1991 H   0  0  0  0  0  0
   -2.9311   30.4947    8.1776 H   0  0  0  0  0  0
   -5.0822   31.0519    9.3755 H   0  0  0  0  0  0
   -3.9421   30.0964   10.3366 H   0  0  0  0  0  0
   -4.1747   31.8104   10.6326 H   0  0  0  0  0  0
   -0.1612   31.9596    8.0067 H   0  0  0  0  0  0
    0.1334   25.8676   12.2502 H   0  0  0  0  0  0
   -2.2438   25.9771   11.6251 H   0  0  0  0  0  0
   -1.3037   25.7240   10.1607 H   0  0  0  0  0  0
   -1.9404   27.3229   10.5419 H   0  0  0  0  0  0
   -1.2004   27.5223   13.5471 H   0  0  0  0  0  0
    0.4561   28.0784   13.3711 H   0  0  0  0  0  0
   -0.8229   28.7819   12.3875 H   0  0  0  0  0  0
    2.2860   25.6611   11.1895 H   0  0  0  0  0  0
    3.7451   30.2802    7.1789 H   0  0  0  0  0  0
    5.6916   29.1595    7.6148 H   0  0  0  0  0  0
    4.9583   28.1916    8.8680 H   0  0  0  0  0  0
    4.5217   28.7556    5.1428 H   0  0  0  0  0  0
    4.3473   26.9063    3.5036 H   0  0  0  0  0  0
    4.4104   24.5685    4.2756 H   0  0  0  0  0  0
    4.6761   24.0455    6.6827 H   0  0  0  0  0  0
    4.8711   25.8791    8.3264 H   0  0  0  0  0  0
  1  2  1  0  0  0
  1 27  1  0  0  0
  2  3  1  0  0  0
  2 28  1  0  0  0
  2 29  1  0  0  0
  3  4  1  0  0  0
  3  6  1  0  0  0
  3 30  1  0  0  0
  4  5  1  0  0  0
  4 31  1  0  0  0
  4 32  1  0  0  0
  5 33  1  0  0  0
  5 34  1  0  0  0
  5 35  1  0  0  0
  6  7  1  0  0  0
  6 36  1  0  0  0
  7  8  2  0  0  0
  7 17  1  0  0  0
  8  9  1  0  0  0
  9 10  1  0  0  0
  9 15  2  0  0  0
 10 11  1  0  0  0
 10 14  1  0  0  0
 11 12  1  0  0  0
 11 13  1  0  0  0
 11 37  1  0  0  0
 12 38  1  0  0  0
 12 39  1  0  0  0
 12 40  1  0  0  0
 13 41  1  0  0  0
 13 42  1  0  0  0
 13 43  1  0  0  0
 14 16  2  0  0  0
 14 44  1  0  0  0
 15 16  1  0  0  0
 15 18  1  0  0  0
 17 18  2  0  0  0
 18 19  1  0  0  0
 19 20  1  0  0  0
 19 45  1  0  0  0
 20 21  1  0  0  0
 20 46  1  0  0  0
 20 47  1  0  0  0
 21 22  2  0  0  0
 21 26  1  0  0  0
 22 23  1  0  0  0
 22 48  1  0  0  0
 23 24  2  0  0  0
 23 49  1  0  0  0
 24 25  1  0  0  0
 24 50  1  0  0  0
 25 26  2  0  0  0
 25 51  1  0  0  0
 26 52  1  0  0  0
M  END
> <s_m_entry_id>
32894

> <s_m_entry_name>
dock_pv.295

> <s_m_Source_Path>
/home/csk/Desktop/cluster/DUD-E-result/cdk2

> <s_m_Source_File>
dock_pv.maegz

> <i_m_Source_File_Index>
295

> <chembl_id>
CHEMBL14762

> <chembl_pref_name>
SELICICLIB

> <i_lp_mmshare_version>
53161

> <i_f3d_flags>
0

> <r_lp_tautomer_probability>
1

> <s_lp_Force_Field>
OPLS_2005

> <r_lp_Energy>
15.490238

> <b_lp_Chiralities_Consistent>
1

> <s_lp_Variant>
CHEMBL301_lig18-1

> <s_i_glide_gridfile>
glide-grid_1h00

> <i_i_glide_lignum>
82

> <i_i_glide_rotatable_bonds>
9

> <r_i_docking_score>
-7.50189501888708

> <r_i_glide_ligand_efficiency>
-0.288534423803349

> <r_i_glide_ligand_efficiency_sa>
-0.854782095189287

> <r_i_glide_ligand_efficiency_ln>
-1.76179542946032

> <r_i_glide_gscore>
-7.50189501888708

> <r_i_glide_lipo>
-2.91661725959158

> <r_i_glide_hbond>
-0.32

> <r_i_glide_metal>
0

> <r_i_glide_rewards>
-2.37667192391472

> <r_i_glide_evdw>
-43.9059028625488

> <r_i_glide_ecoul>
-3.92178988456726

> <r_i_glide_erotb>
0.912594160958804

> <r_i_glide_esite>
-0.0176363705270557

> <r_i_glide_emodel>
-63.9967250646617

> <r_i_glide_energy>
-47.8276927471161

> <r_i_glide_einternal>
9.08988285064697

> <i_i_glide_confnum>
35

> <i_i_glide_posenum>
84

> <r_i_glide_eff_state_penalty>
0

> <s_user_duplicate_titles>
CHEMBL301_lig18,14221

> <s_m_subgroup_title>
dock_pv

> <s_m_subgroupid>
dock_pv

> <b_m_subgroup_collapsed>
1

$$$$
CHEMBL301_lig57
                    3D
 Schrodinger Suite 2021-1.
 49 51  0  0  1  0            999 V2000
    4.2214   28.6461    6.9871 C   0  0  0  0  0  0
    4.7139   27.3135    7.6196 C   0  0  0  0  0  0
    5.6652   26.5292    6.6943 C   0  0  0  0  0  0
    5.0646   26.3157    5.3801 N   0  0  1  0  0  0
    4.8105   27.5811    4.6987 C   0  0  0  0  0  0
    3.8366   28.4760    5.4890 C   0  0  0  0  0  0
    3.0350   29.2596    7.7747 C   0  0  0  0  0  0
    2.4157   30.3192    7.2043 N   0  0  0  0  0  0
    1.2688   30.9576    7.6710 C   0  0  0  0  0  0
    1.0521   32.2327    7.4720 N   0  0  0  0  0  0
    0.0116   32.6518    8.1746 C   0  0  0  0  0  0
   -0.7423   31.6994    8.8517 C   0  0  0  0  0  0
    0.0089   30.1535    8.5628 S   0  0  0  0  0  0
   -2.1709   32.0087    9.8496 S   0  0  0  0  0  0
   -2.7864   30.3346   10.2467 C   0  0  0  0  0  0
   -1.8978   29.5022   11.1555 C   0  0  0  0  0  0
   -2.2604   28.2133   11.3761 O   0  0  0  0  0  0
   -1.2019   27.6758   12.0298 C   0  0  0  0  0  0
   -0.2809   28.7027   12.1709 C   0  0  0  0  0  0
   -0.7474   29.8364   11.6939 N   0  0  0  0  0  0
   -1.2518   26.1913   12.3749 C   0  0  0  0  0  0
   -2.4478   25.9277   13.3152 C   0  0  0  0  0  0
    0.0558   25.7644   13.0803 C   0  0  0  0  0  0
   -1.4217   25.3631   11.0811 C   0  0  0  0  0  0
    2.7499   28.8250    8.8925 O   0  0  0  0  0  0
    5.0292   29.3803    7.0056 H   0  0  0  0  0  0
    5.2580   27.5058    8.5462 H   0  0  0  0  0  0
    3.8896   26.6255    7.8176 H   0  0  0  0  0  0
    6.6151   27.0532    6.5786 H   0  0  0  0  0  0
    5.8919   25.5566    7.1335 H   0  0  0  0  0  0
    5.6849   25.7543    4.8115 H   0  0  0  0  0  0
    5.7498   28.1026    4.5219 H   0  0  0  0  0  0
    4.3883   27.3541    3.7183 H   0  0  0  0  0  0
    2.8632   27.9983    5.3758 H   0  0  0  0  0  0
    3.8384   29.4394    4.9782 H   0  0  0  0  0  0
    2.9322   30.7756    6.4630 H   0  0  0  0  0  0
   -0.2304   33.7020    8.1760 H   0  0  0  0  0  0
   -2.9575   29.8153    9.3064 H   0  0  0  0  0  0
   -3.7749   30.4492   10.6870 H   0  0  0  0  0  0
    0.7137   28.6340   12.5763 H   0  0  0  0  0  0
   -2.5214   24.8751   13.5907 H   0  0  0  0  0  0
   -3.3927   26.2102   12.8479 H   0  0  0  0  0  0
   -2.3670   26.5089   14.2351 H   0  0  0  0  0  0
    0.9254   25.9238   12.4401 H   0  0  0  0  0  0
    0.2230   26.3397   13.9921 H   0  0  0  0  0  0
    0.0417   24.7091   13.3559 H   0  0  0  0  0  0
   -0.5991   25.5367   10.3854 H   0  0  0  0  0  0
   -1.4590   24.2934   11.2879 H   0  0  0  0  0  0
   -2.3414   25.6232   10.5555 H   0  0  0  0  0  0
  1  7  1  0  0  0
  1  2  1  0  0  0
  1  6  1  0  0  0
  1 26  1  0  0  0
  2  3  1  0  0  0
  2 27  1  0  0  0
  2 28  1  0  0  0
  3  4  1  0  0  0
  3 29  1  0  0  0
  3 30  1  0  0  0
  4  5  1  0  0  0
  4 31  1  0  0  0
  5  6  1  0  0  0
  5 32  1  0  0  0
  5 33  1  0  0  0
  6 34  1  0  0  0
  6 35  1  0  0  0
  7  8  1  0  0  0
  7 25  2  0  0  0
  8  9  1  0  0  0
  8 36  1  0  0  0
  9 13  1  0  0  0
  9 10  2  0  0  0
 10 11  1  0  0  0
 11 12  2  0  0  0
 11 37  1  0  0  0
 12 14  1  0  0  0
 12 13  1  0  0  0
 14 15  1  0  0  0
 15 16  1  0  0  0
 15 38  1  0  0  0
 15 39  1  0  0  0
 16 17  1  0  0  0
 16 20  2  0  0  0
 17 18  1  0  0  0
 18 19  2  0  0  0
 18 21  1  0  0  0
 19 20  1  0  0  0
 19 40  1  0  0  0
 21 22  1  0  0  0
 21 23  1  0  0  0
 21 24  1  0  0  0
 22 41  1  0  0  0
 22 42  1  0  0  0
 22 43  1  0  0  0
 23 44  1  0  0  0
 23 45  1  0  0  0
 23 46  1  0  0  0
 24 47  1  0  0  0
 24 48  1  0  0  0
 24 49  1  0  0  0
M  END
> <s_m_entry_id>
32895

> <s_m_entry_name>
dock_pv.296

> <s_m_Source_Path>
/home/csk/Desktop/cluster/DUD-E-result/cdk2

> <s_m_Source_File>
dock_pv.maegz

> <i_m_Source_File_Index>
296

> <chembl_id>
CHEMBL296468

> <chembl_pref_name>
BMS-387032

> <i_lp_mmshare_version>
53161

> <i_f3d_flags>
0

> <r_lp_tautomer_probability>
0.999000488399163

> <s_lp_Force_Field>
OPLS_2005

> <r_lp_Energy>
17.229172

> <b_lp_Chiralities_Consistent>
1

> <s_lp_Variant>
CHEMBL301_lig57-1

> <s_i_glide_gridfile>
glide-grid_1h00

> <i_i_glide_lignum>
135

> <i_i_glide_rotatable_bonds>
7

> <r_i_docking_score>
-7.50053517339072

> <r_i_glide_ligand_efficiency>
-0.300021406935629

> <r_i_glide_ligand_efficiency_sa>
-0.877267914782087

> <r_i_glide_ligand_efficiency_ln>
-1.77785160899469

> <r_i_glide_gscore>
-7.50053517339072

> <r_i_glide_lipo>
-3.03046792072376

> <r_i_glide_hbond>
-0.269434542834987

> <r_i_glide_metal>
0

> <r_i_glide_rewards>
-2.15789256262102

> <r_i_glide_evdw>
-43.1300773620605

> <r_i_glide_ecoul>
-4.60097980499268

> <r_i_glide_erotb>
0.803910691640973

> <r_i_glide_esite>
0

> <r_i_glide_emodel>
-65.0126447810072

> <r_i_glide_energy>
-47.7310571670532

> <r_i_glide_einternal>
4.94293642044067

> <i_i_glide_confnum>
41

> <i_i_glide_posenum>
199

> <r_i_glide_eff_state_penalty>
0

> <s_user_duplicate_titles>
CHEMBL301_lig57,71663

> <s_m_subgroup_title>
dock_pv

> <s_m_subgroupid>
dock_pv

> <b_m_subgroup_collapsed>
1

$$$$
CHEMBL301_lig1344
                    3D
 Schrodinger Suite 2021-1.
 47 48  0  0  1  0            999 V2000
   -0.0751   27.1686   10.1040 C   0  0  0  0  0  0
   -0.3292   28.4453   10.9369 C   0  0  1  0  0  0
   -1.0238   29.4808   10.1580 N   0  0  0  0  0  0
   -0.3525   30.3152    9.2493 C   0  0  0  0  0  0
    0.7250   29.8368    8.5760 N   0  0  0  0  0  0
    1.3493   30.6623    7.7000 C   0  0  0  0  0  0
    2.4580   30.2067    6.9760 N   0  0  0  0  0  0
    3.2570   29.0520    7.0562 C   0  0  0  0  0  0
    4.0121   28.6898    5.9360 C   0  0  0  0  0  0
    4.8580   27.5922    5.9665 C   0  0  0  0  0  0
    4.9237   26.8101    7.1151 C   0  0  0  0  0  0
    4.1079   27.1113    8.2067 C   0  0  0  0  0  0
    3.3197   28.2558    8.2014 C   0  0  0  0  0  0
    6.1013   25.4677    7.2281 S   0  0  2  0  0  0
    5.1992   24.2440    7.3760 N   0  0  0  0  0  0
    7.1512   25.8520    8.1760 O   0  0  0  0  0  0
    6.8450   25.1992    5.5205 C   0  0  0  0  0  0
    0.9856   31.9459    7.4548 N   0  0  0  0  0  0
   -0.0628   32.4246    8.1760 C   0  0  0  0  0  0
   -0.7811   31.6377    9.0770 C   0  0  0  0  0  0
   -2.2583   32.3801   10.0314 Br  0  0  0  0  0  0
   -1.0379   28.1689   12.3023 C   0  0  0  0  0  0
   -1.0773   29.4378   13.1779 C   0  0  0  0  0  0
   -2.4515   27.5742   12.1271 C   0  0  0  0  0  0
   -0.3063   27.2106   13.0475 O   0  0  0  0  0  0
    0.2625   26.3322   10.7153 H   0  0  0  0  0  0
   -0.9687   26.8470    9.5679 H   0  0  0  0  0  0
    0.7108   27.3405    9.3760 H   0  0  0  0  0  0
    0.6576   28.8489   11.1754 H   0  0  0  0  0  0
   -1.7901   29.9280   10.6417 H   0  0  0  0  0  0
    2.8955   30.9211    6.4078 H   0  0  0  0  0  0
    3.9978   29.2903    5.0420 H   0  0  0  0  0  0
    5.4699   27.3848    5.1028 H   0  0  0  0  0  0
    4.0583   26.4603    9.0594 H   0  0  0  0  0  0
    2.7522   28.4926    9.0861 H   0  0  0  0  0  0
    5.7030   23.3798    7.2530 H   0  0  0  0  0  0
    6.0439   25.0244    4.8029 H   0  0  0  0  0  0
    7.4194   26.0842    5.2470 H   0  0  0  0  0  0
    7.5063   24.3357    5.5616 H   0  0  0  0  0  0
   -0.3420   33.4520    8.0043 H   0  0  0  0  0  0
   -1.6428   30.2376   12.7016 H   0  0  0  0  0  0
   -0.0784   29.8293   13.3638 H   0  0  0  0  0  0
   -1.5420   29.2464   14.1453 H   0  0  0  0  0  0
   -3.1419   28.3048   11.7052 H   0  0  0  0  0  0
   -2.4506   26.7008   11.4750 H   0  0  0  0  0  0
   -2.8668   27.2484   13.0799 H   0  0  0  0  0  0
    0.6182   27.4796   13.0909 H   0  0  0  0  0  0
  1  2  1  0  0  0
  1 26  1  0  0  0
  1 27  1  0  0  0
  1 28  1  0  0  0
  2  3  1  0  0  0
  2 22  1  0  0  0
  2 29  1  0  0  0
  3  4  1  0  0  0
  3 30  1  0  0  0
  4  5  2  0  0  0
  4 20  1  0  0  0
  5  6  1  0  0  0
  6  7  1  0  0  0
  6 18  2  0  0  0
  7  8  1  0  0  0
  7 31  1  0  0  0
  8  9  2  0  0  0
  8 13  1  0  0  0
  9 10  1  0  0  0
  9 32  1  0  0  0
 10 11  2  0  0  0
 10 33  1  0  0  0
 11 12  1  0  0  0
 11 14  1  0  0  0
 12 13  2  0  0  0
 12 34  1  0  0  0
 13 35  1  0  0  0
 14 15  2  0  0  0
 14 16  2  0  0  0
 14 17  1  0  0  0
 15 36  1  0  0  0
 17 37  1  0  0  0
 17 38  1  0  0  0
 17 39  1  0  0  0
 18 19  1  0  0  0
 19 20  2  0  0  0
 19 40  1  0  0  0
 20 21  1  0  0  0
 22 23  1  0  0  0
 22 24  1  0  0  0
 22 25  1  0  0  0
 23 41  1  0  0  0
 23 42  1  0  0  0
 23 43  1  0  0  0
 24 44  1  0  0  0
 24 45  1  0  0  0
 24 46  1  0  0  0
 25 47  1  0  0  0
M  END
> <s_m_entry_id>
32896

> <s_m_entry_name>
dock_pv.297

> <s_m_Source_Path>
/home/csk/Desktop/cluster/DUD-E-result/cdk2

> <s_m_Source_File>
dock_pv.maegz

> <i_m_Source_File_Index>
297

> <chembl_id>
CHEMBL3648072

> <chembl_pref_name>
None

> <i_lp_mmshare_version>
53161

> <i_f3d_flags>
0

> <r_lp_tautomer_probability>
0.999999624730965

> <s_lp_Force_Field>
OPLS_2005

> <r_lp_Energy>
11.05943

> <b_lp_Chiralities_Consistent>
1

> <s_lp_Variant>
CHEMBL301_lig1344-1

> <s_i_glide_gridfile>
glide-grid_1h00

> <i_i_glide_lignum>
1779

> <i_i_glide_rotatable_bonds>
7

> <r_i_docking_score>
-7.4998825120111

> <r_i_glide_ligand_efficiency>
-0.299995300480444

> <r_i_glide_ligand_efficiency_sa>
-0.877191579044126

> <r_i_glide_ligand_efficiency_ln>
-1.77769690868903

> <r_i_glide_gscore>
-7.4998825120111

> <r_i_glide_lipo>
-2.54259513319068

> <r_i_glide_hbond>
-0.505869927040865

> <r_i_glide_metal>
0

> <r_i_glide_rewards>
-1.68813110238631

> <r_i_glide_evdw>
-39.067253112793

> <r_i_glide_ecoul>
-9.00799942016602

> <r_i_glide_erotb>
0.541276219271308

> <r_i_glide_esite>
0

> <r_i_glide_emodel>
-65.6271150223319

> <r_i_glide_energy>
-48.075252532959

> <r_i_glide_einternal>
5.82320117950439

> <i_i_glide_confnum>
95

> <i_i_glide_posenum>
232

> <r_i_glide_eff_state_penalty>
0

> <s_user_duplicate_titles>
CHEMBL301_lig1344

> <s_m_subgroup_title>
dock_pv

> <s_m_subgroupid>
dock_pv

> <b_m_subgroup_collapsed>
1

$$$$
CHEMBL301_lig359
                    3D
 Schrodinger Suite 2021-1.
 57 60  0  0  1  0            999 V2000
    0.8743   29.9423    8.7375 C   0  0  0  0  0  0
    2.0119   30.0173    7.9207 N   0  0  0  0  0  0
    7.6160   24.5538    5.3412 S   0  0  0  0  0  0
    2.9987   29.0662    7.9990 C   0  0  0  0  0  0
    0.7210   28.9725    9.6380 N   0  0  0  0  0  0
    6.4771   25.8696    5.8141 C   0  0  0  0  0  0
    1.9570   31.0829    7.0712 N   0  0  0  0  0  0
    2.8610   28.0820    8.9753 C   0  0  0  0  0  0
    0.0900   31.0522    8.3581 C   0  0  0  0  0  0
    1.7297   28.0755    9.7758 C   0  0  0  0  0  0
    0.8580   31.7227    7.4108 C   0  0  0  0  0  0
    5.6636   26.5605    4.8935 C   0  0  0  0  0  0
    4.0232   29.0518    7.0489 N   0  0  0  0  0  0
    9.0741   25.3879    4.7585 N   0  0  0  0  0  0
    7.0247   23.8068    4.2261 O   0  0  0  0  0  0
    7.9776   23.8423    6.5739 O   0  0  0  0  0  0
    6.4570   26.2517    7.1611 C   0  0  0  0  0  0
    4.8584   27.6116    5.3345 C   0  0  0  0  0  0
    1.6663   27.0509   10.7221 N   0  0  0  0  0  0
    4.8553   27.9926    6.6741 C   0  0  0  0  0  0
   -1.5955   31.4944    9.1249 Br  0  0  0  0  0  0
    5.6301   26.2017    3.2029 Cl  0  0  0  0  0  0
    5.6570   27.3075    7.5877 C   0  0  0  0  0  0
    0.5412   26.7300   11.5942 C   0  0  1  0  0  0
   -3.3198   26.2519   13.4300 N   0  0  0  0  0  0
   -2.2298   26.6363   12.5626 C   0  0  1  0  0  0
   -0.0831   27.9431   12.3267 C   0  0  0  0  0  0
   -0.5094   25.9254   10.8178 C   0  0  0  0  0  0
   -1.1474   27.4461   13.3113 C   0  0  0  0  0  0
   -1.5957   25.4511   11.7948 C   0  0  0  0  0  0
    9.0087   26.0408    3.4331 C   0  0  0  0  0  0
    9.8607   26.1214    5.7726 C   0  0  0  0  0  0
    3.5923   27.3015    9.0993 H   0  0  0  0  0  0
    0.5895   32.6708    6.9679 H   0  0  0  0  0  0
    4.0594   29.8924    6.4744 H   0  0  0  0  0  0
    7.0781   25.7482    7.8878 H   0  0  0  0  0  0
    4.2399   28.1398    4.6240 H   0  0  0  0  0  0
    2.4341   26.3971   10.7158 H   0  0  0  0  0  0
    5.6803   27.6007    8.6273 H   0  0  0  0  0  0
    0.9643   26.0496   12.3354 H   0  0  0  0  0  0
   -3.7154   27.1275   13.7772 H   0  0  0  0  0  0
   -4.0266   25.8045   12.8606 H   0  0  0  0  0  0
   -2.6536   27.3038   11.8099 H   0  0  0  0  0  0
    0.6802   28.5248   12.8405 H   0  0  0  0  0  0
   -0.5865   28.6290   11.6486 H   0  0  0  0  0  0
   -0.9533   26.5366   10.0295 H   0  0  0  0  0  0
   -0.0541   25.0652   10.3241 H   0  0  0  0  0  0
   -0.6850   26.8367   14.0892 H   0  0  0  0  0  0
   -1.5905   28.3074   13.8111 H   0  0  0  0  0  0
   -1.1714   24.7369   12.5019 H   0  0  0  0  0  0
   -2.3420   24.9119   11.2203 H   0  0  0  0  0  0
   10.0152   26.2141    3.0492 H   0  0  0  0  0  0
    8.4699   26.9864    3.5110 H   0  0  0  0  0  0
    8.4793   25.3985    2.7284 H   0  0  0  0  0  0
   10.8583   26.3412    5.3899 H   0  0  0  0  0  0
    9.3530   27.0507    6.0333 H   0  0  0  0  0  0
    9.9593   25.5205    6.6774 H   0  0  0  0  0  0
  1  2  1  0  0  0
  1  5  1  0  0  0
  1  9  2  0  0  0
  2  4  1  0  0  0
  2  7  1  0  0  0
  3  6  1  0  0  0
  3 14  1  0  0  0
  3 15  2  0  0  0
  3 16  2  0  0  0
  4 13  1  0  0  0
  4  8  2  0  0  0
  5 10  2  0  0  0
  6 17  1  0  0  0
  6 12  2  0  0  0
  7 11  2  0  0  0
  8 10  1  0  0  0
  8 33  1  0  0  0
  9 11  1  0  0  0
  9 21  1  0  0  0
 10 19  1  0  0  0
 11 34  1  0  0  0
 12 18  1  0  0  0
 12 22  1  0  0  0
 13 20  1  0  0  0
 13 35  1  0  0  0
 14 31  1  0  0  0
 14 32  1  0  0  0
 17 23  2  0  0  0
 17 36  1  0  0  0
 18 20  2  0  0  0
 18 37  1  0  0  0
 19 24  1  0  0  0
 19 38  1  0  0  0
 20 23  1  0  0  0
 23 39  1  0  0  0
 24 27  1  0  0  0
 24 28  1  0  0  0
 24 40  1  0  0  0
 25 26  1  0  0  0
 25 41  1  0  0  0
 25 42  1  0  0  0
 26 30  1  0  0  0
 26 29  1  0  0  0
 26 43  1  0  0  0
 27 29  1  0  0  0
 27 44  1  0  0  0
 27 45  1  0  0  0
 28 30  1  0  0  0
 28 46  1  0  0  0
 28 47  1  0  0  0
 29 48  1  0  0  0
 29 49  1  0  0  0
 30 50  1  0  0  0
 30 51  1  0  0  0
 31 52  1  0  0  0
 31 53  1  0  0  0
 31 54  1  0  0  0
 32 55  1  0  0  0
 32 56  1  0  0  0
 32 57  1  0  0  0
M  END
> <s_m_entry_id>
32897

> <s_m_entry_name>
dock_pv.298

> <s_m_Source_Path>
/home/csk/Desktop/cluster/DUD-E-result/cdk2

> <s_m_Source_File>
dock_pv.maegz

> <i_m_Source_File_Index>
298

> <chembl_id>
CHEMBL178769

> <chembl_pref_name>
None

> <i_lp_mmshare_version>
53161

> <i_f3d_flags>
0

> <r_lp_tautomer_probability>
1

> <s_lp_Force_Field>
OPLS_2005

> <r_lp_Energy>
21.92341

> <b_lp_Chiralities_Consistent>
1

> <s_lp_Variant>
CHEMBL301_lig359-1

> <s_i_glide_gridfile>
glide-grid_1h00

> <i_i_glide_lignum>
542

> <i_i_glide_rotatable_bonds>
6

> <r_i_docking_score>
-7.49629114310562

> <r_i_glide_ligand_efficiency>
-0.234259098222051

> <r_i_glide_ligand_efficiency_sa>
-0.743726277042424

> <r_i_glide_ligand_efficiency_ln>
-1.67862392812032

> <r_i_glide_gscore>
-7.49629114310562

> <r_i_glide_lipo>
-2.45401781999264

> <r_i_glide_hbond>
-0.611684401134638

> <r_i_glide_metal>
0

> <r_i_glide_rewards>
-1.2544819145086

> <r_i_glide_evdw>
-46.2096710205078

> <r_i_glide_ecoul>
-7.94843435287476

> <r_i_glide_erotb>
0.350995059375584

> <r_i_glide_esite>
-0.0243533628887191

> <r_i_glide_emodel>
-71.617312762723

> <r_i_glide_energy>
-54.1581053733826

> <r_i_glide_einternal>
13.9635667800903

> <i_i_glide_confnum>
2

> <i_i_glide_posenum>
371

> <r_i_glide_eff_state_penalty>
0

> <s_user_duplicate_titles>
CHEMBL301_lig359,300694

> <s_m_subgroup_title>
dock_pv

> <s_m_subgroupid>
dock_pv

> <b_m_subgroup_collapsed>
1

$$$$
CHEMBL301_lig15
                    3D
 Schrodinger Suite 2021-1.
 56 58  0  0  1  0            999 V2000
   -0.7381   29.8625   10.0104 N   0  0  0  0  0  0
   -0.8364   30.8769    9.1398 C   0  0  0  0  0  0
    0.0138   31.2408    8.1727 N   0  0  0  0  0  0
    1.1548   30.5226    8.0203 C   0  0  0  0  0  0
    0.4106   29.1610    9.8415 C   0  0  0  0  0  0
    1.3964   29.4492    8.9105 C   0  0  0  0  0  0
    2.4275   28.5946    9.0191 N   0  0  0  0  0  0
    2.0866   27.8044   10.0103 C   0  0  0  0  0  0
    0.8546   28.0464   10.5092 N   0  0  0  0  0  0
    2.0099   30.8855    6.9829 N   0  0  0  0  0  0
    0.2330   27.3899   11.7362 C   0  0  2  0  0  0
    0.5863   26.0424   11.8793 O   0  0  0  0  0  0
   -0.2826   25.4831   12.8529 C   0  0  1  0  0  0
   -1.6236   26.0281   12.3728 C   0  0  2  0  0  0
   -1.2958   27.4789   11.9637 C   0  0  1  0  0  0
   -2.6375   25.9281   13.3612 O   0  0  0  0  0  0
   -1.5410   28.4508   12.9749 O   0  0  0  0  0  0
   -0.1314   23.9529   12.9754 C   0  0  0  0  0  0
   -0.2946   23.2248   11.7651 O   0  0  0  0  0  0
    0.4530   21.7793   11.5896 P   0  0  2  0  0  0
    1.2120   21.9542   10.1763 O   0  0  0  0  0  0
   -0.7687   20.7752   11.2289 O   0  0  0  0  0  0
    1.3206   21.3603   12.7237 O   0  0  0  0  0  0
    2.6355   21.4978    9.3764 P   0  0  1  0  0  0
    2.2115   20.6236    7.9971 O   0  0  0  0  0  0
    3.2584   22.9500    8.7513 O   0  0  0  0  0  0
    3.6239   20.7841   10.2676 O   0  0  0  0  0  0
    2.9486   19.9148    6.7531 P   0  0  2  0  0  0
    3.7388   21.1889    5.9724 N   0  0  2  0  0  0
    2.0627   19.0557    5.9286 O   0  0  0  0  0  0
    4.1665   19.1246    7.4646 O   0  0  0  0  0  0
    3.0568   22.0132    4.9762 C   0  0  0  0  0  0
    3.8191   23.2920    4.5684 C   0  0  0  0  0  0
    4.0575   24.2680    5.6497 C   0  0  0  0  0  0
    4.2615   25.0858    6.5335 C   0  0  0  0  0  0
   -1.7299   31.4786    9.2249 H   0  0  0  0  0  0
    2.6995   27.0148   10.4252 H   0  0  0  0  0  0
    2.9508   30.5126    6.9489 H   0  0  0  0  0  0
    1.7397   31.6685    6.4117 H   0  0  0  0  0  0
    0.7371   27.9200   12.5492 H   0  0  0  0  0  0
   -0.0411   25.9176   13.8277 H   0  0  0  0  0  0
   -1.9242   25.4672   11.4850 H   0  0  0  0  0  0
   -1.8096   27.7246   11.0337 H   0  0  0  0  0  0
   -2.6217   26.7401   13.8801 H   0  0  0  0  0  0
   -2.4872   28.6506   13.0470 H   0  0  0  0  0  0
   -0.8320   23.5679   13.7171 H   0  0  0  0  0  0
    0.8601   23.7659   13.3785 H   0  0  0  0  0  0
   -0.8508   19.9692   11.7863 H   0  0  0  0  0  0
    2.7198   23.4502    8.0937 H   0  0  0  0  0  0
    4.7545   21.1593    5.8909 H   0  0  0  0  0  0
    4.7289   18.6078    6.8601 H   0  0  0  0  0  0
    2.0616   22.2568    5.3511 H   0  0  0  0  0  0
    2.8953   21.4034    4.0861 H   0  0  0  0  0  0
    3.2713   23.8100    3.7799 H   0  0  0  0  0  0
    4.7886   23.0348    4.1410 H   0  0  0  0  0  0
    4.4451   25.8023    7.3038 H   0  0  0  0  0  0
  1  2  2  0  0  0
  1  5  1  0  0  0
  2  3  1  0  0  0
  2 36  1  0  0  0
  3  4  2  0  0  0
  4  6  1  0  0  0
  4 10  1  0  0  0
  5  9  1  0  0  0
  5  6  2  0  0  0
  6  7  1  0  0  0
  7  8  2  0  0  0
  8  9  1  0  0  0
  8 37  1  0  0  0
  9 11  1  0  0  0
 10 38  1  0  0  0
 10 39  1  0  0  0
 11 12  1  0  0  0
 11 15  1  0  0  0
 11 40  1  0  0  0
 12 13  1  0  0  0
 13 18  1  0  0  0
 13 14  1  0  0  0
 13 41  1  0  0  0
 14 15  1  0  0  0
 14 16  1  0  0  0
 14 42  1  0  0  0
 15 17  1  0  0  0
 15 43  1  0  0  0
 16 44  1  0  0  0
 17 45  1  0  0  0
 18 19  1  0  0  0
 18 46  1  0  0  0
 18 47  1  0  0  0
 19 20  1  0  0  0
 20 21  1  0  0  0
 20 22  1  0  0  0
 20 23  2  0  0  0
 21 24  1  0  0  0
 22 48  1  0  0  0
 24 25  1  0  0  0
 24 26  1  0  0  0
 24 27  2  0  0  0
 25 28  1  0  0  0
 26 49  1  0  0  0
 28 29  1  0  0  0
 28 30  2  0  0  0
 28 31  1  0  0  0
 29 32  1  0  0  0
 29 50  1  0  0  0
 31 51  1  0  0  0
 32 33  1  0  0  0
 32 52  1  0  0  0
 32 53  1  0  0  0
 33 34  1  0  0  0
 33 54  1  0  0  0
 33 55  1  0  0  0
 34 35  3  0  0  0
 35 56  1  0  0  0
M  END
> <s_m_entry_id>
32898

> <s_m_entry_name>
dock_pv.299

> <s_m_Source_Path>
/home/csk/Desktop/cluster/DUD-E-result/cdk2

> <s_m_Source_File>
dock_pv.maegz

> <i_m_Source_File_Index>
299

> <chembl_id>
CHEMBL551481

> <chembl_pref_name>
None

> <i_lp_mmshare_version>
53161

> <i_f3d_flags>
0

> <r_lp_tautomer_probability>
0.999997216410988

> <s_lp_Force_Field>
OPLS_2005

> <r_lp_Energy>
30.614247

> <b_lp_Chiralities_Consistent>
1

> <s_lp_Variant>
CHEMBL301_lig15-7

> <s_i_glide_gridfile>
glide-grid_1h00

> <i_i_glide_lignum>
78

> <i_i_glide_rotatable_bonds>
17

> <r_i_docking_score>
-7.49252545989297

> <r_i_glide_ligand_efficiency>
-0.214072155996942

> <r_i_glide_ligand_efficiency_sa>
-0.700244216601163

> <r_i_glide_ligand_efficiency_ln>
-1.64477562608975

> <r_i_glide_gscore>
-7.49252545989297

> <r_i_glide_lipo>
-1.20541971205416

> <r_i_glide_hbond>
-0.169737907701648

> <r_i_glide_metal>
0

> <r_i_glide_rewards>
-1.10131996474142

> <r_i_glide_evdw>
-39.6251678466797

> <r_i_glide_ecoul>
-24.3858203887939

> <r_i_glide_erotb>
0.722318564329077

> <r_i_glide_esite>
-0.0992349890717396

> <r_i_glide_emodel>
-85.6641298466069

> <r_i_glide_energy>
-64.0109882354736

> <r_i_glide_einternal>
19.5513248443604

> <i_i_glide_confnum>
344

> <i_i_glide_posenum>
217

> <r_i_glide_eff_state_penalty>
0

> <s_user_duplicate_titles>
CHEMBL301_lig15

> <s_m_subgroup_title>
dock_pv

> <s_m_subgroupid>
dock_pv

> <b_m_subgroup_collapsed>
1

$$$$
CHEMBL301_lig921
                    3D
 Schrodinger Suite 2021-1.
 38 40  0  0  1  0            999 V2000
   -0.6010   28.9580   10.0380 C   0  0  0  0  0  0
   -1.4124   30.0850    9.8228 C   0  0  0  0  0  0
   -1.0072   31.1249    8.9758 C   0  0  0  0  0  0
    0.6241   28.8463    9.3771 C   0  0  0  0  0  0
    1.0563   29.8521    8.4970 C   0  0  0  0  0  0
    0.2097   30.9731    8.3086 C   0  0  0  0  0  0
    0.8580   31.7857    7.4031 N   0  0  0  0  0  0
    2.0067   31.2481    6.9769 N   0  0  0  0  0  0
    2.1899   30.1341    7.6396 C   0  0  0  0  0  0
    3.3768   29.4514    7.4195 N   0  0  0  0  0  0
    3.9104   28.4119    8.0881 C   0  0  0  0  0  0
    5.2589   27.9112    7.5658 C   0  0  0  0  0  0
    3.4223   27.8651    9.0698 O   0  0  0  0  0  0
    5.1493   26.8531    6.4450 C   0  0  0  0  0  0
    4.6298   27.3976    5.1024 C   0  0  0  0  0  0
   -2.9751   30.1803   10.5662 Cl  0  0  0  0  0  0
   -0.9928   27.8556   10.9573 C   0  0  0  0  0  0
   -1.1938   28.1050   12.3191 C   0  0  0  0  0  0
   -1.5423   27.0687   13.1804 C   0  0  0  0  0  0
   -1.6880   25.7771   12.6821 C   0  0  0  0  0  0
   -1.4860   25.5134   11.3299 C   0  0  0  0  0  0
   -1.1345   26.5505   10.4714 C   0  0  0  0  0  0
   -1.9466   32.5572    8.7429 Cl  0  0  0  0  0  0
    1.2065   27.9593    9.5517 H   0  0  0  0  0  0
    0.5441   32.6799    7.0497 H   0  0  0  0  0  0
    3.9623   29.8784    6.7115 H   0  0  0  0  0  0
    5.7944   27.4776    8.4128 H   0  0  0  0  0  0
    5.8635   28.7537    7.2360 H   0  0  0  0  0  0
    4.5259   26.0189    6.7732 H   0  0  0  0  0  0
    6.1405   26.4289    6.2770 H   0  0  0  0  0  0
    4.6318   26.6180    4.3395 H   0  0  0  0  0  0
    5.2566   28.2137    4.7398 H   0  0  0  0  0  0
    3.6094   27.7706    5.1842 H   0  0  0  0  0  0
   -1.0889   29.1062   12.7124 H   0  0  0  0  0  0
   -1.7146   27.2747   14.2260 H   0  0  0  0  0  0
   -1.9700   24.9746   13.3469 H   0  0  0  0  0  0
   -1.6083   24.5109   10.9481 H   0  0  0  0  0  0
   -0.9807   26.3420    9.4227 H   0  0  0  0  0  0
  1  2  2  0  0  0
  1  4  1  0  0  0
  1 17  1  0  0  0
  2  3  1  0  0  0
  2 16  1  0  0  0
  3  6  2  0  0  0
  3 23  1  0  0  0
  4  5  2  0  0  0
  4 24  1  0  0  0
  5  9  1  0  0  0
  5  6  1  0  0  0
  6  7  1  0  0  0
  7  8  1  0  0  0
  7 25  1  0  0  0
  8  9  2  0  0  0
  9 10  1  0  0  0
 10 11  1  0  0  0
 10 26  1  0  0  0
 11 12  1  0  0  0
 11 13  2  0  0  0
 12 14  1  0  0  0
 12 27  1  0  0  0
 12 28  1  0  0  0
 14 15  1  0  0  0
 14 29  1  0  0  0
 14 30  1  0  0  0
 15 31  1  0  0  0
 15 32  1  0  0  0
 15 33  1  0  0  0
 17 18  2  0  0  0
 17 22  1  0  0  0
 18 19  1  0  0  0
 18 34  1  0  0  0
 19 20  2  0  0  0
 19 35  1  0  0  0
 20 21  1  0  0  0
 20 36  1  0  0  0
 21 22  2  0  0  0
 21 37  1  0  0  0
 22 38  1  0  0  0
M  END
> <s_m_entry_id>
32899

> <s_m_entry_name>
dock_pv.300

> <s_m_Source_Path>
/home/csk/Desktop/cluster/DUD-E-result/cdk2

> <s_m_Source_File>
dock_pv.maegz

> <i_m_Source_File_Index>
300

> <chembl_id>
CHEMBL1097003

> <chembl_pref_name>
None

> <i_lp_mmshare_version>
53161

> <i_f3d_flags>
0

> <r_lp_tautomer_probability>
0.980392156862745

> <s_lp_Force_Field>
OPLS_2005

> <r_lp_Energy>
17.034668

> <b_lp_Chiralities_Consistent>
1

> <s_lp_Variant>
CHEMBL301_lig921-1

> <s_i_glide_gridfile>
glide-grid_1h00

> <i_i_glide_lignum>
1297

> <i_i_glide_rotatable_bonds>
5

> <r_i_docking_score>
-7.49073027581355

> <r_i_glide_ligand_efficiency>
-0.325683925035372

> <r_i_glide_ligand_efficiency_sa>
-0.926201759308513

> <r_i_glide_ligand_efficiency_ln>
-1.81132650287858

> <r_i_glide_gscore>
-7.49073027581355

> <r_i_glide_lipo>
-3.16603515151878

> <r_i_glide_hbond>
-0.293912405285527

> <r_i_glide_metal>
0

> <r_i_glide_rewards>
-2.50686283242438

> <r_i_glide_evdw>
-39.3851852416992

> <r_i_glide_ecoul>
-1.21685469150543

> <r_i_glide_erotb>
0.627867579225906

> <r_i_glide_esite>
0

> <r_i_glide_emodel>
-54.8004743621351

> <r_i_glide_energy>
-40.6020399332047

> <r_i_glide_einternal>
6.39207410812378

> <i_i_glide_confnum>
10

> <i_i_glide_posenum>
354

> <r_i_glide_eff_state_penalty>
0

> <s_user_duplicate_titles>
CHEMBL301_lig921

> <s_m_subgroup_title>
dock_pv

> <s_m_subgroupid>
dock_pv

> <b_m_subgroup_collapsed>
1

$$$$
CHEMBL301_lig15
                    3D
 Schrodinger Suite 2021-1.
 56 58  0  0  1  0            999 V2000
    1.0006   29.3306    9.1634 N   0  0  0  0  0  0
    1.3852   30.1433    8.1675 C   0  0  0  0  0  0
    0.8581   31.3105    7.7759 N   0  0  0  0  0  0
   -0.2107   31.7791    8.4668 C   0  0  0  0  0  0
   -0.0894   29.8137    9.8068 C   0  0  0  0  0  0
   -0.7420   30.9976    9.5113 C   0  0  0  0  0  0
   -1.7619   31.2245   10.3478 N   0  0  0  0  0  0
   -1.7195   30.2034   11.1600 C   0  0  0  0  0  0
   -0.7516   29.3121   10.8923 N   0  0  0  0  0  0
   -0.6730   33.0523    8.1762 N   0  0  0  0  0  0
   -0.4566   28.0299   11.6442 C   0  0  2  0  0  0
   -0.1852   27.0077   10.7538 O   0  0  0  0  0  0
   -0.1546   25.7980   11.4838 C   0  0  1  0  0  0
   -1.4159   25.9306   12.3292 C   0  0  2  0  0  0
   -1.6215   27.4471   12.4636 C   0  0  1  0  0  0
   -1.2974   25.2543   13.5691 O   0  0  0  0  0  0
   -1.5420   27.9533   13.7760 O   0  0  0  0  0  0
   -0.1814   24.6516   10.4783 C   0  0  0  0  0  0
    0.8389   24.8444    9.5220 O   0  0  0  0  0  0
    2.3681   24.3908    9.8009 P   0  0  2  0  0  0
    3.1816   25.0698    8.5763 O   0  0  0  0  0  0
    2.3442   22.8330    9.3760 O   0  0  0  0  0  0
    2.8580   24.6521   11.1788 O   0  0  0  0  0  0
    4.4580   24.6744    7.5273 P   0  0  1  0  0  0
    4.1233   25.0749    5.8928 O   0  0  0  0  0  0
    5.6098   25.7437    8.1760 O   0  0  0  0  0  0
    4.8580   23.2280    7.6897 O   0  0  0  0  0  0
    4.3729   24.3692    4.4495 P   0  0  1  0  0  0
    5.9897   24.7485    4.1026 N   0  0  3  0  0  0
    4.0196   22.9260    4.4234 O   0  0  0  0  0  0
    3.5440   25.2644    3.3760 O   0  0  0  0  0  0
    6.6221   26.0606    4.2899 C   0  0  0  0  0  0
    5.9021   27.2612    3.6374 C   0  0  0  0  0  0
    4.8829   27.9016    4.4904 C   0  0  0  0  0  0
    4.0584   28.4410    5.2113 C   0  0  0  0  0  0
    2.2524   29.8166    7.6144 H   0  0  0  0  0  0
   -2.3419   30.0547   12.0220 H   0  0  0  0  0  0
   -1.3789   33.4471    8.7800 H   0  0  0  0  0  0
   -0.1636   33.6277    7.5163 H   0  0  0  0  0  0
    0.4416   28.2166   12.2410 H   0  0  0  0  0  0
    0.7455   25.7664   12.1032 H   0  0  0  0  0  0
   -2.2706   25.5216   11.7862 H   0  0  0  0  0  0
   -2.5657   27.7290   11.9938 H   0  0  0  0  0  0
   -0.9153   25.8892   14.1842 H   0  0  0  0  0  0
   -2.4360   28.2521   14.0384 H   0  0  0  0  0  0
   -1.1338   24.6521    9.9470 H   0  0  0  0  0  0
   -0.0801   23.6871   10.9790 H   0  0  0  0  0  0
    2.0574   22.7345    8.4399 H   0  0  0  0  0  0
    5.6625   25.8524    9.1561 H   0  0  0  0  0  0
    6.6332   23.9688    3.9705 H   0  0  0  0  0  0
    3.7313   25.0472    2.4260 H   0  0  0  0  0  0
    7.6186   25.9918    3.8514 H   0  0  0  0  0  0
    6.7858   26.2322    5.3559 H   0  0  0  0  0  0
    5.4378   26.9743    2.6930 H   0  0  0  0  0  0
    6.6296   28.0344    3.3886 H   0  0  0  0  0  0
    3.3479   28.9307    5.8357 H   0  0  0  0  0  0
  1  2  2  0  0  0
  1  5  1  0  0  0
  2  3  1  0  0  0
  2 36  1  0  0  0
  3  4  2  0  0  0
  4  6  1  0  0  0
  4 10  1  0  0  0
  5  9  1  0  0  0
  5  6  2  0  0  0
  6  7  1  0  0  0
  7  8  2  0  0  0
  8  9  1  0  0  0
  8 37  1  0  0  0
  9 11  1  0  0  0
 10 38  1  0  0  0
 10 39  1  0  0  0
 11 12  1  0  0  0
 11 15  1  0  0  0
 11 40  1  0  0  0
 12 13  1  0  0  0
 13 18  1  0  0  0
 13 14  1  0  0  0
 13 41  1  0  0  0
 14 15  1  0  0  0
 14 16  1  0  0  0
 14 42  1  0  0  0
 15 17  1  0  0  0
 15 43  1  0  0  0
 16 44  1  0  0  0
 17 45  1  0  0  0
 18 19  1  0  0  0
 18 46  1  0  0  0
 18 47  1  0  0  0
 19 20  1  0  0  0
 20 21  1  0  0  0
 20 22  1  0  0  0
 20 23  2  0  0  0
 21 24  1  0  0  0
 22 48  1  0  0  0
 24 25  1  0  0  0
 24 26  1  0  0  0
 24 27  2  0  0  0
 25 28  1  0  0  0
 26 49  1  0  0  0
 28 29  1  0  0  0
 28 30  2  0  0  0
 28 31  1  0  0  0
 29 32  1  0  0  0
 29 50  1  0  0  0
 31 51  1  0  0  0
 32 33  1  0  0  0
 32 52  1  0  0  0
 32 53  1  0  0  0
 33 34  1  0  0  0
 33 54  1  0  0  0
 33 55  1  0  0  0
 34 35  3  0  0  0
 35 56  1  0  0  0
M  END
> <s_m_entry_id>
32900

> <s_m_entry_name>
dock_pv.301

> <s_m_Source_Path>
/home/csk/Desktop/cluster/DUD-E-result/cdk2

> <s_m_Source_File>
dock_pv.maegz

> <i_m_Source_File_Index>
301

> <chembl_id>
CHEMBL551481

> <chembl_pref_name>
None

> <i_lp_mmshare_version>
53161

> <i_f3d_flags>
0

> <r_lp_tautomer_probability>
0.999997216410988

> <s_lp_Force_Field>
OPLS_2005

> <r_lp_Energy>
26.15413

> <b_lp_Chiralities_Consistent>
1

> <s_lp_Variant>
CHEMBL301_lig15-3

> <s_i_glide_gridfile>
glide-grid_1h00

> <i_i_glide_lignum>
74

> <i_i_glide_rotatable_bonds>
17

> <r_i_docking_score>
-7.49016088274192

> <r_i_glide_ligand_efficiency>
-0.214004596649769

> <r_i_glide_ligand_efficiency_sa>
-0.700023225496949

> <r_i_glide_ligand_efficiency_ln>
-1.64425654892613

> <r_i_glide_gscore>
-7.49016088274192

> <r_i_glide_lipo>
-1.0945635517711

> <r_i_glide_hbond>
-0.309015517253974

> <r_i_glide_metal>
0

> <r_i_glide_rewards>
-1.06760868227754

> <r_i_glide_evdw>
-36.1396369934082

> <r_i_glide_ecoul>
-25.5803394317627

> <r_i_glide_erotb>
0.722318564329077

> <r_i_glide_esite>
-0.0972589313335822

> <r_i_glide_emodel>
-85.6556345911989

> <r_i_glide_energy>
-61.7199764251709

> <r_i_glide_einternal>
19.3149604797363

> <i_i_glide_confnum>
343

> <i_i_glide_posenum>
327

> <r_i_glide_eff_state_penalty>
0

> <s_user_duplicate_titles>
CHEMBL301_lig15

> <s_m_subgroup_title>
dock_pv

> <s_m_subgroupid>
dock_pv

> <b_m_subgroup_collapsed>
1

$$$$
CHEMBL301_lig608
                    3D
 Schrodinger Suite 2021-1.
 44 46  0  0  1  0            999 V2000
   -0.5720   27.7651   11.3060 C   0  0  0  0  0  0
   -1.6142   28.6484   11.5796 C   0  0  0  0  0  0
   -1.7361   29.8466   10.8819 C   0  0  0  0  0  0
    0.3763   28.1184   10.3323 C   0  0  0  0  0  0
    0.2989   29.3403    9.6439 C   0  0  0  0  0  0
   -0.7952   30.1821    9.9046 C   0  0  0  0  0  0
   -0.9708   31.4721    9.1366 C   0  0  0  0  0  0
   -0.0404   31.6598    8.1758 N   0  0  0  0  0  0
    1.0131   30.9076    7.7762 C   0  0  0  0  0  0
    1.3365   29.7649    8.6477 C   0  0  0  0  0  0
    1.6578   31.2665    6.7898 O   0  0  0  0  0  0
   -1.8596   32.3018    9.3122 O   0  0  0  0  0  0
    2.5595   29.1785    8.5838 C   0  0  0  0  0  0
    3.6363   29.4528    7.7747 N   0  0  0  0  0  0
    4.9077   28.7507    7.7662 C   0  0  0  0  0  0
    4.7633   27.4243    7.0439 C   0  0  0  0  0  0
    4.5597   26.2572    7.7791 C   0  0  0  0  0  0
    4.3316   25.0469    7.1341 C   0  0  0  0  0  0
    4.3238   24.9746    5.7350 C   0  0  0  0  0  0
    4.5683   26.1473    4.9976 C   0  0  0  0  0  0
    4.7881   27.3630    5.6487 C   0  0  0  0  0  0
    4.0584   23.9348    7.8866 O   0  0  0  0  0  0
    4.0576   23.7404    5.1669 O   0  0  0  0  0  0
    3.9429   23.6399    3.7521 C   0  0  0  0  0  0
   -0.5534   26.5878   12.0274 O   0  0  0  0  0  0
    0.4754   25.6370   11.7826 C   0  0  0  0  0  0
   -2.3443   28.3994   12.3366 H   0  0  0  0  0  0
   -2.5686   30.5027   11.1051 H   0  0  0  0  0  0
    1.1791   27.4333   10.1203 H   0  0  0  0  0  0
   -0.1817   32.4930    7.6259 H   0  0  0  0  0  0
    2.8144   28.3710    9.2524 H   0  0  0  0  0  0
    3.5298   30.1205    7.0178 H   0  0  0  0  0  0
    5.2271   28.5621    8.7941 H   0  0  0  0  0  0
    5.6585   29.3872    7.3053 H   0  0  0  0  0  0
    4.5298   26.2933    8.8594 H   0  0  0  0  0  0
    4.5797   26.1367    3.9183 H   0  0  0  0  0  0
    4.9564   28.2594    5.0684 H   0  0  0  0  0  0
    3.5056   23.3341    7.3756 H   0  0  0  0  0  0
    3.6759   22.6187    3.4820 H   0  0  0  0  0  0
    4.8871   23.8789    3.2606 H   0  0  0  0  0  0
    3.1606   24.2939    3.3639 H   0  0  0  0  0  0
    0.3451   24.7885   12.4553 H   0  0  0  0  0  0
    0.4353   25.2569   10.7610 H   0  0  0  0  0  0
    1.4648   26.0522   11.9724 H   0  0  0  0  0  0
  1  2  2  0  0  0
  1  4  1  0  0  0
  1 25  1  0  0  0
  2  3  1  0  0  0
  2 27  1  0  0  0
  3  6  2  0  0  0
  3 28  1  0  0  0
  4  5  2  0  0  0
  4 29  1  0  0  0
  5 10  1  0  0  0
  5  6  1  0  0  0
  6  7  1  0  0  0
  7  8  1  0  0  0
  7 12  2  0  0  0
  8  9  1  0  0  0
  8 30  1  0  0  0
  9 10  1  0  0  0
  9 11  2  0  0  0
 10 13  2  0  0  0
 13 14  1  0  0  0
 13 31  1  0  0  0
 14 15  1  0  0  0
 14 32  1  0  0  0
 15 16  1  0  0  0
 15 33  1  0  0  0
 15 34  1  0  0  0
 16 17  2  0  0  0
 16 21  1  0  0  0
 17 18  1  0  0  0
 17 35  1  0  0  0
 18 19  2  0  0  0
 18 22  1  0  0  0
 19 20  1  0  0  0
 19 23  1  0  0  0
 20 21  2  0  0  0
 20 36  1  0  0  0
 21 37  1  0  0  0
 22 38  1  0  0  0
 23 24  1  0  0  0
 24 39  1  0  0  0
 24 40  1  0  0  0
 24 41  1  0  0  0
 25 26  1  0  0  0
 26 42  1  0  0  0
 26 43  1  0  0  0
 26 44  1  0  0  0
M  END
> <s_m_entry_id>
32901

> <s_m_entry_name>
dock_pv.302

> <s_m_Source_Path>
/home/csk/Desktop/cluster/DUD-E-result/cdk2

> <s_m_Source_File>
dock_pv.maegz

> <i_m_Source_File_Index>
302

> <chembl_id>
CHEMBL489246

> <chembl_pref_name>
None

> <i_lp_mmshare_version>
53161

> <i_f3d_flags>
0

> <r_lp_tautomer_probability>
0.49999999999931

> <s_lp_Force_Field>
OPLS_2005

> <r_lp_Energy>
32.594741

> <b_lp_Chiralities_Consistent>
1

> <s_lp_Variant>
CHEMBL301_lig608-1

> <s_i_glide_gridfile>
glide-grid_1h00

> <i_i_glide_lignum>
849

> <i_i_glide_rotatable_bonds>
6

> <r_i_docking_score>
-7.48678691203122

> <r_i_glide_ligand_efficiency>
-0.287953342770431

> <r_i_glide_ligand_efficiency_sa>
-0.853060644915712

> <r_i_glide_ligand_efficiency_ln>
-1.75824734013897

> <r_i_glide_gscore>
-7.48678691203122

> <r_i_glide_lipo>
-2.50250476573343

> <r_i_glide_hbond>
-0.215291658021512

> <r_i_glide_metal>
0

> <r_i_glide_rewards>
-2.00703079276741

> <r_i_glide_evdw>
-42.9228820800781

> <r_i_glide_ecoul>
-7.14883470535278

> <r_i_glide_erotb>
0.456509614297957

> <r_i_glide_esite>
0

> <r_i_glide_emodel>
-68.0659352670475

> <r_i_glide_energy>
-50.0717167854309

> <r_i_glide_einternal>
9.58740997314453

> <i_i_glide_confnum>
13

> <i_i_glide_posenum>
135

> <r_i_glide_eff_state_penalty>
0

> <s_user_duplicate_titles>
CHEMBL301_lig608

> <s_m_subgroup_title>
dock_pv

> <s_m_subgroupid>
dock_pv

> <b_m_subgroup_collapsed>
1

$$$$
CHEMBL301_lig1455
                    3D
 Schrodinger Suite 2021-1.
 52 54  0  0  1  0            999 V2000
   -0.7419   27.1254   13.1546 C   0  0  0  0  0  0
   -1.1575   28.2659   12.2097 C   0  0  1  0  0  0
   -1.1420   29.4520   12.9759 O   0  0  0  0  0  0
   -0.2749   28.4653   10.9482 C   0  0  1  0  0  0
   -0.0227   27.1581   10.1784 C   0  0  0  0  0  0
   -0.9895   29.3929   10.1188 O   0  0  0  0  0  0
   -0.3180   30.2613    9.2819 C   0  0  0  0  0  0
    0.7971   29.8117    8.6476 N   0  0  0  0  0  0
    1.3825   30.6395    7.7464 C   0  0  0  0  0  0
    2.4580   30.1822    6.9771 N   0  0  0  0  0  0
    3.2880   29.0520    7.0544 C   0  0  0  0  0  0
    3.9706   28.6538    5.8994 C   0  0  0  0  0  0
    4.8578   27.5852    5.9251 C   0  0  0  0  0  0
    5.0495   26.8780    7.1104 C   0  0  0  0  0  0
    4.3444   27.2448    8.2564 C   0  0  0  0  0  0
    3.4857   28.3398    8.2395 C   0  0  0  0  0  0
    6.1918   25.4955    7.1955 S   0  0  0  0  0  0
    7.2251   25.8528    8.1760 O   0  0  0  0  0  0
    5.3731   24.2915    7.3761 O   0  0  0  0  0  0
    6.9870   25.3530    5.5915 C   0  0  0  0  0  0
    6.2957   24.7618    4.5300 C   0  0  0  0  0  0
    6.8904   24.6895    3.2727 C   0  0  0  0  0  0
    8.1778   25.1934    3.0883 C   0  0  0  0  0  0
    8.8749   25.7726    4.1470 C   0  0  0  0  0  0
    8.2786   25.8519    5.4032 C   0  0  0  0  0  0
    0.9753   31.9023    7.4725 N   0  0  0  0  0  0
   -0.0926   32.3599    8.1760 C   0  0  0  0  0  0
   -0.8144   31.5544    9.0653 C   0  0  0  0  0  0
   -2.0495   32.0896    9.7783 C   0  0  0  0  0  0
   -1.9422   33.4069    9.9537 F   0  0  0  0  0  0
   -3.1202   31.8284    9.0288 F   0  0  0  0  0  0
   -2.2331   31.5414   10.9750 F   0  0  0  0  0  0
   -0.8823   26.1512   12.6880 H   0  0  0  0  0  0
   -1.3383   27.1272   14.0686 H   0  0  0  0  0  0
    0.3071   27.2110   13.4405 H   0  0  0  0  0  0
   -2.1880   28.0891   11.8955 H   0  0  0  0  0  0
   -2.0210   29.5638   13.3609 H   0  0  0  0  0  0
    0.6894   28.8788   11.2567 H   0  0  0  0  0  0
    0.4222   26.3907   10.8100 H   0  0  0  0  0  0
   -0.9410   26.7586    9.7470 H   0  0  0  0  0  0
    0.6889   27.3247    9.3761 H   0  0  0  0  0  0
    2.7760   30.8551    6.2953 H   0  0  0  0  0  0
    3.8460   29.2035    4.9788 H   0  0  0  0  0  0
    5.3953   27.3358    5.0218 H   0  0  0  0  0  0
    4.4578   26.6867    9.1695 H   0  0  0  0  0  0
    2.9837   28.6233    9.1522 H   0  0  0  0  0  0
    5.2958   24.3772    4.6724 H   0  0  0  0  0  0
    6.3518   24.2516    2.4431 H   0  0  0  0  0  0
    8.6396   25.1394    2.1124 H   0  0  0  0  0  0
    9.8695   26.1674    3.9925 H   0  0  0  0  0  0
    8.8133   26.3195    6.2182 H   0  0  0  0  0  0
   -0.3919   33.3781    7.9648 H   0  0  0  0  0  0
  1  2  1  0  0  0
  1 33  1  0  0  0
  1 34  1  0  0  0
  1 35  1  0  0  0
  2  3  1  0  0  0
  2  4  1  0  0  0
  2 36  1  0  0  0
  3 37  1  0  0  0
  4  5  1  0  0  0
  4  6  1  0  0  0
  4 38  1  0  0  0
  5 39  1  0  0  0
  5 40  1  0  0  0
  5 41  1  0  0  0
  6  7  1  0  0  0
  7  8  2  0  0  0
  7 28  1  0  0  0
  8  9  1  0  0  0
  9 10  1  0  0  0
  9 26  2  0  0  0
 10 11  1  0  0  0
 10 42  1  0  0  0
 11 12  2  0  0  0
 11 16  1  0  0  0
 12 13  1  0  0  0
 12 43  1  0  0  0
 13 14  2  0  0  0
 13 44  1  0  0  0
 14 15  1  0  0  0
 14 17  1  0  0  0
 15 16  2  0  0  0
 15 45  1  0  0  0
 16 46  1  0  0  0
 17 18  2  0  0  0
 17 19  2  0  0  0
 17 20  1  0  0  0
 20 21  2  0  0  0
 20 25  1  0  0  0
 21 22  1  0  0  0
 21 47  1  0  0  0
 22 23  2  0  0  0
 22 48  1  0  0  0
 23 24  1  0  0  0
 23 49  1  0  0  0
 24 25  2  0  0  0
 24 50  1  0  0  0
 25 51  1  0  0  0
 26 27  1  0  0  0
 27 28  2  0  0  0
 27 52  1  0  0  0
 28 29  1  0  0  0
 29 30  1  0  0  0
 29 31  1  0  0  0
 29 32  1  0  0  0
M  END
> <s_m_entry_id>
32902

> <s_m_entry_name>
dock_pv.303

> <s_m_Source_Path>
/home/csk/Desktop/cluster/DUD-E-result/cdk2

> <s_m_Source_File>
dock_pv.maegz

> <i_m_Source_File_Index>
303

> <chembl_id>
CHEMBL3644020

> <chembl_pref_name>
None

> <i_lp_mmshare_version>
53161

> <i_f3d_flags>
0

> <r_lp_tautomer_probability>
0.999999917912647

> <s_lp_Force_Field>
OPLS_2005

> <r_lp_Energy>
9.860595

> <b_lp_Chiralities_Consistent>
1

> <s_lp_Variant>
CHEMBL301_lig1455-1

> <s_i_glide_gridfile>
glide-grid_1h00

> <i_i_glide_lignum>
1968

> <i_i_glide_rotatable_bonds>
9

> <r_i_docking_score>
-7.48395416777824

> <r_i_glide_ligand_efficiency>
-0.23387356774307

> <r_i_glide_ligand_efficiency_sa>
-0.742502294068038

> <r_i_glide_ligand_efficiency_ln>
-1.67586134305127

> <r_i_glide_gscore>
-7.48395416777824

> <r_i_glide_lipo>
-2.67237502485505

> <r_i_glide_hbond>
-0.166170021383856

> <r_i_glide_metal>
0

> <r_i_glide_rewards>
-1.70149945927528

> <r_i_glide_evdw>
-45.5808296203613

> <r_i_glide_ecoul>
-8.29540729522705

> <r_i_glide_erotb>
0.646517573340205

> <r_i_glide_esite>
-0.0670746603021326

> <r_i_glide_emodel>
-72.5049556334148

> <r_i_glide_energy>
-53.8762369155884

> <r_i_glide_einternal>
12.806300163269

> <i_i_glide_confnum>
10

> <i_i_glide_posenum>
97

> <r_i_glide_eff_state_penalty>
0

> <s_user_duplicate_titles>
CHEMBL301_lig1455

> <s_m_subgroup_title>
dock_pv

> <s_m_subgroupid>
dock_pv

> <b_m_subgroup_collapsed>
1

$$$$
CHEMBL301_lig628
                    3D
 Schrodinger Suite 2021-1.
 33 35  0  0  1  0            999 V2000
    3.6474   28.9524    8.0268 C   0  0  0  0  0  0
    3.4810   27.9548    8.9761 C   0  0  0  0  0  0
    2.2862   27.8317    9.6929 C   0  0  0  0  0  0
    2.6216   29.8580    7.7909 C   0  0  0  0  0  0
    1.4248   29.7572    8.5003 C   0  0  0  0  0  0
    1.2011   28.7010    9.4107 C   0  0  0  0  0  0
   -0.6260   30.8815    8.9763 C   0  0  0  0  0  0
    0.4828   30.7227    8.2007 O   0  0  0  0  0  0
   -1.0236   29.7643    9.9052 C   0  0  0  0  0  0
   -0.1729   28.6425   10.0274 C   0  0  0  0  0  0
   -0.6694   27.5015   10.6747 C   0  0  0  0  0  0
   -1.8655   27.5183   11.3760 C   0  0  0  0  0  0
   -2.6317   28.6710   11.3760 C   0  0  0  0  0  0
   -2.2465   29.7738   10.6097 C   0  0  0  0  0  0
   -1.2514   31.9251    8.7925 O   0  0  0  0  0  0
   -3.1097   30.8392   10.5760 O   0  0  0  0  0  0
   -2.3077   26.3730   11.9792 O   0  0  0  0  0  0
    2.2697   26.7853   10.7982 C   0  0  0  0  0  0
    4.8316   29.0520    7.3521 O   0  0  0  0  0  0
   -1.7505   26.0200   13.5113 S   0  0  0  0  0  0
   -2.9875   26.6520   14.4150 O   0  0  0  0  0  0
   -1.7735   24.5638   13.6840 O   0  0  0  0  0  0
   -0.5333   26.7947   13.7762 O   0  0  0  0  0  0
    4.3059   27.2863    9.1791 H   0  0  0  0  0  0
    2.7586   30.6519    7.0714 H   0  0  0  0  0  0
   -0.1521   26.5604   10.6514 H   0  0  0  0  0  0
   -3.5761   28.6691   11.8952 H   0  0  0  0  0  0
   -3.5420   30.9471   11.4467 H   0  0  0  0  0  0
    1.6582   27.0972   11.6435 H   0  0  0  0  0  0
    3.2580   26.6523   11.2278 H   0  0  0  0  0  0
    1.9332   25.8192   10.4227 H   0  0  0  0  0  0
    4.8578   29.8093    6.7550 H   0  0  0  0  0  0
   -3.1421   27.6121   14.2193 H   0  0  0  0  0  0
  1  2  2  0  0  0
  1 19  1  0  0  0
  1  4  1  0  0  0
  2  3  1  0  0  0
  2 24  1  0  0  0
  3  6  2  0  0  0
  3 18  1  0  0  0
  4  5  2  0  0  0
  4 25  1  0  0  0
  5  8  1  0  0  0
  5  6  1  0  0  0
  6 10  1  0  0  0
  7 15  2  0  0  0
  7  9  1  0  0  0
  7  8  1  0  0  0
  9 14  1  0  0  0
  9 10  2  0  0  0
 10 11  1  0  0  0
 11 12  2  0  0  0
 11 26  1  0  0  0
 12 13  1  0  0  0
 12 17  1  0  0  0
 13 14  2  0  0  0
 13 27  1  0  0  0
 14 16  1  0  0  0
 16 28  1  0  0  0
 17 20  1  0  0  0
 18 29  1  0  0  0
 18 30  1  0  0  0
 18 31  1  0  0  0
 19 32  1  0  0  0
 20 21  1  0  0  0
 20 22  2  0  0  0
 20 23  2  0  0  0
 21 33  1  0  0  0
M  END
> <s_m_entry_id>
32903

> <s_m_entry_name>
dock_pv.304

> <s_m_Source_Path>
/home/csk/Desktop/cluster/DUD-E-result/cdk2

> <s_m_Source_File>
dock_pv.maegz

> <i_m_Source_File_Index>
304

> <chembl_id>
CHEMBL483525

> <chembl_pref_name>
None

> <i_lp_mmshare_version>
53161

> <i_f3d_flags>
0

> <r_lp_tautomer_probability>
1

> <s_lp_Force_Field>
OPLS_2005

> <r_lp_Energy>
29.46629

> <b_lp_Chiralities_Consistent>
1

> <s_lp_Variant>
CHEMBL301_lig628-1

> <s_i_glide_gridfile>
glide-grid_1h00

> <i_i_glide_lignum>
869

> <i_i_glide_rotatable_bonds>
5

> <r_i_docking_score>
-7.48215617997924

> <r_i_glide_ligand_efficiency>
-0.325311138259967

> <r_i_glide_ligand_efficiency_sa>
-0.925141603308522

> <r_i_glide_ligand_efficiency_ln>
-1.80925320876024

> <r_i_glide_gscore>
-7.48215617997924

> <r_i_glide_lipo>
-2.19414992260928

> <r_i_glide_hbond>
-0.288

> <r_i_glide_metal>
0

> <r_i_glide_rewards>
-1.29423212121212

> <r_i_glide_evdw>
-30.2059268951416

> <r_i_glide_ecoul>
-16.7410526275635

> <r_i_glide_erotb>
0.330479441622716

> <r_i_glide_esite>
-0.0147993388889526

> <r_i_glide_emodel>
-68.0018384495718

> <r_i_glide_energy>
-46.9469795227051

> <r_i_glide_einternal>
4.01790857315063

> <i_i_glide_confnum>
1

> <i_i_glide_posenum>
163

> <r_i_glide_eff_state_penalty>
0

> <s_user_duplicate_titles>
CHEMBL301_lig628

> <s_m_subgroup_title>
dock_pv

> <s_m_subgroupid>
dock_pv

> <b_m_subgroup_collapsed>
1

$$$$
CHEMBL301_lig188
                    3D
 Schrodinger Suite 2021-1.
 36 39  0  0  1  0            999 V2000
    0.7864   27.7262   10.4838 C   0  0  0  0  0  0
    1.8832   26.6989   10.5788 C   0  0  0  0  0  0
    1.1993   28.6524    9.5547 C   0  0  0  0  0  0
   -0.4712   27.8839   11.0921 C   0  0  0  0  0  0
    2.8578   27.1697    9.7705 N   0  0  0  0  0  0
    2.4631   28.3288    9.1153 C   0  0  0  0  0  0
    0.4431   29.7557    9.1081 C   0  0  0  0  0  0
   -0.8542   29.8696    9.7110 C   0  0  0  0  0  0
   -1.2820   28.9576   10.6860 C   0  0  0  0  0  0
   -0.9856   26.9829   12.1622 C   0  0  0  0  0  0
   -0.1876   26.4720   13.1566 N   0  0  0  0  0  0
    1.0870   30.5770    8.1247 C   0  0  0  0  0  0
    1.9327   25.6640   11.2426 O   0  0  0  0  0  0
    3.0744   29.1374    8.1627 C   0  0  0  0  0  0
   -2.2715   26.5096   12.4257 C   0  0  0  0  0  0
   -0.9180   25.6964   14.0150 C   0  0  0  0  0  0
   -2.2307   25.7088   13.5722 C   0  0  0  0  0  0
   -1.9420   31.1316    9.1024 S   0  0  0  0  0  0
    2.3783   30.2514    7.6762 C   0  0  0  0  0  0
    0.5070   31.6992    7.6441 F   0  0  0  0  0  0
   -2.3421   34.2502   11.6737 O   0  0  0  0  0  0
   -1.5782   32.6536   10.0158 C   0  0  0  0  0  0
   -2.6523   33.0259   11.0442 C   0  0  0  0  0  0
    3.7626   26.7203    9.6939 H   0  0  0  0  0  0
   -2.2598   29.0891   11.1280 H   0  0  0  0  0  0
    0.8092   26.6429   13.2232 H   0  0  0  0  0  0
    4.0675   28.9207    7.7961 H   0  0  0  0  0  0
   -3.1540   26.7255   11.8405 H   0  0  0  0  0  0
   -0.4402   25.2064   14.8494 H   0  0  0  0  0  0
   -3.0675   25.1982   14.0235 H   0  0  0  0  0  0
    2.8576   30.8835    6.9469 H   0  0  0  0  0  0
   -2.5363   34.9635   11.0582 H   0  0  0  0  0  0
   -0.6072   32.5548   10.5019 H   0  0  0  0  0  0
   -1.4783   33.4529    9.2814 H   0  0  0  0  0  0
   -3.6279   33.0974   10.5764 H   0  0  0  0  0  0
   -2.7412   32.2521   11.7957 H   0  0  0  0  0  0
  1  2  1  0  0  0
  1  3  1  0  0  0
  1  4  2  0  0  0
  2  5  1  0  0  0
  2 13  2  0  0  0
  3  6  1  0  0  0
  3  7  2  0  0  0
  4  9  1  0  0  0
  4 10  1  0  0  0
  5  6  1  0  0  0
  5 24  1  0  0  0
  6 14  2  0  0  0
  7 12  1  0  0  0
  7  8  1  0  0  0
  8  9  2  0  0  0
  8 18  1  0  0  0
  9 25  1  0  0  0
 10 11  1  0  0  0
 10 15  2  0  0  0
 11 16  1  0  0  0
 11 26  1  0  0  0
 12 19  2  0  0  0
 12 20  1  0  0  0
 14 19  1  0  0  0
 14 27  1  0  0  0
 15 17  1  0  0  0
 15 28  1  0  0  0
 16 17  2  0  0  0
 16 29  1  0  0  0
 17 30  1  0  0  0
 18 22  1  0  0  0
 19 31  1  0  0  0
 21 23  1  0  0  0
 21 32  1  0  0  0
 22 23  1  0  0  0
 22 33  1  0  0  0
 22 34  1  0  0  0
 23 35  1  0  0  0
 23 36  1  0  0  0
M  END
> <s_m_entry_id>
32904

> <s_m_entry_name>
dock_pv.305

> <s_m_Source_Path>
/home/csk/Desktop/cluster/DUD-E-result/cdk2

> <s_m_Source_File>
dock_pv.maegz

> <i_m_Source_File_Index>
305

> <chembl_id>
CHEMBL83369

> <chembl_pref_name>
None

> <i_lp_mmshare_version>
53161

> <i_f3d_flags>
0

> <r_lp_tautomer_probability>
1

> <s_lp_Force_Field>
OPLS_2005

> <r_lp_Energy>
56.270785

> <b_lp_Chiralities_Consistent>
1

> <s_lp_Variant>
CHEMBL301_lig188-1

> <s_i_glide_gridfile>
glide-grid_1h00

> <i_i_glide_lignum>
329

> <i_i_glide_rotatable_bonds>
5

> <r_i_docking_score>
-7.48153996431908

> <r_i_glide_ligand_efficiency>
-0.325284346274743

> <r_i_glide_ligand_efficiency_sa>
-0.925065410466497

> <r_i_glide_ligand_efficiency_ln>
-1.80910420222608

> <r_i_glide_gscore>
-7.48153996431908

> <r_i_glide_lipo>
-3.11317372410464

> <r_i_glide_hbond>
-0.475178575710442

> <r_i_glide_metal>
0

> <r_i_glide_rewards>
-1.60551181000212

> <r_i_glide_evdw>
-37.4540061950684

> <r_i_glide_ecoul>
-7.2088508605957

> <r_i_glide_erotb>
0.696727404537216

> <r_i_glide_esite>
-0.0303753201963209

> <r_i_glide_emodel>
-62.1583242603002

> <r_i_glide_energy>
-44.6628570556641

> <r_i_glide_einternal>
3.90389728546143

> <i_i_glide_confnum>
52

> <i_i_glide_posenum>
188

> <r_i_glide_eff_state_penalty>
0

> <s_user_duplicate_titles>
CHEMBL301_lig188,130676

> <s_m_subgroup_title>
dock_pv

> <s_m_subgroupid>
dock_pv

> <b_m_subgroup_collapsed>
1

$$$$
CHEMBL301_lig8
                    3D
 Schrodinger Suite 2021-1.
 60 63  0  0  1  0            999 V2000
    1.7639   28.2527    9.7914 N   0  0  0  0  0  0
    2.8593   27.5181    9.5533 C   0  0  0  0  0  0
    3.7615   27.6479    8.5774 N   0  0  0  0  0  0
    3.5883   28.6536    7.6854 C   0  0  0  0  0  0
    1.6424   29.2856    8.9208 C   0  0  0  0  0  0
    2.4885   29.5337    7.8522 C   0  0  0  0  0  0
    2.0607   30.5851    7.1303 N   0  0  0  0  0  0
    1.0047   31.0079    7.7692 C   0  0  0  0  0  0
    0.6680   30.2499    8.8321 N   0  0  0  0  0  0
    4.4783   28.7145    6.6230 N   0  0  0  0  0  0
   -0.5085   30.4960    9.7659 C   0  0  2  0  0  0
   -0.7701   29.3696   10.5354 O   0  0  0  0  0  0
   -2.0237   29.5315   11.1559 C   0  0  1  0  0  0
   -2.7998   30.0314    9.9262 C   0  0  2  0  0  0
   -1.8073   30.7945    9.0500 C   0  0  1  0  0  0
   -3.9422   30.8010   10.1769 O   0  0  0  0  0  0
   -1.9546   32.2109    8.9765 O   0  0  0  0  0  0
   -2.4349   28.1669   11.7459 C   0  0  0  0  0  0
   -1.6086   27.8534   12.8647 O   0  0  0  0  0  0
   -1.8323   26.5165   13.7809 P   0  0  2  0  0  0
   -0.8359   25.4445   13.1176 O   0  0  0  0  0  0
   -3.2919   25.9373   13.3635 O   0  0  0  0  0  0
   -1.6226   26.6751   15.2456 O   0  0  0  0  0  0
   -0.5968   24.5896   11.6890 P   0  0  2  0  0  0
   -0.9034   23.0044   12.2293 O   0  0  0  0  0  0
    1.0642   24.7449   11.3418 O   0  0  0  0  0  0
   -1.5074   25.0510   10.5752 O   0  0  0  0  0  0
   -0.4263   22.0558   13.4487 P   0  0  2  0  0  0
   -1.7662   21.0533   13.7135 N   0  0  0  0  0  0
    0.0662   22.8066   14.6335 O   0  0  0  0  0  0
    0.6555   21.0798   12.7443 O   0  0  0  0  0  0
   -2.9561   21.3789   14.4028 C   0  0  0  0  0  0
   -3.9549   20.4141   14.4747 C   0  0  0  0  0  0
   -5.1507   20.6888   15.1313 C   0  0  0  0  0  0
   -5.3798   21.9453   15.7165 C   0  0  0  0  0  0
   -4.3763   22.9123   15.6180 C   0  0  0  0  0  0
   -3.1713   22.6365   14.9760 C   0  0  0  0  0  0
   -6.5618   22.2914   16.3828 N   0  0  0  0  0  0
   -7.4330   21.4647   16.6532 N   0  3  0  0  0  0
   -8.3222   20.7667   16.7928 N   0  5  0  0  0  0
    3.0354   26.7018   10.2387 H   0  0  0  0  0  0
    0.4192   31.8710    7.4900 H   0  0  0  0  0  0
    4.5658   29.6222    6.1744 H   0  0  0  0  0  0
    5.2614   28.0795    6.6466 H   0  0  0  0  0  0
   -0.3312   31.2963   10.4826 H   0  0  0  0  0  0
   -1.9456   30.2892   11.9392 H   0  0  0  0  0  0
   -3.1117   29.1601    9.3744 H   0  0  0  0  0  0
   -1.7755   30.3578    8.0562 H   0  0  0  0  0  0
   -3.9407   31.0493   11.1160 H   0  0  0  0  0  0
   -1.4352   32.5567    8.2489 H   0  0  0  0  0  0
   -3.4760   28.2072   12.0676 H   0  0  0  0  0  0
   -2.3412   27.3918   10.9858 H   0  0  0  0  0  0
   -3.3985   25.6783   12.4256 H   0  0  0  0  0  0
    1.4815   25.6239   11.2597 H   0  0  0  0  0  0
   -1.7591   20.1322   13.2567 H   0  0  0  0  0  0
    1.0392   21.4202   11.9164 H   0  0  0  0  0  0
   -3.8052   19.4514   14.0107 H   0  0  0  0  0  0
   -5.9025   19.9144   15.1721 H   0  0  0  0  0  0
   -4.5308   23.8937   16.0417 H   0  0  0  0  0  0
   -2.4250   23.4155   14.9168 H   0  0  0  0  0  0
  1  2  2  0  0  0
  1  5  1  0  0  0
  2  3  1  0  0  0
  2 41  1  0  0  0
  3  4  2  0  0  0
  4  6  1  0  0  0
  4 10  1  0  0  0
  5  9  1  0  0  0
  5  6  2  0  0  0
  6  7  1  0  0  0
  7  8  2  0  0  0
  8  9  1  0  0  0
  8 42  1  0  0  0
  9 11  1  0  0  0
 10 43  1  0  0  0
 10 44  1  0  0  0
 11 12  1  0  0  0
 11 15  1  0  0  0
 11 45  1  0  0  0
 12 13  1  0  0  0
 13 14  1  0  0  0
 13 18  1  0  0  0
 13 46  1  0  0  0
 14 15  1  0  0  0
 14 16  1  0  0  0
 14 47  1  0  0  0
 15 17  1  0  0  0
 15 48  1  0  0  0
 16 49  1  0  0  0
 17 50  1  0  0  0
 18 19  1  0  0  0
 18 51  1  0  0  0
 18 52  1  0  0  0
 19 20  1  0  0  0
 20 21  1  0  0  0
 20 22  1  0  0  0
 20 23  2  0  0  0
 21 24  1  0  0  0
 22 53  1  0  0  0
 24 25  1  0  0  0
 24 26  1  0  0  0
 24 27  2  0  0  0
 25 28  1  0  0  0
 26 54  1  0  0  0
 28 29  1  0  0  0
 28 30  2  0  0  0
 28 31  1  0  0  0
 29 32  1  0  0  0
 29 55  1  0  0  0
 31 56  1  0  0  0
 32 33  2  0  0  0
 32 37  1  0  0  0
 33 34  1  0  0  0
 33 57  1  0  0  0
 34 35  2  0  0  0
 34 58  1  0  0  0
 35 36  1  0  0  0
 35 38  1  0  0  0
 36 37  2  0  0  0
 36 59  1  0  0  0
 37 60  1  0  0  0
 38 39  2  0  0  0
 39 40  2  0  0  0
M  CHG  2  39   1  40  -1
M  END
> <s_m_entry_id>
32905

> <s_m_entry_name>
dock_pv.306

> <s_m_Source_Path>
/home/csk/Desktop/cluster/DUD-E-result/cdk2

> <s_m_Source_File>
dock_pv.maegz

> <i_m_Source_File_Index>
306

> <chembl_id>
CHEMBL558335

> <chembl_pref_name>
None

> <i_lp_mmshare_version>
53161

> <i_f3d_flags>
0

> <r_lp_tautomer_probability>
0.999997216410988

> <s_lp_Force_Field>
OPLS_2005

> <r_lp_Energy>
38.585849

> <b_lp_Chiralities_Consistent>
1

> <s_lp_Variant>
CHEMBL301_lig8-5

> <s_i_glide_gridfile>
glide-grid_1h00

> <i_i_glide_lignum>
20

> <i_i_glide_rotatable_bonds>
16

> <r_i_docking_score>
-7.48086658341918

> <r_i_glide_ligand_efficiency>
-0.187021664585479

> <r_i_glide_ligand_efficiency_sa>
-0.639605095110738

> <r_i_glide_ligand_efficiency_ln>
-1.59544869016746

> <r_i_glide_gscore>
-7.48086658341918

> <r_i_glide_lipo>
-1.00097422064322

> <r_i_glide_hbond>
-0.48

> <r_i_glide_metal>
0

> <r_i_glide_rewards>
-1.29894190230719

> <r_i_glide_evdw>
-53.1665000915527

> <r_i_glide_ecoul>
-15.1626348495483

> <r_i_glide_erotb>
0.463759683740915

> <r_i_glide_esite>
-0.231989912199786

> <r_i_glide_emodel>
-93.2428861318863

> <r_i_glide_energy>
-68.3291349411011

> <r_i_glide_einternal>
21.7729930877686

> <i_i_glide_confnum>
16

> <i_i_glide_posenum>
51

> <r_i_glide_eff_state_penalty>
0

> <s_user_duplicate_titles>
CHEMBL301_lig8

> <s_m_subgroup_title>
dock_pv

> <s_m_subgroupid>
dock_pv

> <b_m_subgroup_collapsed>
1

$$$$
CHEMBL301_lig9
                    3D
 Schrodinger Suite 2021-1.
 55 57  0  0  1  0            999 V2000
    0.4924   29.4358    9.2471 N   0  0  0  0  0  0
    0.0275   30.5794    8.7206 C   0  0  0  0  0  0
   -1.1221   31.2201    8.9757 N   0  0  0  0  0  0
   -1.9692   30.6629    9.8790 C   0  0  0  0  0  0
   -0.3881   28.8881   10.1212 C   0  0  0  0  0  0
   -1.6088   29.4349   10.4790 C   0  0  0  0  0  0
   -2.2453   28.6667   11.3756 N   0  0  0  0  0  0
   -1.4221   27.6758   11.5895 C   0  0  0  0  0  0
   -0.2987   27.7258   10.8428 N   0  0  0  0  0  0
   -3.1479   31.3374   10.1761 N   0  0  0  0  0  0
    0.8777   26.7720   10.9537 C   0  0  2  0  0  0
    1.6722   26.7685    9.8031 O   0  0  0  0  0  0
    2.5904   25.6912    9.9343 C   0  0  1  0  0  0
    1.5996   24.5844   10.2958 C   0  0  2  0  0  0
    0.5067   25.2892   11.1224 C   0  0  1  0  0  0
    2.1979   23.4530   10.9126 O   0  0  0  0  0  0
    0.4492   24.9836   12.5077 O   0  0  0  0  0  0
    3.4148   25.4431    8.6492 C   0  0  0  0  0  0
    4.0454   26.6258    8.1957 O   0  0  0  0  0  0
    5.2529   26.5417    7.1095 P   0  0  1  0  0  0
    4.5212   26.1897    5.7028 O   0  0  0  0  0  0
    5.6578   28.0952    6.9337 O   0  0  0  0  0  0
    6.3774   25.6405    7.4780 O   0  0  0  0  0  0
    4.9485   25.5344    4.1770 P   0  0  2  0  0  0
    5.2284   26.8559    3.1573 O   0  0  0  0  0  0
    3.6082   24.8414    3.3763 O   0  0  0  0  0  0
    6.1375   24.6075    4.2426 O   0  0  0  0  0  0
    6.3328   27.3801    2.1070 P   0  0  1  0  0  0
    7.3747   26.1347    1.9799 O   0  0  0  0  0  0
    5.7690   27.8946    0.8299 O   0  0  0  0  0  0
    7.1490   28.4731    2.9741 O   0  0  0  0  0  0
    8.6592   26.2708    1.3801 C   0  0  0  0  0  0
    8.6635   26.8655   -0.0573 C   0  0  0  0  0  0
    7.6915   26.2717   -0.9623 N   0  0  0  0  0  0
    7.6002   25.0427   -0.9616 N   0  3  0  0  0  0
    7.6626   23.9048   -0.9881 N   0  5  0  0  0  0
    0.6814   31.0603    8.0072 H   0  0  0  0  0  0
   -1.5829   26.8752   12.2973 H   0  0  0  0  0  0
   -3.5415   31.1550   11.0991 H   0  0  0  0  0  0
   -3.2483   32.2525    9.7646 H   0  0  0  0  0  0
    1.4887   27.1542   11.7745 H   0  0  0  0  0  0
    3.2574   25.9024   10.7709 H   0  0  0  0  0  0
    1.1271   24.2489    9.3760 H   0  0  0  0  0  0
   -0.4668   25.1111   10.6603 H   0  0  0  0  0  0
    1.5671   22.7291   10.8937 H   0  0  0  0  0  0
    0.1707   24.0711   12.6147 H   0  0  0  0  0  0
    2.8170   25.0521    7.8349 H   0  0  0  0  0  0
    4.1716   24.6871    8.8681 H   0  0  0  0  0  0
    6.5188   28.2432    6.4850 H   0  0  0  0  0  0
    3.6605   24.6516    2.3998 H   0  0  0  0  0  0
    7.3032   28.2528    3.9247 H   0  0  0  0  0  0
    9.1331   25.2884    1.3755 H   0  0  0  0  0  0
    9.2934   26.8840    2.0236 H   0  0  0  0  0  0
    9.6645   26.7717   -0.4856 H   0  0  0  0  0  0
    8.4645   27.9378   -0.0030 H   0  0  0  0  0  0
  1  2  2  0  0  0
  1  5  1  0  0  0
  2  3  1  0  0  0
  2 37  1  0  0  0
  3  4  2  0  0  0
  4  6  1  0  0  0
  4 10  1  0  0  0
  5  9  1  0  0  0
  5  6  2  0  0  0
  6  7  1  0  0  0
  7  8  2  0  0  0
  8  9  1  0  0  0
  8 38  1  0  0  0
  9 11  1  0  0  0
 10 39  1  0  0  0
 10 40  1  0  0  0
 11 12  1  0  0  0
 11 15  1  0  0  0
 11 41  1  0  0  0
 12 13  1  0  0  0
 13 18  1  0  0  0
 13 14  1  0  0  0
 13 42  1  0  0  0
 14 15  1  0  0  0
 14 16  1  0  0  0
 14 43  1  0  0  0
 15 17  1  0  0  0
 15 44  1  0  0  0
 16 45  1  0  0  0
 17 46  1  0  0  0
 18 19  1  0  0  0
 18 47  1  0  0  0
 18 48  1  0  0  0
 19 20  1  0  0  0
 20 21  1  0  0  0
 20 22  1  0  0  0
 20 23  2  0  0  0
 21 24  1  0  0  0
 22 49  1  0  0  0
 24 25  1  0  0  0
 24 26  1  0  0  0
 24 27  2  0  0  0
 25 28  1  0  0  0
 26 50  1  0  0  0
 28 29  1  0  0  0
 28 30  2  0  0  0
 28 31  1  0  0  0
 29 32  1  0  0  0
 31 51  1  0  0  0
 32 33  1  0  0  0
 32 52  1  0  0  0
 32 53  1  0  0  0
 33 34  1  0  0  0
 33 54  1  0  0  0
 33 55  1  0  0  0
 34 35  2  0  0  0
 35 36  2  0  0  0
M  CHG  2  35   1  36  -1
M  END
> <s_m_entry_id>
32906

> <s_m_entry_name>
dock_pv.307

> <s_m_Source_Path>
/home/csk/Desktop/cluster/DUD-E-result/cdk2

> <s_m_Source_File>
dock_pv.maegz

> <i_m_Source_File_Index>
307

> <chembl_id>
CHEMBL564435

> <chembl_pref_name>
None

> <i_lp_mmshare_version>
53161

> <i_f3d_flags>
0

> <r_lp_tautomer_probability>
0.999997216410988

> <s_lp_Force_Field>
OPLS_2005

> <r_lp_Energy>
26.441943

> <b_lp_Chiralities_Consistent>
1

> <s_lp_Variant>
CHEMBL301_lig9-6

> <s_i_glide_gridfile>
glide-grid_1h00

> <i_i_glide_lignum>
29

> <i_i_glide_rotatable_bonds>
17

> <r_i_docking_score>
-7.48080145199928

> <r_i_glide_ligand_efficiency>
-0.207800040333313

> <r_i_glide_ligand_efficiency_sa>
-0.686140614678371

> <r_i_glide_ligand_efficiency_ln>
-1.63210876892746

> <r_i_glide_gscore>
-7.48080145199928

> <r_i_glide_lipo>
-0.460120346256261

> <r_i_glide_hbond>
-0.299774580471015

> <r_i_glide_metal>
0

> <r_i_glide_rewards>
-1.07368607218043

> <r_i_glide_evdw>
-43.3664894104004

> <r_i_glide_ecoul>
-28.3100929260254

> <r_i_glide_erotb>
0.658582282973751

> <r_i_glide_esite>
-0.137478265545303

> <r_i_glide_emodel>
-98.8679106993477

> <r_i_glide_energy>
-71.6765823364258

> <r_i_glide_einternal>
16.3011436462402

> <i_i_glide_confnum>
56

> <i_i_glide_posenum>
95

> <r_i_glide_eff_state_penalty>
0

> <s_user_duplicate_titles>
CHEMBL301_lig9

> <s_m_subgroup_title>
dock_pv

> <s_m_subgroupid>
dock_pv

> <b_m_subgroup_collapsed>
1

$$$$
CHEMBL301_lig15
                    3D
 Schrodinger Suite 2021-1.
 56 58  0  0  1  0            999 V2000
    0.0580   29.2460    8.9898 N   0  0  0  0  0  0
   -0.1671   30.5031    8.5760 C   0  0  0  0  0  0
   -1.1051   31.3703    8.9801 N   0  0  0  0  0  0
   -1.9674   30.9601    9.9459 C   0  0  0  0  0  0
   -0.8246   28.8638    9.9462 C   0  0  0  0  0  0
   -1.8397   29.6485   10.4551 C   0  0  0  0  0  0
   -2.5429   28.9793   11.3760 N   0  0  0  0  0  0
   -1.9445   27.8247   11.4844 C   0  0  0  0  0  0
   -0.9335   27.6700   10.6137 N   0  0  0  0  0  0
   -2.9324   31.8520   10.3953 N   0  0  0  0  0  0
   -0.0539   26.4593   10.4290 C   0  0  2  0  0  0
   -0.5654   25.3350   11.0883 O   0  0  0  0  0  0
    0.4573   24.3543   11.1234 C   0  0  1  0  0  0
    1.6585   25.2170   11.5008 C   0  0  2  0  0  0
    1.3680   26.6225   10.9589 C   0  0  1  0  0  0
    2.8580   24.6520   11.0286 O   0  0  0  0  0  0
    2.2191   27.0929    9.9222 O   0  0  0  0  0  0
    0.1207   23.1848   12.0814 C   0  0  0  0  0  0
   -0.5829   22.1420   11.4054 O   0  0  0  0  0  0
    0.2123   20.8813   10.7277 P   0  0  1  0  0  0
    1.5023   21.5999   10.0722 O   0  0  0  0  0  0
    0.7893   20.0605   11.9959 O   0  0  0  0  0  0
   -0.5917   20.0647    9.7837 O   0  0  0  0  0  0
    2.8580   21.3355    9.0874 P   0  0  1  0  0  0
    2.4007   20.6128    7.6227 O   0  0  0  0  0  0
    3.2580   22.9104    8.5760 O   0  0  0  0  0  0
    4.0016   20.6520    9.7992 O   0  0  0  0  0  0
    3.0044   20.4232    6.1364 P   0  0  2  0  0  0
    3.6580   21.9401    5.7759 N   0  0  3  0  0  0
    2.0580   19.8520    5.1439 O   0  0  0  0  0  0
    4.3210   19.5216    6.3981 O   0  0  0  0  0  0
    4.3451   22.2683    4.5276 C   0  0  0  0  0  0
    3.9095   23.6048    3.8952 C   0  0  0  0  0  0
    4.1067   24.8049    4.7319 C   0  0  0  0  0  0
    4.2856   25.8049    5.4093 C   0  0  0  0  0  0
    0.5033   30.8670    7.8108 H   0  0  0  0  0  0
   -2.2310   27.0254   12.1537 H   0  0  0  0  0  0
   -3.4569   31.5966   11.2299 H   0  0  0  0  0  0
   -2.9479   32.7886   10.0217 H   0  0  0  0  0  0
   -0.0802   26.2276    9.3760 H   0  0  0  0  0  0
    0.6105   23.9666   10.1177 H   0  0  0  0  0  0
    1.7103   25.3005   12.5760 H   0  0  0  0  0  0
    1.3360   27.3446   11.7760 H   0  0  0  0  0  0
    3.5282   25.3495   10.9760 H   0  0  0  0  0  0
    3.0339   27.4264   10.3093 H   0  0  0  0  0  0
   -0.5037   23.5485   12.8980 H   0  0  0  0  0  0
    1.0289   22.7860   12.5378 H   0  0  0  0  0  0
    0.2544   19.2632   12.2020 H   0  0  0  0  0  0
    2.5942   23.4456    8.0772 H   0  0  0  0  0  0
    3.5396   22.7089    6.4364 H   0  0  0  0  0  0
    4.9866   19.5589    5.6874 H   0  0  0  0  0  0
    4.1781   21.4650    3.8080 H   0  0  0  0  0  0
    5.4185   22.2866    4.7232 H   0  0  0  0  0  0
    2.8584   23.5646    3.6094 H   0  0  0  0  0  0
    4.4717   23.7665    2.9760 H   0  0  0  0  0  0
    4.4580   26.6821    5.9927 H   0  0  0  0  0  0
  1  2  2  0  0  0
  1  5  1  0  0  0
  2  3  1  0  0  0
  2 36  1  0  0  0
  3  4  2  0  0  0
  4  6  1  0  0  0
  4 10  1  0  0  0
  5  9  1  0  0  0
  5  6  2  0  0  0
  6  7  1  0  0  0
  7  8  2  0  0  0
  8  9  1  0  0  0
  8 37  1  0  0  0
  9 11  1  0  0  0
 10 38  1  0  0  0
 10 39  1  0  0  0
 11 12  1  0  0  0
 11 15  1  0  0  0
 11 40  1  0  0  0
 12 13  1  0  0  0
 13 18  1  0  0  0
 13 14  1  0  0  0
 13 41  1  0  0  0
 14 15  1  0  0  0
 14 16  1  0  0  0
 14 42  1  0  0  0
 15 17  1  0  0  0
 15 43  1  0  0  0
 16 44  1  0  0  0
 17 45  1  0  0  0
 18 19  1  0  0  0
 18 46  1  0  0  0
 18 47  1  0  0  0
 19 20  1  0  0  0
 20 21  1  0  0  0
 20 22  1  0  0  0
 20 23  2  0  0  0
 21 24  1  0  0  0
 22 48  1  0  0  0
 24 25  1  0  0  0
 24 26  1  0  0  0
 24 27  2  0  0  0
 25 28  1  0  0  0
 26 49  1  0  0  0
 28 29  1  0  0  0
 28 30  2  0  0  0
 28 31  1  0  0  0
 29 32  1  0  0  0
 29 50  1  0  0  0
 31 51  1  0  0  0
 32 33  1  0  0  0
 32 52  1  0  0  0
 32 53  1  0  0  0
 33 34  1  0  0  0
 33 54  1  0  0  0
 33 55  1  0  0  0
 34 35  3  0  0  0
 35 56  1  0  0  0
M  END
> <s_m_entry_id>
32907

> <s_m_entry_name>
dock_pv.308

> <s_m_Source_Path>
/home/csk/Desktop/cluster/DUD-E-result/cdk2

> <s_m_Source_File>
dock_pv.maegz

> <i_m_Source_File_Index>
308

> <chembl_id>
CHEMBL551481

> <chembl_pref_name>
None

> <i_lp_mmshare_version>
53161

> <i_f3d_flags>
0

> <r_lp_tautomer_probability>
0.999997216410988

> <s_lp_Force_Field>
OPLS_2005

> <r_lp_Energy>
21.417426

> <b_lp_Chiralities_Consistent>
1

> <s_lp_Variant>
CHEMBL301_lig15-8

> <s_i_glide_gridfile>
glide-grid_1h00

> <i_i_glide_lignum>
79

> <i_i_glide_rotatable_bonds>
17

> <r_i_docking_score>
-7.47978242921423

> <r_i_glide_ligand_efficiency>
-0.213708069406121

> <r_i_glide_ligand_efficiency_sa>
-0.699053265221348

> <r_i_glide_ligand_efficiency_ln>
-1.64197824803944

> <r_i_glide_gscore>
-7.47978242921423

> <r_i_glide_lipo>
-0.704258549876134

> <r_i_glide_hbond>
-0.603422238358196

> <r_i_glide_metal>
0

> <r_i_glide_rewards>
-1.12614397364265

> <r_i_glide_evdw>
-35.9906158447266

> <r_i_glide_ecoul>
-24.1926078796387

> <r_i_glide_erotb>
0.505622995030354

> <r_i_glide_esite>
-0.123158688185472

> <r_i_glide_emodel>
-82.7942205394607

> <r_i_glide_energy>
-60.1832237243652

> <r_i_glide_einternal>
13.4161405563354

> <i_i_glide_confnum>
26

> <i_i_glide_posenum>
301

> <r_i_glide_eff_state_penalty>
0

> <s_user_duplicate_titles>
CHEMBL301_lig15

> <s_m_subgroup_title>
dock_pv

> <s_m_subgroupid>
dock_pv

> <b_m_subgroup_collapsed>
1

$$$$
CHEMBL301_lig824
                    3D
 Schrodinger Suite 2021-1.
 52 54  0  0  1  0            999 V2000
   -1.1422   26.5451   10.4976 C   0  0  0  0  0  0
   -1.1420   27.7457    9.9574 N   0  0  0  0  0  0
   -1.2183   28.5689   10.9795 C   0  0  0  0  0  0
   -1.2794   27.9442   12.1831 O   0  0  0  0  0  0
   -1.2376   26.6223   11.8768 C   0  0  0  0  0  0
   -1.1720   30.0910   10.9809 C   0  0  0  0  0  0
   -1.3900   30.9087    9.3555 S   0  0  0  0  0  0
    0.2062   30.7241    8.6123 C   0  0  0  0  0  0
    0.8363   31.5698    7.7012 C   0  0  0  0  0  0
    1.9832   31.1670    7.1909 N   0  0  0  0  0  0
    2.3954   30.0623    7.7515 C   0  0  0  0  0  0
    1.3296   29.4520    8.9761 S   0  0  0  0  0  0
    3.5487   29.4360    7.3131 N   0  0  0  0  0  0
    4.0559   28.2447    7.7019 C   0  0  0  0  0  0
    5.1158   27.6413    6.7678 C   0  0  2  0  0  0
    3.6910   27.6189    8.6965 O   0  0  0  0  0  0
   -1.2682   25.6195   13.0213 C   0  0  0  0  0  0
   -2.5887   25.7614   13.8074 C   0  0  0  0  0  0
   -0.0738   25.8972   13.9491 C   0  0  0  0  0  0
   -1.1445   24.1805   12.4716 C   0  0  0  0  0  0
    4.4599   26.9667    5.5399 C   0  0  0  0  0  0
    5.5882   26.4230    4.6314 C   0  0  1  0  0  0
    6.5461   25.5171    5.4509 C   0  0  0  0  0  0
    7.1287   26.2517    6.5773 N   0  0  2  0  0  0
    6.0592   26.6497    7.4986 C   0  0  0  0  0  0
    5.0547   25.7205    3.3757 C   0  0  0  0  0  0
   -1.0776   25.6468    9.9023 H   0  0  0  0  0  0
   -1.9427   30.4814   11.6462 H   0  0  0  0  0  0
   -0.2269   30.4325   11.4033 H   0  0  0  0  0  0
    0.4390   32.5178    7.3756 H   0  0  0  0  0  0
    4.0413   29.9470    6.5873 H   0  0  0  0  0  0
    5.6673   28.5191    6.4431 H   0  0  0  0  0  0
   -2.6471   25.0505   14.6322 H   0  0  0  0  0  0
   -3.4528   25.5936   13.1639 H   0  0  0  0  0  0
   -2.6997   26.7623   14.2274 H   0  0  0  0  0  0
    0.8535   25.8619   13.3760 H   0  0  0  0  0  0
   -0.1298   26.8902   14.3938 H   0  0  0  0  0  0
   -0.0044   25.1718   14.7603 H   0  0  0  0  0  0
   -0.1994   24.0334   11.9464 H   0  0  0  0  0  0
   -1.1984   23.4357   13.2664 H   0  0  0  0  0  0
   -1.9375   23.9596   11.7582 H   0  0  0  0  0  0
    3.8606   26.0987    5.8220 H   0  0  0  0  0  0
    3.8624   27.6583    4.9426 H   0  0  0  0  0  0
    6.1631   27.2979    4.3215 H   0  0  0  0  0  0
    6.0463   24.6033    5.7771 H   0  0  0  0  0  0
    7.3648   25.1854    4.8108 H   0  0  0  0  0  0
    7.5175   27.1087    6.1852 H   0  0  0  0  0  0
    6.4571   27.0591    8.4280 H   0  0  0  0  0  0
    5.5133   25.7431    7.7695 H   0  0  0  0  0  0
    4.4660   24.8371    3.6267 H   0  0  0  0  0  0
    4.4156   26.3829    2.7917 H   0  0  0  0  0  0
    5.8681   25.3999    2.7236 H   0  0  0  0  0  0
  1  5  2  0  0  0
  1  2  1  0  0  0
  1 27  1  0  0  0
  2  3  2  0  0  0
  3  6  1  0  0  0
  3  4  1  0  0  0
  4  5  1  0  0  0
  5 17  1  0  0  0
  6  7  1  0  0  0
  6 28  1  0  0  0
  6 29  1  0  0  0
  7  8  1  0  0  0
  8  9  2  0  0  0
  8 12  1  0  0  0
  9 10  1  0  0  0
  9 30  1  0  0  0
 10 11  2  0  0  0
 11 13  1  0  0  0
 11 12  1  0  0  0
 13 14  1  0  0  0
 13 31  1  0  0  0
 14 15  1  0  0  0
 14 16  2  0  0  0
 15 21  1  0  0  0
 15 25  1  0  0  0
 15 32  1  0  0  0
 17 18  1  0  0  0
 17 19  1  0  0  0
 17 20  1  0  0  0
 18 33  1  0  0  0
 18 34  1  0  0  0
 18 35  1  0  0  0
 19 36  1  0  0  0
 19 37  1  0  0  0
 19 38  1  0  0  0
 20 39  1  0  0  0
 20 40  1  0  0  0
 20 41  1  0  0  0
 21 22  1  0  0  0
 21 42  1  0  0  0
 21 43  1  0  0  0
 22 23  1  0  0  0
 22 26  1  0  0  0
 22 44  1  0  0  0
 23 24  1  0  0  0
 23 45  1  0  0  0
 23 46  1  0  0  0
 24 25  1  0  0  0
 24 47  1  0  0  0
 25 48  1  0  0  0
 25 49  1  0  0  0
 26 50  1  0  0  0
 26 51  1  0  0  0
 26 52  1  0  0  0
M  END
> <s_m_entry_id>
32908

> <s_m_entry_name>
dock_pv.309

> <s_m_Source_Path>
/home/csk/Desktop/cluster/DUD-E-result/cdk2

> <s_m_Source_File>
dock_pv.maegz

> <i_m_Source_File_Index>
309

> <chembl_id>
CHEMBL454646

> <chembl_pref_name>
None

> <i_lp_mmshare_version>
53161

> <i_f3d_flags>
0

> <r_lp_tautomer_probability>
0.999000488399163

> <s_lp_Force_Field>
OPLS_2005

> <r_lp_Energy>
17.051369

> <b_lp_Chiralities_Consistent>
1

> <s_lp_Variant>
CHEMBL301_lig824-3

> <s_i_glide_gridfile>
glide-grid_1h00

> <i_i_glide_lignum>
1165

> <i_i_glide_rotatable_bonds>
7

> <r_i_docking_score>
-7.47249820161387

> <r_i_glide_ligand_efficiency>
-0.287403776985149

> <r_i_glide_ligand_efficiency_sa>
-0.85143255843925

> <r_i_glide_ligand_efficiency_ln>
-1.75489168338254

> <r_i_glide_gscore>
-7.47249820161387

> <r_i_glide_lipo>
-2.55548294988265

> <r_i_glide_hbond>
-0.592590325803931

> <r_i_glide_metal>
0

> <r_i_glide_rewards>
-2.07945222496902

> <r_i_glide_evdw>
-37.8459892272949

> <r_i_glide_ecoul>
-7.37343215942383

> <r_i_glide_erotb>
0.753341584320047

> <r_i_glide_esite>
0

> <r_i_glide_emodel>
-61.4624374389926

> <r_i_glide_energy>
-45.2194213867188

> <r_i_glide_einternal>
2.82907271385193

> <i_i_glide_confnum>
88

> <i_i_glide_posenum>
2

> <r_i_glide_eff_state_penalty>
0

> <s_user_duplicate_titles>
CHEMBL301_lig824,CHEMBL301_lig821,453259,453193

> <s_m_subgroup_title>
dock_pv

> <s_m_subgroupid>
dock_pv

> <b_m_subgroup_collapsed>
1

$$$$
CHEMBL301_lig1402
                    3D
 Schrodinger Suite 2021-1.
 46 47  0  0  1  0            999 V2000
    1.7846   26.5683   10.9787 C   0  0  0  0  0  0
    1.0050   27.8826   11.1722 C   0  0  0  0  0  0
   -0.5009   27.7973   10.8433 C   0  0  2  0  0  0
   -1.2571   29.4237   10.4809 S   0  0  0  0  0  0
   -0.3730   30.3892    9.2696 C   0  0  0  0  0  0
    0.6702   29.8455    8.5736 N   0  0  0  0  0  0
    1.3390   30.6527    7.6976 C   0  0  0  0  0  0
    2.4573   30.2026    6.9753 N   0  0  0  0  0  0
    3.2580   29.0514    7.0261 C   0  0  0  0  0  0
    3.3621   28.2847    8.1814 C   0  0  0  0  0  0
    4.0879   27.1026    8.1703 C   0  0  0  0  0  0
    4.8005   26.7254    7.0320 C   0  0  0  0  0  0
    4.7530   27.5129    5.8872 C   0  0  0  0  0  0
    3.9657   28.6566    5.8835 C   0  0  0  0  0  0
    5.7517   25.2195    7.0278 S   0  0  2  0  0  0
    6.7320   25.4527    8.1760 N   0  0  0  0  0  0
    6.1513   24.8992    5.6551 O   0  0  0  0  0  0
    4.5913   23.8918    7.6779 C   0  0  0  0  0  0
    1.0183   31.9456    7.4488 N   0  0  0  0  0  0
   -0.0060   32.4646    8.1721 C   0  0  0  0  0  0
   -0.7480   31.7258    9.0844 C   0  0  0  0  0  0
   -2.1773   32.5684   10.0308 Br  0  0  0  0  0  0
   -1.2619   27.0182   11.9642 C   0  0  2  0  0  0
   -2.7115   26.6478   11.6304 C   0  0  0  0  0  0
   -1.2784   27.7302   13.1889 O   0  0  0  0  0  0
    2.8500   26.7235   11.1572 H   0  0  0  0  0  0
    1.4570   25.7952   11.6731 H   0  0  0  0  0  0
    1.6726   26.1836    9.9653 H   0  0  0  0  0  0
    1.4788   28.6508   10.5825 H   0  0  0  0  0  0
    1.1324   28.2510   12.1835 H   0  0  0  0  0  0
   -0.5999   27.2271    9.9178 H   0  0  0  0  0  0
    2.9041   30.9317    6.4328 H   0  0  0  0  0  0
    2.8597   28.5815    9.0797 H   0  0  0  0  0  0
    4.0580   26.4736    9.0391 H   0  0  0  0  0  0
    5.3057   27.2349    5.0006 H   0  0  0  0  0  0
    3.9376   29.2469    4.9844 H   0  0  0  0  0  0
    6.2761   25.6173    9.0702 H   0  0  0  0  0  0
    4.2420   24.1652    8.6703 H   0  0  0  0  0  0
    3.7463   23.8175    6.9944 H   0  0  0  0  0  0
    5.1280   22.9452    7.6956 H   0  0  0  0  0  0
   -0.2648   33.4871    7.9815 H   0  0  0  0  0  0
   -0.7383   26.0834   12.1623 H   0  0  0  0  0  0
   -2.7423   25.9644   10.7813 H   0  0  0  0  0  0
   -3.3068   27.5265   11.3853 H   0  0  0  0  0  0
   -3.2001   26.1478   12.4679 H   0  0  0  0  0  0
   -2.0760   28.2725   13.2213 H   0  0  0  0  0  0
  1  2  1  0  0  0
  1 26  1  0  0  0
  1 27  1  0  0  0
  1 28  1  0  0  0
  2  3  1  0  0  0
  2 29  1  0  0  0
  2 30  1  0  0  0
  3  4  1  0  0  0
  3 23  1  0  0  0
  3 31  1  0  0  0
  4  5  1  0  0  0
  5  6  2  0  0  0
  5 21  1  0  0  0
  6  7  1  0  0  0
  7  8  1  0  0  0
  7 19  2  0  0  0
  8  9  1  0  0  0
  8 32  1  0  0  0
  9 10  2  0  0  0
  9 14  1  0  0  0
 10 11  1  0  0  0
 10 33  1  0  0  0
 11 12  2  0  0  0
 11 34  1  0  0  0
 12 13  1  0  0  0
 12 15  1  0  0  0
 13 14  2  0  0  0
 13 35  1  0  0  0
 14 36  1  0  0  0
 15 16  2  0  0  0
 15 17  2  0  0  0
 15 18  1  0  0  0
 16 37  1  0  0  0
 18 38  1  0  0  0
 18 39  1  0  0  0
 18 40  1  0  0  0
 19 20  1  0  0  0
 20 21  2  0  0  0
 20 41  1  0  0  0
 21 22  1  0  0  0
 23 24  1  0  0  0
 23 25  1  0  0  0
 23 42  1  0  0  0
 24 43  1  0  0  0
 24 44  1  0  0  0
 24 45  1  0  0  0
 25 46  1  0  0  0
M  END
> <s_m_entry_id>
32909

> <s_m_entry_name>
dock_pv.310

> <s_m_Source_Path>
/home/csk/Desktop/cluster/DUD-E-result/cdk2

> <s_m_Source_File>
dock_pv.maegz

> <i_m_Source_File_Index>
310

> <chembl_id>
CHEMBL3648103

> <chembl_pref_name>
None

> <i_lp_mmshare_version>
53161

> <i_f3d_flags>
0

> <r_lp_tautomer_probability>
0.999999987636

> <s_lp_Force_Field>
OPLS_2005

> <r_lp_Energy>
3.950604

> <b_lp_Chiralities_Consistent>
1

> <s_lp_Variant>
CHEMBL301_lig1402-1

> <s_i_glide_gridfile>
glide-grid_1h00

> <i_i_glide_lignum>
1904

> <i_i_glide_rotatable_bonds>
8

> <r_i_docking_score>
-7.47071928907202

> <r_i_glide_ligand_efficiency>
-0.298828771562881

> <r_i_glide_ligand_efficiency_sa>
-0.873780627800694

> <r_i_glide_ligand_efficiency_ln>
-1.7707843509012

> <r_i_glide_gscore>
-7.47071928907202

> <r_i_glide_lipo>
-2.61239808055474

> <r_i_glide_hbond>
-0.426852107706295

> <r_i_glide_metal>
0

> <r_i_glide_rewards>
-1.76525261070259

> <r_i_glide_evdw>
-38.7886657714844

> <r_i_glide_ecoul>
-8.20708656311035

> <r_i_glide_erotb>
0.504279782932378

> <r_i_glide_esite>
0

> <r_i_glide_emodel>
-67.5782769093712

> <r_i_glide_energy>
-46.9957523345947

> <r_i_glide_einternal>
0.779908239841461

> <i_i_glide_confnum>
61

> <i_i_glide_posenum>
314

> <r_i_glide_eff_state_penalty>
0

> <s_user_duplicate_titles>
CHEMBL301_lig1402

> <s_m_subgroup_title>
dock_pv

> <s_m_subgroupid>
dock_pv

> <b_m_subgroup_collapsed>
1

$$$$
CHEMBL301_lig788
                    3D
 Schrodinger Suite 2021-1.
 45 47  0  0  1  0            999 V2000
    4.8678   27.6159    5.7838 C   0  0  0  0  0  0
    5.2619   27.0436    6.9955 C   0  0  0  0  0  0
    4.6506   27.4697    8.1785 C   0  0  0  0  0  0
    3.7038   28.4900    8.1649 C   0  0  0  0  0  0
    3.3228   29.0642    6.9551 C   0  0  0  0  0  0
    3.9105   28.6207    5.7729 C   0  0  0  0  0  0
    2.4580   30.1706    6.8768 N   0  0  0  0  0  0
    1.3970   30.6285    7.6707 C   0  0  0  0  0  0
    0.8380   29.7902    8.5780 N   0  0  0  0  0  0
   -0.2307   30.2334    9.2891 C   0  0  0  0  0  0
   -0.7415   31.5249    9.0955 C   0  0  0  0  0  0
   -0.0738   32.3392    8.1759 C   0  0  0  0  0  0
    0.9771   31.8974    7.4308 N   0  0  0  0  0  0
   -0.8304   29.3141   10.3173 C   0  0  0  0  0  0
   -2.0937   29.4165   10.8871 C   0  0  0  0  0  0
   -2.3426   28.4832   11.7755 N   0  0  0  0  0  0
   -1.2507   27.7769   11.8465 C   0  0  0  0  0  0
   -0.2860   28.1936   10.9480 N   0  0  0  0  0  0
   -1.0912   26.6396   12.8370 C   0  0  0  0  0  0
    1.0559   27.6145   10.8345 C   0  0  0  0  0  0
    1.0435   26.1175   10.4728 C   0  0  0  0  0  0
    6.3530   26.0062    7.0375 C   0  0  0  0  0  0
    7.4104   26.2518    6.2465 N   0  0  0  0  0  0
    6.2695   25.0279    7.7770 O   0  0  0  0  0  0
    8.5948   25.4080    6.1371 C   0  0  0  0  0  0
    5.3173   27.3088    4.8494 H   0  0  0  0  0  0
    4.9437   27.0537    9.1261 H   0  0  0  0  0  0
    3.3192   28.8706    9.0952 H   0  0  0  0  0  0
    3.6581   29.0627    4.8279 H   0  0  0  0  0  0
    2.7725   30.8528    6.2015 H   0  0  0  0  0  0
   -1.5795   31.9002    9.6634 H   0  0  0  0  0  0
   -0.3923   33.3569    7.9971 H   0  0  0  0  0  0
   -2.8365   30.1707   10.6703 H   0  0  0  0  0  0
   -1.8720   26.6519   13.5994 H   0  0  0  0  0  0
   -1.1515   25.6676   12.3480 H   0  0  0  0  0  0
   -0.1383   26.6894   13.3657 H   0  0  0  0  0  0
    1.6286   28.1444   10.0944 H   0  0  0  0  0  0
    1.5695   27.7889   11.7734 H   0  0  0  0  0  0
    1.9896   25.8238   10.0149 H   0  0  0  0  0  0
    0.9150   25.4912   11.3549 H   0  0  0  0  0  0
    0.2431   25.8738    9.7759 H   0  0  0  0  0  0
    7.4520   27.1529    5.7759 H   0  0  0  0  0  0
    9.4915   26.0264    6.1856 H   0  0  0  0  0  0
    8.5950   24.8875    5.1795 H   0  0  0  0  0  0
    8.6581   24.6629    6.9317 H   0  0  0  0  0  0
  1  6  1  0  0  0
  1  2  2  0  0  0
  1 26  1  0  0  0
  2  3  1  0  0  0
  2 22  1  0  0  0
  3  4  2  0  0  0
  3 27  1  0  0  0
  4  5  1  0  0  0
  4 28  1  0  0  0
  5  7  1  0  0  0
  5  6  2  0  0  0
  6 29  1  0  0  0
  7  8  1  0  0  0
  7 30  1  0  0  0
  8 13  1  0  0  0
  8  9  2  0  0  0
  9 10  1  0  0  0
 10 14  1  0  0  0
 10 11  2  0  0  0
 11 12  1  0  0  0
 11 31  1  0  0  0
 12 13  2  0  0  0
 12 32  1  0  0  0
 14 15  2  0  0  0
 14 18  1  0  0  0
 15 16  1  0  0  0
 15 33  1  0  0  0
 16 17  2  0  0  0
 17 18  1  0  0  0
 17 19  1  0  0  0
 18 20  1  0  0  0
 19 34  1  0  0  0
 19 35  1  0  0  0
 19 36  1  0  0  0
 20 21  1  0  0  0
 20 37  1  0  0  0
 20 38  1  0  0  0
 21 39  1  0  0  0
 21 40  1  0  0  0
 21 41  1  0  0  0
 22 23  1  0  0  0
 22 24  2  0  0  0
 23 25  1  0  0  0
 23 42  1  0  0  0
 25 43  1  0  0  0
 25 44  1  0  0  0
 25 45  1  0  0  0
M  END
> <s_m_entry_id>
32910

> <s_m_entry_name>
dock_pv.311

> <s_m_Source_Path>
/home/csk/Desktop/cluster/DUD-E-result/cdk2

> <s_m_Source_File>
dock_pv.maegz

> <i_m_Source_File_Index>
311

> <chembl_id>
CHEMBL519422

> <chembl_pref_name>
None

> <i_lp_mmshare_version>
53161

> <i_f3d_flags>
0

> <r_lp_tautomer_probability>
0.999999987636

> <s_lp_Force_Field>
OPLS_2005

> <r_lp_Energy>
13.858815

> <b_lp_Chiralities_Consistent>
1

> <s_lp_Variant>
CHEMBL301_lig788-1

> <s_i_glide_gridfile>
glide-grid_1h00

> <i_i_glide_lignum>
1127

> <i_i_glide_rotatable_bonds>
6

> <r_i_docking_score>
-7.46957235286047

> <r_i_glide_ligand_efficiency>
-0.298782894114419

> <r_i_glide_ligand_efficiency_sa>
-0.87364648132775

> <r_i_glide_ligand_efficiency_ln>
-1.77051249264816

> <r_i_glide_gscore>
-7.46957235286047

> <r_i_glide_lipo>
-2.2377668223816

> <r_i_glide_hbond>
-0.476117459125592

> <r_i_glide_metal>
0

> <r_i_glide_rewards>
-2.43239516273572

> <r_i_glide_evdw>
-36.0377388000488

> <r_i_glide_ecoul>
-7.64960527420044

> <r_i_glide_erotb>
0.667584004833325

> <r_i_glide_esite>
-0.0415491823183735

> <r_i_glide_emodel>
-62.4345856416422

> <r_i_glide_energy>
-43.6873440742493

> <r_i_glide_einternal>
3.68603754043579

> <i_i_glide_confnum>
8

> <i_i_glide_posenum>
80

> <r_i_glide_eff_state_penalty>
0

> <s_user_duplicate_titles>
CHEMBL301_lig788,453025

> <s_m_subgroup_title>
dock_pv

> <s_m_subgroupid>
dock_pv

> <b_m_subgroup_collapsed>
1

$$$$
CHEMBL301_lig1327
                    3D
 Schrodinger Suite 2021-1.
 47 48  0  0  1  0            999 V2000
    7.5817   25.5794    5.2746 C   0  0  0  0  0  0
    6.3203   24.7726    5.6390 C   0  0  0  0  0  0
    5.6320   25.1837    7.3658 S   0  0  2  0  0  0
    6.8589   25.5874    8.1762 N   0  0  0  0  0  0
    4.6937   24.1360    7.7761 O   0  0  0  0  0  0
    4.7394   26.7273    7.3058 C   0  0  0  0  0  0
    4.7015   27.4933    6.1428 C   0  0  0  0  0  0
    3.9398   28.6527    6.1179 C   0  0  0  0  0  0
    3.2260   29.0603    7.2465 C   0  0  0  0  0  0
    2.4576   30.2292    7.1369 N   0  0  0  0  0  0
    1.2944   30.6801    7.7770 C   0  0  0  0  0  0
    0.9613   31.9657    7.5000 N   0  0  0  0  0  0
   -0.0962   32.4828    8.1759 C   0  0  0  0  0  0
   -0.8617   31.7280    9.0630 C   0  0  0  0  0  0
   -2.3407   32.5309    9.9644 Br  0  0  0  0  0  0
   -0.4787   30.3947    9.2653 C   0  0  0  0  0  0
   -1.2134   29.6091   10.1733 N   0  0  0  0  0  0
   -0.6090   28.4935   10.9051 C   0  0  2  0  0  0
   -0.5677   27.2191   10.0376 C   0  0  0  0  0  0
   -1.2859   28.2777   12.2934 C   0  0  2  0  0  0
   -0.5678   27.2655   13.1969 C   0  0  0  0  0  0
   -2.6322   27.8507   12.1751 O   0  0  0  0  0  0
    0.6132   29.8703    8.6336 N   0  0  0  0  0  0
    3.3011   28.3155    8.4251 C   0  0  0  0  0  0
    4.0483   27.1426    8.4481 C   0  0  0  0  0  0
    7.9118   25.3517    4.2606 H   0  0  0  0  0  0
    7.4106   26.6520    5.3312 H   0  0  0  0  0  0
    8.4096   25.3477    5.9464 H   0  0  0  0  0  0
    6.5594   23.7097    5.6555 H   0  0  0  0  0  0
    5.5152   24.9126    4.9181 H   0  0  0  0  0  0
    6.5958   25.8498    9.1223 H   0  0  0  0  0  0
    5.2309   27.2000    5.2502 H   0  0  0  0  0  0
    3.9062   29.2403    5.2121 H   0  0  0  0  0  0
    2.8946   30.9290    6.5522 H   0  0  0  0  0  0
   -0.3386   33.5164    7.9738 H   0  0  0  0  0  0
   -1.9908   30.0649   10.6316 H   0  0  0  0  0  0
    0.4292   28.7672   11.1054 H   0  0  0  0  0  0
    0.1141   26.4750   10.4493 H   0  0  0  0  0  0
   -1.5492   26.7574    9.9433 H   0  0  0  0  0  0
   -0.2296   27.4530    9.0298 H   0  0  0  0  0  0
   -1.3109   29.2388   12.8120 H   0  0  0  0  0  0
    0.4572   27.5780   13.3805 H   0  0  0  0  0  0
   -0.5375   26.2716   12.7506 H   0  0  0  0  0  0
   -1.0623   27.1760   14.1644 H   0  0  0  0  0  0
   -3.1346   28.2278   12.9162 H   0  0  0  0  0  0
    2.7737   28.6248    9.3144 H   0  0  0  0  0  0
    4.0585   26.5473    9.3489 H   0  0  0  0  0  0
  1  2  1  0  0  0
  1 26  1  0  0  0
  1 27  1  0  0  0
  1 28  1  0  0  0
  2  3  1  0  0  0
  2 29  1  0  0  0
  2 30  1  0  0  0
  3  4  2  0  0  0
  3  5  2  0  0  0
  3  6  1  0  0  0
  4 31  1  0  0  0
  6  7  2  0  0  0
  6 25  1  0  0  0
  7  8  1  0  0  0
  7 32  1  0  0  0
  8  9  2  0  0  0
  8 33  1  0  0  0
  9 10  1  0  0  0
  9 24  1  0  0  0
 10 11  1  0  0  0
 10 34  1  0  0  0
 11 12  2  0  0  0
 11 23  1  0  0  0
 12 13  1  0  0  0
 13 14  2  0  0  0
 13 35  1  0  0  0
 14 15  1  0  0  0
 14 16  1  0  0  0
 16 17  1  0  0  0
 16 23  2  0  0  0
 17 18  1  0  0  0
 17 36  1  0  0  0
 18 19  1  0  0  0
 18 20  1  0  0  0
 18 37  1  0  0  0
 19 38  1  0  0  0
 19 39  1  0  0  0
 19 40  1  0  0  0
 20 21  1  0  0  0
 20 22  1  0  0  0
 20 41  1  0  0  0
 21 42  1  0  0  0
 21 43  1  0  0  0
 21 44  1  0  0  0
 22 45  1  0  0  0
 24 25  2  0  0  0
 24 46  1  0  0  0
 25 47  1  0  0  0
M  END
> <s_m_entry_id>
32912

> <s_m_entry_name>
dock_pv.313

> <s_m_Source_Path>
/home/csk/Desktop/cluster/DUD-E-result/cdk2

> <s_m_Source_File>
dock_pv.maegz

> <i_m_Source_File_Index>
313

> <chembl_id>
CHEMBL3648095

> <chembl_pref_name>
None

> <i_lp_mmshare_version>
53161

> <i_f3d_flags>
0

> <r_lp_tautomer_probability>
0.999999624730965

> <s_lp_Force_Field>
OPLS_2005

> <r_lp_Energy>
2.740225

> <b_lp_Chiralities_Consistent>
1

> <s_lp_Variant>
CHEMBL301_lig1327-2

> <s_i_glide_gridfile>
glide-grid_1h00

> <i_i_glide_lignum>
1751

> <i_i_glide_rotatable_bonds>
8

> <r_i_docking_score>
-7.46805844240254

> <r_i_glide_ligand_efficiency>
-0.298722337696102

> <r_i_glide_ligand_efficiency_sa>
-0.873469413286618

> <r_i_glide_ligand_efficiency_ln>
-1.7701536505014

> <r_i_glide_gscore>
-7.46805844240254

> <r_i_glide_lipo>
-2.6071108760898

> <r_i_glide_hbond>
-0.493841181169376

> <r_i_glide_metal>
0

> <r_i_glide_rewards>
-1.72107024094217

> <r_i_glide_evdw>
-36.8328475952148

> <r_i_glide_ecoul>
-10.4145364761353

> <r_i_glide_erotb>
0.757786706979831

> <r_i_glide_esite>
0

> <r_i_glide_emodel>
-68.363549298869

> <r_i_glide_energy>
-47.2473840713501

> <r_i_glide_einternal>
4.53509330749512

> <i_i_glide_confnum>
40

> <i_i_glide_posenum>
112

> <r_i_glide_eff_state_penalty>
0

> <s_user_duplicate_titles>
CHEMBL301_lig1327

> <s_m_subgroup_title>
dock_pv

> <s_m_subgroupid>
dock_pv

> <b_m_subgroup_collapsed>
1

$$$$
CHEMBL301_lig1348
                    3D
 Schrodinger Suite 2021-1.
 48 49  0  0  1  0            999 V2000
    3.2746   24.6545    9.0697 C   0  0  0  0  0  0
    2.5690   24.1123   10.1843 O   0  0  0  0  0  0
    1.6038   24.8791   10.8134 C   0  0  0  0  0  0
    1.3718   26.2278   10.5045 C   0  0  0  0  0  0
    0.3288   26.9466   11.0972 C   0  0  0  0  0  0
   -0.0218   28.2595   10.7385 N   0  0  0  0  0  0
    0.4286   29.1534    9.7595 C   0  0  0  0  0  0
   -0.4307   30.1638    9.4818 N   0  0  0  0  0  0
   -0.0559   31.0330    8.5106 C   0  0  0  0  0  0
    1.1526   30.9123    7.8226 C   0  0  0  0  0  0
    1.6580   32.2502    6.5760 Br  0  0  0  0  0  0
    1.9906   29.8446    8.1743 C   0  0  0  0  0  0
    3.1892   29.6195    7.4709 N   0  0  0  0  0  0
    3.8685   28.3193    7.4142 C   0  0  2  0  0  0
    5.1795   28.3736    8.2120 C   0  0  0  0  0  0
    4.0542   27.8121    5.9491 C   0  0  2  0  0  0
    4.6137   26.3841    5.8266 C   0  0  0  0  0  0
    4.8579   28.6521    5.1524 O   0  0  0  0  0  0
    1.6280   28.9685    9.1495 N   0  0  0  0  0  0
   -0.4568   26.3139   12.0593 C   0  0  0  0  0  0
   -0.2276   24.9814   12.3992 C   0  0  0  0  0  0
    0.7953   24.2595   11.7767 C   0  0  0  0  0  0
    1.0550   22.5253   12.1552 S   0  0  1  0  0  0
    0.3625   21.8490   10.9778 N   0  0  0  0  0  0
    2.4568   22.3088   12.5284 O   0  0  0  0  0  0
   -0.0683   22.0464   13.5840 C   0  0  0  0  0  0
    3.8777   23.8775    8.6017 H   0  0  0  0  0  0
    2.6014   25.0520    8.3109 H   0  0  0  0  0  0
    3.9450   25.4557    9.3757 H   0  0  0  0  0  0
    1.9982   26.6997    9.7750 H   0  0  0  0  0  0
   -0.8741   28.5836   11.1700 H   0  0  0  0  0  0
   -0.7261   31.8568    8.3132 H   0  0  0  0  0  0
    3.4855   30.3116    6.7892 H   0  0  0  0  0  0
    3.2580   27.5718    7.9181 H   0  0  0  0  0  0
    5.6788   27.4066    8.2532 H   0  0  0  0  0  0
    5.8645   29.0969    7.7760 H   0  0  0  0  0  0
    4.9927   28.6744    9.2435 H   0  0  0  0  0  0
    3.0814   27.8521    5.4586 H   0  0  0  0  0  0
    4.0167   25.6707    6.3924 H   0  0  0  0  0  0
    5.6394   26.3151    6.1908 H   0  0  0  0  0  0
    4.6126   26.0501    4.7882 H   0  0  0  0  0  0
    5.7821   28.5632    5.4145 H   0  0  0  0  0  0
   -1.2673   26.8446   12.5368 H   0  0  0  0  0  0
   -0.8681   24.5219   13.1337 H   0  0  0  0  0  0
    0.8596   22.0055   10.1140 H   0  0  0  0  0  0
   -1.1060   22.2173   13.2990 H   0  0  0  0  0  0
    0.0756   20.9843   13.7803 H   0  0  0  0  0  0
    0.2032   22.6312   14.4609 H   0  0  0  0  0  0
  1  2  1  0  0  0
  1 27  1  0  0  0
  1 28  1  0  0  0
  1 29  1  0  0  0
  2  3  1  0  0  0
  3  4  2  0  0  0
  3 22  1  0  0  0
  4  5  1  0  0  0
  4 30  1  0  0  0
  5  6  1  0  0  0
  5 20  2  0  0  0
  6  7  1  0  0  0
  6 31  1  0  0  0
  7  8  2  0  0  0
  7 19  1  0  0  0
  8  9  1  0  0  0
  9 10  2  0  0  0
  9 32  1  0  0  0
 10 11  1  0  0  0
 10 12  1  0  0  0
 12 13  1  0  0  0
 12 19  2  0  0  0
 13 14  1  0  0  0
 13 33  1  0  0  0
 14 15  1  0  0  0
 14 16  1  0  0  0
 14 34  1  0  0  0
 15 35  1  0  0  0
 15 36  1  0  0  0
 15 37  1  0  0  0
 16 17  1  0  0  0
 16 18  1  0  0  0
 16 38  1  0  0  0
 17 39  1  0  0  0
 17 40  1  0  0  0
 17 41  1  0  0  0
 18 42  1  0  0  0
 20 21  1  0  0  0
 20 43  1  0  0  0
 21 22  2  0  0  0
 21 44  1  0  0  0
 22 23  1  0  0  0
 23 24  2  0  0  0
 23 25  2  0  0  0
 23 26  1  0  0  0
 24 45  1  0  0  0
 26 46  1  0  0  0
 26 47  1  0  0  0
 26 48  1  0  0  0
M  END
> <s_m_entry_id>
32913

> <s_m_entry_name>
dock_pv.314

> <s_m_Source_Path>
/home/csk/Desktop/cluster/DUD-E-result/cdk2

> <s_m_Source_File>
dock_pv.maegz

> <i_m_Source_File_Index>
314

> <chembl_id>
CHEMBL3648112

> <chembl_pref_name>
None

> <i_lp_mmshare_version>
53161

> <i_f3d_flags>
0

> <r_lp_tautomer_probability>
0.999999624730965

> <s_lp_Force_Field>
OPLS_2005

> <r_lp_Energy>
9.423285

> <b_lp_Chiralities_Consistent>
1

> <s_lp_Variant>
CHEMBL301_lig1348-2

> <s_i_glide_gridfile>
glide-grid_1h00

> <i_i_glide_lignum>
1790

> <i_i_glide_rotatable_bonds>
8

> <r_i_docking_score>
-7.46627420245515

> <r_i_glide_ligand_efficiency>
-0.287164392402121

> <r_i_glide_ligand_efficiency_sa>
-0.850723382553962

> <r_i_glide_ligand_efficiency_ln>
-1.75342999760272

> <r_i_glide_gscore>
-7.46627420245515

> <r_i_glide_lipo>
-2.22804653486325

> <r_i_glide_hbond>
-0.633820876249587

> <r_i_glide_metal>
0

> <r_i_glide_rewards>
-1.7437328880629

> <r_i_glide_evdw>
-37.4270477294922

> <r_i_glide_ecoul>
-9.9718132019043

> <r_i_glide_erotb>
0.506450463480838

> <r_i_glide_esite>
0

> <r_i_glide_emodel>
-66.6389905065886

> <r_i_glide_energy>
-47.3988609313965

> <r_i_glide_einternal>
5.2657904624939

> <i_i_glide_confnum>
15

> <i_i_glide_posenum>
310

> <r_i_glide_eff_state_penalty>
0

> <s_user_duplicate_titles>
CHEMBL301_lig1348

> <s_m_subgroup_title>
dock_pv

> <s_m_subgroupid>
dock_pv

> <b_m_subgroup_collapsed>
1

$$$$
CHEMBL301_lig278
                    3D
 Schrodinger Suite 2021-1.
 37 39  0  0  1  0            999 V2000
   -3.4046   25.8686   13.7751 N   0  0  0  0  0  0
   -1.6942   25.9283   14.0997 S   0  0  0  0  0  0
   -1.1572   24.5796   13.8960 O   0  0  0  0  0  0
   -1.5286   26.6299   15.3760 O   0  0  0  0  0  0
   -1.0394   26.9883   12.8200 C   0  0  0  0  0  0
   -0.4599   26.4489   11.6699 C   0  0  0  0  0  0
    0.0082   27.3008   10.6706 C   0  0  0  0  0  0
   -0.1077   28.6883   10.8181 C   0  0  0  0  0  0
    0.3063   29.5939    9.8317 N   0  0  0  0  0  0
    1.3660   29.4612    8.9750 C   0  0  0  0  0  0
    2.4505   28.5791    9.0175 C   0  0  0  0  0  0
    3.1946   28.7970    7.8726 C   0  0  0  0  0  0
    2.5640   29.8574    7.2857 N   0  0  0  0  0  0
    1.4634   30.2567    7.9340 N   0  0  0  0  0  0
    4.3112   28.0239    7.2949 C   0  0  0  0  0  0
    4.4613   27.8518    5.9142 C   0  0  0  0  0  0
    5.4160   26.9590    5.4247 C   0  0  0  0  0  0
    6.2321   26.2524    6.3113 C   0  0  0  0  0  0
    6.0873   26.4410    7.6843 C   0  0  0  0  0  0
    6.8581   25.7533    8.5758 O   0  0  0  0  0  0
    5.1382   27.3292    8.1723 C   0  0  0  0  0  0
   -0.6911   29.2138   11.9673 C   0  0  0  0  0  0
   -1.1392   28.3692   12.9734 C   0  0  0  0  0  0
   -3.6200   25.4386   12.8695 H   0  0  0  0  0  0
   -3.8301   26.7984   13.8798 H   0  0  0  0  0  0
   -0.3797   25.3788   11.5418 H   0  0  0  0  0  0
    0.4384   26.8782    9.7762 H   0  0  0  0  0  0
   -0.0687   30.5197    9.9713 H   0  0  0  0  0  0
    2.6314   27.8185    9.7622 H   0  0  0  0  0  0
    2.8923   30.3139    6.4438 H   0  0  0  0  0  0
    3.8161   28.3702    5.2202 H   0  0  0  0  0  0
    5.5275   26.8154    4.3602 H   0  0  0  0  0  0
    6.9725   25.5628    5.9334 H   0  0  0  0  0  0
    6.5018   25.8507    9.4767 H   0  0  0  0  0  0
    5.0155   27.4524    9.2384 H   0  0  0  0  0  0
   -0.7989   30.2783   12.0956 H   0  0  0  0  0  0
   -1.5700   28.7967   13.8654 H   0  0  0  0  0  0
  1  2  1  0  0  0
  1 24  1  0  0  0
  1 25  1  0  0  0
  2  3  2  0  0  0
  2  4  2  0  0  0
  2  5  1  0  0  0
  5  6  2  0  0  0
  5 23  1  0  0  0
  6  7  1  0  0  0
  6 26  1  0  0  0
  7  8  2  0  0  0
  7 27  1  0  0  0
  8 22  1  0  0  0
  8  9  1  0  0  0
  9 10  1  0  0  0
  9 28  1  0  0  0
 10 14  2  0  0  0
 10 11  1  0  0  0
 11 12  2  0  0  0
 11 29  1  0  0  0
 12 15  1  0  0  0
 12 13  1  0  0  0
 13 30  1  0  0  0
 13 14  1  0  0  0
 15 16  2  0  0  0
 15 21  1  0  0  0
 16 17  1  0  0  0
 16 31  1  0  0  0
 17 18  2  0  0  0
 17 32  1  0  0  0
 18 19  1  0  0  0
 18 33  1  0  0  0
 19 20  1  0  0  0
 19 21  2  0  0  0
 20 34  1  0  0  0
 21 35  1  0  0  0
 22 23  2  0  0  0
 22 36  1  0  0  0
 23 37  1  0  0  0
M  END
> <s_m_entry_id>
32914

> <s_m_entry_name>
dock_pv.315

> <s_m_Source_Path>
/home/csk/Desktop/cluster/DUD-E-result/cdk2

> <s_m_Source_File>
dock_pv.maegz

> <i_m_Source_File_Index>
315

> <chembl_id>
CHEMBL103104

> <chembl_pref_name>
GW831090X

> <i_lp_mmshare_version>
53161

> <i_f3d_flags>
0

> <r_lp_tautomer_probability>
0.842599999160842

> <s_lp_Force_Field>
OPLS_2005

> <r_lp_Energy>
18.837759

> <b_lp_Chiralities_Consistent>
1

> <s_lp_Variant>
CHEMBL301_lig278-1

> <s_i_glide_gridfile>
glide-grid_1h00

> <i_i_glide_lignum>
438

> <i_i_glide_rotatable_bonds>
5

> <r_i_docking_score>
-7.46195781207964

> <r_i_glide_ligand_efficiency>
-0.324432948351289

> <r_i_glide_ligand_efficiency_sa>
-0.922644148027803

> <r_i_glide_ligand_efficiency_ln>
-1.80436906025345

> <r_i_glide_gscore>
-7.46195781207964

> <r_i_glide_lipo>
-2.52440852598038

> <r_i_glide_hbond>
-0.566622381206457

> <r_i_glide_metal>
0

> <r_i_glide_rewards>
-1.13669031283116

> <r_i_glide_evdw>
-36.2953186035156

> <r_i_glide_ecoul>
-11.9717302322388

> <r_i_glide_erotb>
0.516965786260247

> <r_i_glide_esite>
-0.1406769133103

> <r_i_glide_emodel>
-65.749391814817

> <r_i_glide_energy>
-48.2670488357544

> <r_i_glide_einternal>
7.13128280639648

> <i_i_glide_confnum>
5

> <i_i_glide_posenum>
242

> <r_i_glide_eff_state_penalty>
0

> <s_user_duplicate_titles>
CHEMBL301_lig278,CHEMBL301_lig278,166116

> <s_m_subgroup_title>
dock_pv

> <s_m_subgroupid>
dock_pv

> <b_m_subgroup_collapsed>
1

$$$$
CHEMBL301_lig1373
                    3D
 Schrodinger Suite 2021-1.
 63 65  0  0  1  0            999 V2000
   -0.5548   23.9768   10.9988 C   0  0  0  0  0  0
   -1.1501   25.0522   10.0632 C   0  0  0  0  0  0
   -1.0962   26.4985   10.5985 C   0  0  2  0  0  0
    0.2777   27.0265   10.5397 N   0  0  0  0  0  0
    0.6099   28.1896    9.8317 C   0  0  0  0  0  0
    1.8901   28.2255    9.3772 N   0  0  0  0  0  0
    2.2545   29.2628    8.5753 C   0  0  0  0  0  0
    3.5674   29.3813    8.0928 N   0  0  0  0  0  0
    4.5599   28.3127    8.1856 C   0  0  0  0  0  0
    4.6140   27.4830    6.9056 C   0  0  0  0  0  0
    4.8551   26.1063    6.9733 C   0  0  0  0  0  0
    4.8795   25.3485    5.7993 C   0  0  0  0  0  0
    4.6739   25.9981    4.5801 C   0  0  0  0  0  0
    4.4591   27.3348    4.4851 N   0  0  0  0  0  0
    4.4395   28.0546    5.6355 C   0  0  0  0  0  0
    1.3170   30.2533    8.2468 C   0  0  0  0  0  0
    1.3935   31.3673    7.4492 N   0  0  0  0  0  0
    0.3208   32.0389    7.7760 C   0  0  0  0  0  0
   -0.5788   31.3557    8.5754 N   0  0  0  0  0  0
   -1.8688   31.8852    9.0420 C   0  0  0  0  0  0
   -1.7555   32.3102   10.5081 C   0  0  0  0  0  0
   -3.0237   30.8907    8.8284 C   0  0  0  0  0  0
    0.0562   30.1612    8.8797 C   0  0  0  0  0  0
   -0.3446   29.1436    9.6460 N   0  0  0  0  0  0
   -1.8899   26.6683   11.9543 C   0  0  2  0  0  0
   -2.8472   27.7080   11.7765 O   0  0  0  0  0  0
   -1.0970   26.9017   13.2933 C   0  0  0  0  0  0
   -2.0068   26.6745   14.5311 C   0  0  0  0  0  0
   -0.5188   28.3399   13.3066 C   0  0  0  0  0  0
    0.0444   25.8910   13.5289 C   0  0  0  0  0  0
   -0.5285   22.9771   10.5761 H   0  0  0  0  0  0
    0.4671   24.2180   11.2888 H   0  0  0  0  0  0
   -1.1658   23.8731   11.8927 H   0  0  0  0  0  0
   -2.1881   24.7947    9.8463 H   0  0  0  0  0  0
   -0.6412   25.0485    9.0976 H   0  0  0  0  0  0
   -1.6522   27.0469    9.8402 H   0  0  0  0  0  0
    1.0279   26.3582   10.6135 H   0  0  0  0  0  0
    3.7802   30.1748    7.5018 H   0  0  0  0  0  0
    5.5373   28.7653    8.3508 H   0  0  0  0  0  0
    4.3597   27.6701    9.0453 H   0  0  0  0  0  0
    5.0060   25.6245    7.9296 H   0  0  0  0  0  0
    5.0514   24.2827    5.8341 H   0  0  0  0  0  0
    4.6816   25.4477    3.6488 H   0  0  0  0  0  0
    4.2720   29.1154    5.5185 H   0  0  0  0  0  0
    0.0684   33.0256    7.4099 H   0  0  0  0  0  0
   -2.0848   32.7768    8.4536 H   0  0  0  0  0  0
   -2.6804   32.7663   10.8641 H   0  0  0  0  0  0
   -1.5526   31.4433   11.1356 H   0  0  0  0  0  0
   -0.9540   33.0383   10.6420 H   0  0  0  0  0  0
   -3.9666   31.3161    9.1724 H   0  0  0  0  0  0
   -3.1484   30.6528    7.7760 H   0  0  0  0  0  0
   -2.8782   29.9594    9.3776 H   0  0  0  0  0  0
   -2.5111   25.7816   12.0886 H   0  0  0  0  0  0
   -3.1036   28.0520   12.6441 H   0  0  0  0  0  0
   -1.4481   26.6766   15.4678 H   0  0  0  0  0  0
   -2.5391   25.7240   14.4752 H   0  0  0  0  0  0
   -2.7419   27.4483   14.6552 H   0  0  0  0  0  0
   -0.3593   28.7525   12.3156 H   0  0  0  0  0  0
   -1.1790   29.0605   13.7864 H   0  0  0  0  0  0
    0.4572   28.3532   13.7759 H   0  0  0  0  0  0
    0.8585   25.9734   12.8137 H   0  0  0  0  0  0
    0.4581   26.0701   14.5173 H   0  0  0  0  0  0
   -0.3023   24.8613   13.5562 H   0  0  0  0  0  0
  1  2  1  0  0  0
  1 31  1  0  0  0
  1 32  1  0  0  0
  1 33  1  0  0  0
  2  3  1  0  0  0
  2 34  1  0  0  0
  2 35  1  0  0  0
  3  4  1  0  0  0
  3 25  1  0  0  0
  3 36  1  0  0  0
  4  5  1  0  0  0
  4 37  1  0  0  0
  5  6  2  0  0  0
  5 24  1  0  0  0
  6  7  1  0  0  0
  7  8  1  0  0  0
  7 16  2  0  0  0
  8  9  1  0  0  0
  8 38  1  0  0  0
  9 10  1  0  0  0
  9 39  1  0  0  0
  9 40  1  0  0  0
 10 11  2  0  0  0
 10 15  1  0  0  0
 11 12  1  0  0  0
 11 41  1  0  0  0
 12 13  2  0  0  0
 12 42  1  0  0  0
 13 14  1  0  0  0
 13 43  1  0  0  0
 14 15  2  0  0  0
 15 44  1  0  0  0
 16 17  1  0  0  0
 16 23  1  0  0  0
 17 18  2  0  0  0
 18 19  1  0  0  0
 18 45  1  0  0  0
 19 20  1  0  0  0
 19 23  1  0  0  0
 20 21  1  0  0  0
 20 22  1  0  0  0
 20 46  1  0  0  0
 21 47  1  0  0  0
 21 48  1  0  0  0
 21 49  1  0  0  0
 22 50  1  0  0  0
 22 51  1  0  0  0
 22 52  1  0  0  0
 23 24  2  0  0  0
 25 26  1  0  0  0
 25 27  1  0  0  0
 25 53  1  0  0  0
 26 54  1  0  0  0
 27 28  1  0  0  0
 27 29  1  0  0  0
 27 30  1  0  0  0
 28 55  1  0  0  0
 28 56  1  0  0  0
 28 57  1  0  0  0
 29 58  1  0  0  0
 29 59  1  0  0  0
 29 60  1  0  0  0
 30 61  1  0  0  0
 30 62  1  0  0  0
 30 63  1  0  0  0
M  END
> <s_m_entry_id>
32915

> <s_m_entry_name>
dock_pv.316

> <s_m_Source_Path>
/home/csk/Desktop/cluster/DUD-E-result/cdk2

> <s_m_Source_File>
dock_pv.maegz

> <i_m_Source_File_Index>
316

> <chembl_id>
CHEMBL1922211

> <chembl_pref_name>
None

> <i_lp_mmshare_version>
53161

> <i_f3d_flags>
0

> <r_lp_tautomer_probability>
1

> <s_lp_Force_Field>
OPLS_2005

> <r_lp_Energy>
31.223423

> <b_lp_Chiralities_Consistent>
1

> <s_lp_Variant>
CHEMBL301_lig1373-1

> <s_i_glide_gridfile>
glide-grid_1h00

> <i_i_glide_lignum>
1837

> <i_i_glide_rotatable_bonds>
10

> <r_i_docking_score>
-7.45995225154833

> <r_i_glide_ligand_efficiency>
-0.248665075051611

> <r_i_glide_ligand_efficiency_sa>
-0.772660203419831

> <r_i_glide_ligand_efficiency_ln>
-1.69498243424179

> <r_i_glide_gscore>
-7.45995225154833

> <r_i_glide_lipo>
-3.04459600692243

> <r_i_glide_hbond>
-0.333525946326326

> <r_i_glide_metal>
0

> <r_i_glide_rewards>
-2.14324811252328

> <r_i_glide_evdw>
-40.7025604248047

> <r_i_glide_ecoul>
-4.01144313812256

> <r_i_glide_erotb>
0.698262306182332

> <r_i_glide_esite>
0

> <r_i_glide_emodel>
-52.4061518867319

> <r_i_glide_energy>
-44.7140035629272

> <r_i_glide_einternal>
11.9866781234741

> <i_i_glide_confnum>
24

> <i_i_glide_posenum>
188

> <r_i_glide_eff_state_penalty>
0

> <s_user_duplicate_titles>
CHEMBL301_lig1373

> <s_m_subgroup_title>
dock_pv

> <s_m_subgroupid>
dock_pv

> <b_m_subgroup_collapsed>
1

$$$$
CHEMBL301_lig24
                    3D
 Schrodinger Suite 2021-1.
 57 60  0  0  1  0            999 V2000
    0.2718   29.7208    9.1788 C   0  0  0  0  0  0
    1.5474   29.6610    8.6005 N   0  0  0  0  0  0
   -0.1360   28.8045   10.0588 N   0  0  0  0  0  0
    0.7387   27.8303   10.4314 C   0  0  0  0  0  0
    2.4584   28.6976    8.9703 C   0  0  0  0  0  0
    2.0550   27.8018    9.9632 C   0  0  0  0  0  0
    1.7210   30.6518    7.6890 N   0  0  0  0  0  0
   -0.3419   30.8864    8.6523 C   0  0  0  0  0  0
    0.2308   26.8826   11.3231 N   0  0  0  0  0  0
    0.6302   31.3812    7.7763 C   0  0  0  0  0  0
    3.7180   28.6414    8.3428 N   0  0  0  0  0  0
    0.7759   25.4966   11.4719 C   0  0  2  0  0  0
    7.0511   25.6475    6.3928 N   0  3  0  0  0  0
    5.3333   27.0127    7.3156 C   0  0  0  0  0  0
    4.6711   27.5551    8.5758 C   0  0  0  0  0  0
   -1.6935   31.4668    9.0161 C   0  0  0  0  0  0
   -0.3568   27.4292   12.5680 C   0  0  0  0  0  0
    1.2454   24.7514   10.1768 C   0  0  0  0  0  0
    6.4530   26.1891    7.4707 C   0  0  0  0  0  0
    2.7796   23.0138    9.3761 O   0  0  0  0  0  0
    6.6065   25.8504    5.1351 C   0  0  0  0  0  0
    1.8814   23.3640   10.4141 C   0  0  0  0  0  0
    4.8507   27.2439    6.0168 C   0  0  0  0  0  0
   -0.1190   24.5486   12.3324 C   0  0  0  0  0  0
   -1.5784   32.9249    9.4783 C   0  0  0  0  0  0
   -1.3719   26.5022   13.2431 C   0  0  0  0  0  0
    5.4837   26.6523    4.9199 C   0  0  0  0  0  0
   -0.7206   25.1749   13.5930 C   0  0  0  0  0  0
    8.0519   24.9057    6.5733 O   0  5  0  0  0  0
    2.7455   27.0944   10.3869 H   0  0  0  0  0  0
    0.5518   32.3121    7.2348 H   0  0  0  0  0  0
    3.9452   29.3524    7.6593 H   0  0  0  0  0  0
    1.6652   25.6921   12.0737 H   0  0  0  0  0  0
    4.2008   26.6889    9.0346 H   0  0  0  0  0  0
    5.4453   27.9021    9.2606 H   0  0  0  0  0  0
   -2.3837   31.4032    8.1762 H   0  0  0  0  0  0
   -2.1558   30.8864    9.8166 H   0  0  0  0  0  0
    0.4578   27.6636   13.2556 H   0  0  0  0  0  0
   -0.8713   28.3738   12.3830 H   0  0  0  0  0  0
    0.4062   24.6521    9.4893 H   0  0  0  0  0  0
    1.9726   25.3320    9.6213 H   0  0  0  0  0  0
    6.8892   25.9308    8.4255 H   0  0  0  0  0  0
    2.3149   23.0757    8.5259 H   0  0  0  0  0  0
    7.1660   25.3613    4.3515 H   0  0  0  0  0  0
    2.4693   23.3839   11.3321 H   0  0  0  0  0  0
    1.1192   22.5976   10.5554 H   0  0  0  0  0  0
    3.9821   27.8627    5.8469 H   0  0  0  0  0  0
    0.4589   23.6870   12.6689 H   0  0  0  0  0  0
   -0.9406   24.1800   11.7161 H   0  0  0  0  0  0
   -2.5489   33.3200    9.7777 H   0  0  0  0  0  0
   -0.9104   33.0149   10.3352 H   0  0  0  0  0  0
   -1.1850   33.5581    8.6826 H   0  0  0  0  0  0
   -1.7494   26.9776   14.1494 H   0  0  0  0  0  0
   -2.2420   26.3666   12.5984 H   0  0  0  0  0  0
    5.1164   26.8207    3.9173 H   0  0  0  0  0  0
    0.0571   25.3353   14.3420 H   0  0  0  0  0  0
   -1.4514   24.4997   14.0416 H   0  0  0  0  0  0
  1  2  1  0  0  0
  1  3  1  0  0  0
  1  8  2  0  0  0
  2  5  1  0  0  0
  2  7  1  0  0  0
  3  4  2  0  0  0
  4  9  1  0  0  0
  4  6  1  0  0  0
  5  6  2  0  0  0
  5 11  1  0  0  0
  6 30  1  0  0  0
  7 10  2  0  0  0
  8 10  1  0  0  0
  8 16  1  0  0  0
  9 12  1  0  0  0
  9 17  1  0  0  0
 10 31  1  0  0  0
 11 15  1  0  0  0
 11 32  1  0  0  0
 12 18  1  0  0  0
 12 24  1  0  0  0
 12 33  1  0  0  0
 13 19  2  0  0  0
 13 21  1  0  0  0
 13 29  1  0  0  0
 14 15  1  0  0  0
 14 19  1  0  0  0
 14 23  2  0  0  0
 15 34  1  0  0  0
 15 35  1  0  0  0
 16 25  1  0  0  0
 16 36  1  0  0  0
 16 37  1  0  0  0
 17 26  1  0  0  0
 17 38  1  0  0  0
 17 39  1  0  0  0
 18 22  1  0  0  0
 18 40  1  0  0  0
 18 41  1  0  0  0
 19 42  1  0  0  0
 20 22  1  0  0  0
 20 43  1  0  0  0
 21 27  2  0  0  0
 21 44  1  0  0  0
 22 45  1  0  0  0
 22 46  1  0  0  0
 23 27  1  0  0  0
 23 47  1  0  0  0
 24 28  1  0  0  0
 24 48  1  0  0  0
 24 49  1  0  0  0
 25 50  1  0  0  0
 25 51  1  0  0  0
 25 52  1  0  0  0
 26 28  1  0  0  0
 26 53  1  0  0  0
 26 54  1  0  0  0
 27 55  1  0  0  0
 28 56  1  0  0  0
 28 57  1  0  0  0
M  CHG  2  13   1  29  -1
M  END
> <s_m_entry_id>
32916

> <s_m_entry_name>
dock_pv.317

> <s_m_Source_Path>
/home/csk/Desktop/cluster/DUD-E-result/cdk2

> <s_m_Source_File>
dock_pv.maegz

> <i_m_Source_File_Index>
317

> <chembl_id>
CHEMBL2103840

> <chembl_pref_name>
DINACICLIB

> <i_lp_mmshare_version>
53161

> <i_f3d_flags>
0

> <r_lp_tautomer_probability>
1

> <s_lp_Force_Field>
OPLS_2005

> <r_lp_Energy>
32.811043

> <b_lp_Chiralities_Consistent>
1

> <s_lp_Variant>
CHEMBL301_lig24-1

> <s_i_glide_gridfile>
glide-grid_1h00

> <i_i_glide_lignum>
88

> <i_i_glide_rotatable_bonds>
8

> <r_i_docking_score>
-7.45961399698224

> <r_i_glide_ligand_efficiency>
-0.257228068861456

> <r_i_glide_ligand_efficiency_sa>
-0.790286123114688

> <r_i_glide_ligand_efficiency_ln>
-1.7080624458191

> <r_i_glide_gscore>
-7.45961399698224

> <r_i_glide_lipo>
-2.73067934436881

> <r_i_glide_hbond>
-0.338836240111231

> <r_i_glide_metal>
0

> <r_i_glide_rewards>
-1.79410042134615

> <r_i_glide_evdw>
-41.7868957519531

> <r_i_glide_ecoul>
-8.35610389709473

> <r_i_glide_erotb>
0.746762381005823

> <r_i_glide_esite>
0

> <r_i_glide_emodel>
-69.2074559114242

> <r_i_glide_energy>
-50.1429996490479

> <r_i_glide_einternal>
8.87907695770264

> <i_i_glide_confnum>
8

> <i_i_glide_posenum>
288

> <r_i_glide_eff_state_penalty>
0

> <s_user_duplicate_titles>
CHEMBL301_lig24

> <s_m_subgroup_title>
dock_pv

> <s_m_subgroupid>
dock_pv

> <b_m_subgroup_collapsed>
1

$$$$
CHEMBL301_lig502
                    3D
 Schrodinger Suite 2021-1.
 59 62  0  0  1  0            999 V2000
    3.6106   20.4004    4.3916 C   0  0  0  0  0  0
    3.4319   21.3236    5.4218 C   0  0  0  0  0  0
    3.6584   22.6497    5.2523 N   0  0  0  0  0  0
    4.0579   23.1058    4.0346 C   0  0  0  0  0  0
    4.2480   22.2308    2.9623 C   0  0  0  0  0  0
    4.0244   20.8656    3.1428 C   0  0  0  0  0  0
    4.2884   24.4769    3.8092 N   0  0  0  0  0  0
    4.4561   25.5309    4.6924 C   0  0  0  0  0  0
    4.4597   25.3754    6.4335 S   0  0  0  0  0  0
    4.7105   27.0882    6.5644 C   0  0  0  0  0  0
    4.8197   27.6071    5.2770 C   0  0  0  0  0  0
    4.6600   26.7576    4.2765 N   0  0  0  0  0  0
    4.8678   27.8997    8.1155 S   0  0  0  0  0  0
    3.2809   28.6527    8.2832 C   0  0  0  0  0  0
    2.4755   28.3403    9.3759 C   0  0  0  0  0  0
    1.2235   28.9542    9.5496 C   0  0  0  0  0  0
    0.8148   29.9380    8.6186 C   0  0  0  0  0  0
    1.6417   30.2520    7.5341 C   0  0  0  0  0  0
    2.8577   29.6028    7.3628 C   0  0  0  0  0  0
    0.3684   28.6100   10.7542 C   0  0  0  0  0  0
   -0.0626   27.3284   10.9306 N   0  0  0  0  0  0
    0.4596   26.1424   10.2246 C   0  0  0  0  0  0
    1.1992   25.2779   11.2698 C   0  0  0  0  0  0
    0.2246   24.9137   12.3166 N   0  0  0  0  0  0
   -0.3469   26.0740   13.0338 C   0  0  0  0  0  0
   -1.0321   27.0030   11.9992 C   0  0  0  0  0  0
   -0.1937   23.6465   12.5875 C   0  0  0  0  0  0
    0.3278   22.4569   11.7202 C   0  0  2  0  0  0
   -0.5076   30.6888    8.7420 C   0  0  0  0  0  0
    2.8494   20.7057    7.1244 Br  0  0  0  0  0  0
   -0.7420   21.4518   11.5776 N   0  0  0  0  0  0
   -0.9689   23.3935   13.5203 O   0  0  0  0  0  0
    1.6005   21.8551   12.3395 C   0  0  0  0  0  0
    0.0354   29.5253   11.5101 O   0  0  0  0  0  0
    3.4400   19.3486    4.5584 H   0  0  0  0  0  0
    4.5682   22.6028    1.9999 H   0  0  0  0  0  0
    4.1734   20.1783    2.3227 H   0  0  0  0  0  0
    4.4572   24.6522    2.8201 H   0  0  0  0  0  0
    5.0211   28.6438    5.0512 H   0  0  0  0  0  0
    2.8437   27.6262   10.1019 H   0  0  0  0  0  0
    1.3419   31.0001    6.8134 H   0  0  0  0  0  0
    3.4802   29.8519    6.5184 H   0  0  0  0  0  0
   -0.3791   25.5858    9.8043 H   0  0  0  0  0  0
    1.1047   26.3674    9.3794 H   0  0  0  0  0  0
    1.9924   25.8673   11.7355 H   0  0  0  0  0  0
    1.7148   24.4393   10.8088 H   0  0  0  0  0  0
   -1.0627   25.7824   13.8041 H   0  0  0  0  0  0
    0.4581   26.6152   13.5300 H   0  0  0  0  0  0
   -1.8717   26.4790   11.5412 H   0  0  0  0  0  0
   -1.4436   27.8896   12.4854 H   0  0  0  0  0  0
    0.5526   22.7933   10.7087 H   0  0  0  0  0  0
   -0.7426   31.2509    7.8392 H   0  0  0  0  0  0
   -1.3298   29.9968    8.9216 H   0  0  0  0  0  0
   -0.4712   31.3807    9.5827 H   0  0  0  0  0  0
   -0.3662   20.5491   11.3147 H   0  0  0  0  0  0
   -1.1524   21.2823   12.4898 H   0  0  0  0  0  0
    2.3957   22.5973   12.4237 H   0  0  0  0  0  0
    1.9813   21.0341   11.7296 H   0  0  0  0  0  0
    1.4159   21.4579   13.3404 H   0  0  0  0  0  0
  1  6  1  0  0  0
  1  2  2  0  0  0
  1 35  1  0  0  0
  2 30  1  0  0  0
  2  3  1  0  0  0
  3  4  2  0  0  0
  4  7  1  0  0  0
  4  5  1  0  0  0
  5  6  2  0  0  0
  5 36  1  0  0  0
  6 37  1  0  0  0
  7  8  1  0  0  0
  7 38  1  0  0  0
  8  9  1  0  0  0
  8 12  2  0  0  0
  9 10  1  0  0  0
 10 11  2  0  0  0
 10 13  1  0  0  0
 11 12  1  0  0  0
 11 39  1  0  0  0
 13 14  1  0  0  0
 14 15  2  0  0  0
 14 19  1  0  0  0
 15 16  1  0  0  0
 15 40  1  0  0  0
 16 17  2  0  0  0
 16 20  1  0  0  0
 17 18  1  0  0  0
 17 29  1  0  0  0
 18 19  2  0  0  0
 18 41  1  0  0  0
 19 42  1  0  0  0
 20 21  1  0  0  0
 20 34  2  0  0  0
 21 22  1  0  0  0
 21 26  1  0  0  0
 22 23  1  0  0  0
 22 43  1  0  0  0
 22 44  1  0  0  0
 23 24  1  0  0  0
 23 45  1  0  0  0
 23 46  1  0  0  0
 24 25  1  0  0  0
 24 27  1  0  0  0
 25 26  1  0  0  0
 25 47  1  0  0  0
 25 48  1  0  0  0
 26 49  1  0  0  0
 26 50  1  0  0  0
 27 28  1  0  0  0
 27 32  2  0  0  0
 28 31  1  0  0  0
 28 33  1  0  0  0
 28 51  1  0  0  0
 29 52  1  0  0  0
 29 53  1  0  0  0
 29 54  1  0  0  0
 31 55  1  0  0  0
 31 56  1  0  0  0
 33 57  1  0  0  0
 33 58  1  0  0  0
 33 59  1  0  0  0
M  END
> <s_m_entry_id>
32917

> <s_m_entry_name>
dock_pv.318

> <s_m_Source_Path>
/home/csk/Desktop/cluster/DUD-E-result/cdk2

> <s_m_Source_File>
dock_pv.maegz

> <i_m_Source_File_Index>
318

> <chembl_id>
CHEMBL251796

> <chembl_pref_name>
None

> <i_lp_mmshare_version>
53161

> <i_f3d_flags>
0

> <r_lp_tautomer_probability>
0.999999772200052

> <s_lp_Force_Field>
OPLS_2005

> <r_lp_Energy>
58.732891

> <b_lp_Chiralities_Consistent>
1

> <s_lp_Variant>
CHEMBL301_lig502-1

> <s_i_glide_gridfile>
glide-grid_1h00

> <i_i_glide_lignum>
694

> <i_i_glide_rotatable_bonds>
8

> <r_i_docking_score>
-7.45714472675384

> <r_i_glide_ligand_efficiency>
-0.219327786080995

> <r_i_glide_ligand_efficiency_sa>
-0.710536883300853

> <r_i_glide_ligand_efficiency_ln>
-1.64749243596459

> <r_i_glide_gscore>
-7.45714472675384

> <r_i_glide_lipo>
-2.52376813202969

> <r_i_glide_hbond>
-0.456

> <r_i_glide_metal>
0

> <r_i_glide_rewards>
-0.936786084925469

> <r_i_glide_evdw>
-47.6400871276855

> <r_i_glide_ecoul>
-9.75382041931152

> <r_i_glide_erotb>
0.380543891684935

> <r_i_glide_esite>
-0.0760569822026153

> <r_i_glide_emodel>
-81.891717282792

> <r_i_glide_energy>
-57.3939075469971

> <r_i_glide_einternal>
3.57954907417297

> <i_i_glide_confnum>
132

> <i_i_glide_posenum>
374

> <r_i_glide_eff_state_penalty>
0

> <s_user_duplicate_titles>
CHEMBL301_lig502,423090

> <s_m_subgroup_title>
dock_pv

> <s_m_subgroupid>
dock_pv

> <b_m_subgroup_collapsed>
1

$$$$
CHEMBL301_lig1356
                    3D
 Schrodinger Suite 2021-1.
 57 59  0  0  1  0            999 V2000
   -0.4879   27.1951    9.8785 C   0  0  0  0  0  0
   -0.5226   28.4128   10.8233 C   0  0  1  0  0  0
   -1.1510   29.5658   10.1650 N   0  0  0  0  0  0
   -0.4465   30.3779    9.2569 C   0  0  0  0  0  0
    0.6414   29.8741    8.6098 N   0  0  0  0  0  0
    1.3097   30.6951    7.7607 C   0  0  0  0  0  0
    2.4579   30.2390    7.1001 N   0  0  0  0  0  0
    3.2261   29.0689    7.2121 C   0  0  0  0  0  0
    3.3099   28.3327    8.3956 C   0  0  0  0  0  0
    4.0569   27.1601    8.4245 C   0  0  0  0  0  0
    4.7504   26.7413    7.2850 C   0  0  0  0  0  0
    4.7004   27.4962    6.1152 C   0  0  0  0  0  0
    3.9335   28.6521    6.0832 C   0  0  0  0  0  0
    5.6652   25.2106    7.3549 S   0  0  1  0  0  0
    6.8619   25.6274    8.2026 N   0  0  0  0  0  0
    4.7329   24.1461    7.7385 O   0  0  0  0  0  0
    6.4212   24.8344    5.6352 C   0  0  0  0  0  0
    7.5128   25.8482    5.2095 C   0  0  0  0  0  0
    8.8261   25.0621    5.0860 C   0  0  0  0  0  0
    8.6046   23.7732    5.8751 C   0  0  0  0  0  0
    7.1239   23.4647    5.6599 C   0  0  0  0  0  0
    0.9656   31.9799    7.4948 N   0  0  0  0  0  0
   -0.0987   32.4778    8.1760 C   0  0  0  0  0  0
   -0.8494   31.7070    9.0653 C   0  0  0  0  0  0
   -2.3340   32.4796    9.9831 Br  0  0  0  0  0  0
   -1.1342   28.0982   12.2288 C   0  0  0  0  0  0
   -1.1065   29.3338   13.1513 C   0  0  0  0  0  0
   -2.5584   27.5046   12.1567 C   0  0  0  0  0  0
   -0.3373   27.1206   12.8760 O   0  0  0  0  0  0
    0.0163   26.3405   10.3295 H   0  0  0  0  0  0
   -1.4853   26.8813    9.5698 H   0  0  0  0  0  0
    0.0537   27.4522    8.9761 H   0  0  0  0  0  0
    0.5187   28.6928   10.9995 H   0  0  0  0  0  0
   -1.8894   30.0242   10.6809 H   0  0  0  0  0  0
    2.9210   30.9453    6.5413 H   0  0  0  0  0  0
    2.7874   28.6452    9.2866 H   0  0  0  0  0  0
    4.0602   26.5716    9.3303 H   0  0  0  0  0  0
    5.2275   27.1983    5.2233 H   0  0  0  0  0  0
    3.8943   29.2312    5.1725 H   0  0  0  0  0  0
    6.5740   25.8522    9.1505 H   0  0  0  0  0  0
    5.5687   24.8142    4.9556 H   0  0  0  0  0  0
    7.2726   26.3123    4.2521 H   0  0  0  0  0  0
    7.6298   26.6518    5.9356 H   0  0  0  0  0  0
    9.0223   24.8271    4.0390 H   0  0  0  0  0  0
    9.6815   25.6291    5.4573 H   0  0  0  0  0  0
    9.2525   22.9626    5.5401 H   0  0  0  0  0  0
    8.8047   23.9424    6.9342 H   0  0  0  0  0  0
    6.7177   22.7882    6.4126 H   0  0  0  0  0  0
    6.9829   22.9663    4.6989 H   0  0  0  0  0  0
   -0.3530   33.5102    7.9823 H   0  0  0  0  0  0
   -1.6741   30.1624   12.7302 H   0  0  0  0  0  0
   -0.0915   29.6971   13.3059 H   0  0  0  0  0  0
   -1.5419   29.1171   14.1277 H   0  0  0  0  0  0
   -3.2734   28.2333   11.7740 H   0  0  0  0  0  0
   -2.6100   26.6201   11.5227 H   0  0  0  0  0  0
   -2.9053   27.1872   13.1402 H   0  0  0  0  0  0
    0.5624   27.4530   12.9681 H   0  0  0  0  0  0
  1  2  1  0  0  0
  1 30  1  0  0  0
  1 31  1  0  0  0
  1 32  1  0  0  0
  2  3  1  0  0  0
  2 26  1  0  0  0
  2 33  1  0  0  0
  3  4  1  0  0  0
  3 34  1  0  0  0
  4  5  2  0  0  0
  4 24  1  0  0  0
  5  6  1  0  0  0
  6  7  1  0  0  0
  6 22  2  0  0  0
  7  8  1  0  0  0
  7 35  1  0  0  0
  8  9  2  0  0  0
  8 13  1  0  0  0
  9 10  1  0  0  0
  9 36  1  0  0  0
 10 11  2  0  0  0
 10 37  1  0  0  0
 11 12  1  0  0  0
 11 14  1  0  0  0
 12 13  2  0  0  0
 12 38  1  0  0  0
 13 39  1  0  0  0
 14 15  2  0  0  0
 14 16  2  0  0  0
 14 17  1  0  0  0
 15 40  1  0  0  0
 17 18  1  0  0  0
 17 21  1  0  0  0
 17 41  1  0  0  0
 18 19  1  0  0  0
 18 42  1  0  0  0
 18 43  1  0  0  0
 19 20  1  0  0  0
 19 44  1  0  0  0
 19 45  1  0  0  0
 20 21  1  0  0  0
 20 46  1  0  0  0
 20 47  1  0  0  0
 21 48  1  0  0  0
 21 49  1  0  0  0
 22 23  1  0  0  0
 23 24  2  0  0  0
 23 50  1  0  0  0
 24 25  1  0  0  0
 26 27  1  0  0  0
 26 28  1  0  0  0
 26 29  1  0  0  0
 27 51  1  0  0  0
 27 52  1  0  0  0
 27 53  1  0  0  0
 28 54  1  0  0  0
 28 55  1  0  0  0
 28 56  1  0  0  0
 29 57  1  0  0  0
M  END
> <s_m_entry_id>
32918

> <s_m_entry_name>
dock_pv.319

> <s_m_Source_Path>
/home/csk/Desktop/cluster/DUD-E-result/cdk2

> <s_m_Source_File>
dock_pv.maegz

> <i_m_Source_File_Index>
319

> <chembl_id>
CHEMBL3648078

> <chembl_pref_name>
None

> <i_lp_mmshare_version>
53161

> <i_f3d_flags>
0

> <r_lp_tautomer_probability>
0.999999624730965

> <s_lp_Force_Field>
OPLS_2005

> <r_lp_Energy>
25.798054

> <b_lp_Chiralities_Consistent>
1

> <s_lp_Variant>
CHEMBL301_lig1356-2

> <s_i_glide_gridfile>
glide-grid_1h00

> <i_i_glide_lignum>
1811

> <i_i_glide_rotatable_bonds>
8

> <r_i_docking_score>
-7.45653470745874

> <r_i_glide_ligand_efficiency>
-0.257121886464095

> <r_i_glide_ligand_efficiency_sa>
-0.789959897149047

> <r_i_glide_ligand_efficiency_ln>
-1.70735736660226

> <r_i_glide_gscore>
-7.45653470745874

> <r_i_glide_lipo>
-2.59294662652382

> <r_i_glide_hbond>
-0.572342431583206

> <r_i_glide_metal>
0

> <r_i_glide_rewards>
-1.42906471513495

> <r_i_glide_evdw>
-40.9815483093262

> <r_i_glide_ecoul>
-9.4896240234375

> <r_i_glide_erotb>
0.610340084765167

> <r_i_glide_esite>
0

> <r_i_glide_emodel>
-70.8387938925636

> <r_i_glide_energy>
-50.4711723327637

> <r_i_glide_einternal>
5.32793807983398

> <i_i_glide_confnum>
167

> <i_i_glide_posenum>
359

> <r_i_glide_eff_state_penalty>
0

> <s_user_duplicate_titles>
CHEMBL301_lig1356

> <s_m_subgroup_title>
dock_pv

> <s_m_subgroupid>
dock_pv

> <b_m_subgroup_collapsed>
1

$$$$
CHEMBL301_lig12
                    3D
 Schrodinger Suite 2021-1.
 55 57  0  0  1  0            999 V2000
    0.6726   29.8522    8.6790 N   0  0  0  0  0  0
   -0.1240   30.8280    8.2295 C   0  0  0  0  0  0
   -1.2140   31.3588    8.7968 N   0  0  0  0  0  0
   -1.5963   30.8798   10.0075 C   0  0  0  0  0  0
    0.2824   29.4074    9.8983 C   0  0  0  0  0  0
   -0.8098   29.8704   10.6141 C   0  0  0  0  0  0
   -0.9080   29.2501   11.8010 N   0  0  0  0  0  0
    0.1116   28.4302   11.8202 C   0  0  0  0  0  0
    0.8569   28.4540   10.6966 N   0  0  0  0  0  0
   -2.7412   31.4261   10.5753 N   0  0  0  0  0  0
    2.0948   27.6157   10.4101 C   0  0  2  0  0  0
    2.8083   28.0776    9.3063 O   0  0  0  0  0  0
    3.6494   27.0539    8.8073 C   0  0  1  0  0  0
    2.8434   25.7643    9.0687 C   0  0  2  0  0  0
    1.8251   26.1263   10.1693 C   0  0  1  0  0  0
    3.6581   24.6548    9.3759 O   0  0  0  0  0  0
    1.9505   25.4407   11.4067 O   0  0  0  0  0  0
    4.0591   27.3749    7.3655 C   0  0  0  0  0  0
    4.4582   26.1732    6.7259 O   0  0  0  0  0  0
    5.9905   25.9992    6.2383 P   0  0  1  0  0  0
    5.9945   24.5833    5.4745 O   0  0  0  0  0  0
    6.0580   27.0519    5.0182 O   0  0  0  0  0  0
    7.0246   26.1717    7.2933 O   0  0  0  0  0  0
    5.7161   24.0384    3.8985 P   0  0  2  0  0  0
    6.8071   24.9003    2.9267 O   0  0  0  0  0  0
    4.2327   24.6695    3.3760 O   0  0  0  0  0  0
    5.8118   22.5409    3.7294 O   0  0  0  0  0  0
    7.8284   24.6568    1.7040 P   0  0  1  0  0  0
    8.7446   26.0855    1.6415 N   0  0  1  0  0  0
    8.5820   23.3784    1.7821 O   0  0  0  0  0  0
    6.8576   24.7988    0.4138 O   0  0  0  0  0  0
    9.0293   26.9033    2.8167 C   0  0  0  0  0  0
   10.0494   26.3031    3.7612 C   0  0  0  0  0  0
    9.9100   26.2322    5.0937 C   0  0  0  0  0  0
    0.1631   31.2481    7.2795 H   0  0  0  0  0  0
    0.3719   27.7743   12.6383 H   0  0  0  0  0  0
   -3.0660   31.1095   11.4920 H   0  0  0  0  0  0
   -3.2197   32.1614   10.0789 H   0  0  0  0  0  0
    2.7559   27.7645   11.2693 H   0  0  0  0  0  0
    4.5689   27.0523    9.3760 H   0  0  0  0  0  0
    2.3111   25.4519    8.1807 H   0  0  0  0  0  0
    0.8117   26.0180    9.7772 H   0  0  0  0  0  0
    4.3197   24.9987    9.9987 H   0  0  0  0  0  0
    1.2824   25.7646   12.0171 H   0  0  0  0  0  0
    4.8526   28.1266    7.3771 H   0  0  0  0  0  0
    3.2596   27.8526    6.8057 H   0  0  0  0  0  0
    6.7533   27.7444    5.1313 H   0  0  0  0  0  0
    4.0562   24.6523    2.3961 H   0  0  0  0  0  0
    9.5091   26.0873    0.9630 H   0  0  0  0  0  0
    5.8944   24.6507    0.5712 H   0  0  0  0  0  0
    8.1003   27.1152    3.3466 H   0  0  0  0  0  0
    9.4186   27.8625    2.4722 H   0  0  0  0  0  0
   10.9469   25.9118    3.3010 H   0  0  0  0  0  0
    9.0319   26.6155    5.5916 H   0  0  0  0  0  0
   10.6815   25.7922    5.7084 H   0  0  0  0  0  0
  1  2  2  0  0  0
  1  5  1  0  0  0
  2  3  1  0  0  0
  2 35  1  0  0  0
  3  4  2  0  0  0
  4  6  1  0  0  0
  4 10  1  0  0  0
  5  9  1  0  0  0
  5  6  2  0  0  0
  6  7  1  0  0  0
  7  8  2  0  0  0
  8  9  1  0  0  0
  8 36  1  0  0  0
  9 11  1  0  0  0
 10 37  1  0  0  0
 10 38  1  0  0  0
 11 12  1  0  0  0
 11 15  1  0  0  0
 11 39  1  0  0  0
 12 13  1  0  0  0
 13 18  1  0  0  0
 13 14  1  0  0  0
 13 40  1  0  0  0
 14 16  1  0  0  0
 14 15  1  0  0  0
 14 41  1  0  0  0
 15 17  1  0  0  0
 15 42  1  0  0  0
 16 43  1  0  0  0
 17 44  1  0  0  0
 18 19  1  0  0  0
 18 45  1  0  0  0
 18 46  1  0  0  0
 19 20  1  0  0  0
 20 21  1  0  0  0
 20 22  1  0  0  0
 20 23  2  0  0  0
 21 24  1  0  0  0
 22 47  1  0  0  0
 24 25  1  0  0  0
 24 26  1  0  0  0
 24 27  2  0  0  0
 25 28  1  0  0  0
 26 48  1  0  0  0
 28 29  1  0  0  0
 28 30  2  0  0  0
 28 31  1  0  0  0
 29 32  1  0  0  0
 29 49  1  0  0  0
 31 50  1  0  0  0
 32 33  1  0  0  0
 32 51  1  0  0  0
 32 52  1  0  0  0
 33 34  2  0  0  0
 33 53  1  0  0  0
 34 54  1  0  0  0
 34 55  1  0  0  0
M  END
> <s_m_entry_id>
32919

> <s_m_entry_name>
dock_pv.320

> <s_m_Source_Path>
/home/csk/Desktop/cluster/DUD-E-result/cdk2

> <s_m_Source_File>
dock_pv.maegz

> <i_m_Source_File_Index>
320

> <chembl_id>
CHEMBL560604

> <chembl_pref_name>
None

> <i_lp_mmshare_version>
53161

> <i_f3d_flags>
0

> <r_lp_tautomer_probability>
0.999997216410988

> <s_lp_Force_Field>
OPLS_2005

> <r_lp_Energy>
23.986254

> <b_lp_Chiralities_Consistent>
1

> <s_lp_Variant>
CHEMBL301_lig12-2

> <s_i_glide_gridfile>
glide-grid_1h00

> <i_i_glide_lignum>
49

> <i_i_glide_rotatable_bonds>
16

> <r_i_docking_score>
-7.45139178310127

> <r_i_glide_ligand_efficiency>
-0.21915858185592

> <r_i_glide_ligand_efficiency_sa>
-0.709988727297116

> <r_i_glide_ligand_efficiency_ln>
-1.64622144934713

> <r_i_glide_gscore>
-7.45139178310127

> <r_i_glide_lipo>
-0.967222661602621

> <r_i_glide_hbond>
-0.16

> <r_i_glide_metal>
0

> <r_i_glide_rewards>
-1.17149470488784

> <r_i_glide_evdw>
-35.9866600036621

> <r_i_glide_ecoul>
-31.2725467681885

> <r_i_glide_erotb>
0.763399580262734

> <r_i_glide_esite>
-0.116740996690439

> <r_i_glide_emodel>
-90.8882434194734

> <r_i_glide_energy>
-67.2592067718506

> <r_i_glide_einternal>
19.617244720459

> <i_i_glide_confnum>
175

> <i_i_glide_posenum>
324

> <r_i_glide_eff_state_penalty>
0

> <s_user_duplicate_titles>
CHEMBL301_lig12

> <s_m_subgroup_title>
dock_pv

> <s_m_subgroupid>
dock_pv

> <b_m_subgroup_collapsed>
1

$$$$
CHEMBL301_lig1464
                    3D
 Schrodinger Suite 2021-1.
 41 42  0  0  1  0            999 V2000
    6.9225   25.3079    5.5163 C   0  0  0  0  0  0
    6.0664   25.4371    7.1891 S   0  0  0  0  0  0
    7.0805   25.8231    8.1762 O   0  0  0  0  0  0
    5.2585   24.2282    7.3756 O   0  0  0  0  0  0
    4.9214   26.8076    7.0802 C   0  0  0  0  0  0
    4.8584   27.5979    5.9365 C   0  0  0  0  0  0
    4.0192   28.6999    5.9143 C   0  0  0  0  0  0
    3.2581   29.0518    7.0327 C   0  0  0  0  0  0
    2.4580   30.2067    6.9517 N   0  0  0  0  0  0
    1.3677   30.6653    7.6934 C   0  0  0  0  0  0
    0.9829   31.9422    7.4569 N   0  0  0  0  0  0
   -0.0793   32.3917    8.1760 C   0  0  0  0  0  0
   -0.8025   31.5707    9.0567 C   0  0  0  0  0  0
   -0.3330   30.2599    9.2262 C   0  0  0  0  0  0
   -0.9768   29.3697   10.0725 O   0  0  0  0  0  0
   -0.6277   27.9764   10.0898 C   0  0  0  0  0  0
    0.0290   27.5682   11.4190 C   0  0  0  0  0  0
   -0.8971   27.6547   12.6419 C   0  0  0  0  0  0
   -1.1388   28.9211   12.9753 F   0  0  0  0  0  0
   -0.3421   27.0519   13.6932 F   0  0  0  0  0  0
   -2.0659   27.0534   12.4185 F   0  0  0  0  0  0
    0.7668   29.8269    8.5643 N   0  0  0  0  0  0
   -2.0290   32.0918    9.7895 C   0  0  0  0  0  0
   -3.0958   31.8305    9.0390 F   0  0  0  0  0  0
   -2.1945   31.5138   10.9756 F   0  0  0  0  0  0
   -1.9420   33.4072    9.9860 F   0  0  0  0  0  0
    3.3224   28.2519    8.1763 C   0  0  0  0  0  0
    4.1095   27.1057    8.1757 C   0  0  0  0  0  0
    7.6149   24.4693    5.5543 H   0  0  0  0  0  0
    6.1743   25.1343    4.7442 H   0  0  0  0  0  0
    7.4728   26.2305    5.3293 H   0  0  0  0  0  0
    5.4637   27.3951    5.0670 H   0  0  0  0  0  0
    4.0103   29.3069    5.0248 H   0  0  0  0  0  0
    2.8626   30.9010    6.3370 H   0  0  0  0  0  0
   -0.3526   33.4268    8.0131 H   0  0  0  0  0  0
    0.0073   27.6559    9.2661 H   0  0  0  0  0  0
   -1.5419   27.4037    9.9461 H   0  0  0  0  0  0
    0.9200   28.1753   11.5907 H   0  0  0  0  0  0
    0.3842   26.5414   11.3274 H   0  0  0  0  0  0
    2.7540   28.4787    9.0637 H   0  0  0  0  0  0
    4.0619   26.4483    9.0242 H   0  0  0  0  0  0
  1  2  1  0  0  0
  1 29  1  0  0  0
  1 30  1  0  0  0
  1 31  1  0  0  0
  2  3  2  0  0  0
  2  4  2  0  0  0
  2  5  1  0  0  0
  5  6  2  0  0  0
  5 28  1  0  0  0
  6  7  1  0  0  0
  6 32  1  0  0  0
  7  8  2  0  0  0
  7 33  1  0  0  0
  8  9  1  0  0  0
  8 27  1  0  0  0
  9 10  1  0  0  0
  9 34  1  0  0  0
 10 11  2  0  0  0
 10 22  1  0  0  0
 11 12  1  0  0  0
 12 13  2  0  0  0
 12 35  1  0  0  0
 13 14  1  0  0  0
 13 23  1  0  0  0
 14 15  1  0  0  0
 14 22  2  0  0  0
 15 16  1  0  0  0
 16 17  1  0  0  0
 16 36  1  0  0  0
 16 37  1  0  0  0
 17 18  1  0  0  0
 17 38  1  0  0  0
 17 39  1  0  0  0
 18 19  1  0  0  0
 18 20  1  0  0  0
 18 21  1  0  0  0
 23 24  1  0  0  0
 23 25  1  0  0  0
 23 26  1  0  0  0
 27 28  2  0  0  0
 27 40  1  0  0  0
 28 41  1  0  0  0
M  END
> <s_m_entry_id>
32920

> <s_m_entry_name>
dock_pv.321

> <s_m_Source_Path>
/home/csk/Desktop/cluster/DUD-E-result/cdk2

> <s_m_Source_File>
dock_pv.maegz

> <i_m_Source_File_Index>
321

> <chembl_id>
CHEMBL3644029

> <chembl_pref_name>
None

> <i_lp_mmshare_version>
53161

> <i_f3d_flags>
0

> <r_lp_tautomer_probability>
0.999999917912647

> <s_lp_Force_Field>
OPLS_2005

> <r_lp_Energy>
1.022667

> <b_lp_Chiralities_Consistent>
1

> <s_lp_Variant>
CHEMBL301_lig1464-1

> <s_i_glide_gridfile>
glide-grid_1h00

> <i_i_glide_lignum>
1977

> <i_i_glide_rotatable_bonds>
8

> <r_i_docking_score>
-7.4503780081757

> <r_i_glide_ligand_efficiency>
-0.266084928863418

> <r_i_glide_ligand_efficiency_sa>
-0.807990559671511

> <r_i_glide_ligand_efficiency_ln>
-1.71976599689067

> <r_i_glide_gscore>
-7.4503780081757

> <r_i_glide_lipo>
-2.44013016050261

> <r_i_glide_hbond>
-0.215437029445243

> <r_i_glide_metal>
0

> <r_i_glide_rewards>
-2.31883951743978

> <r_i_glide_evdw>
-38.408763885498

> <r_i_glide_ecoul>
-6.85124683380127

> <r_i_glide_erotb>
0.539017524626789

> <r_i_glide_esite>
-0.0668636060697563

> <r_i_glide_emodel>
-62.1141128418595

> <r_i_glide_energy>
-45.2600107192993

> <r_i_glide_einternal>
6.54374074935913

> <i_i_glide_confnum>
42

> <i_i_glide_posenum>
221

> <r_i_glide_eff_state_penalty>
0

> <s_user_duplicate_titles>
CHEMBL301_lig1464

> <s_m_subgroup_title>
dock_pv

> <s_m_subgroupid>
dock_pv

> <b_m_subgroup_collapsed>
1

$$$$
CHEMBL301_lig1288
                    3D
 Schrodinger Suite 2021-1.
 28 31  0  0  1  0            999 V2000
   -0.1284   30.4050    8.8401 C   0  0  0  0  0  0
    0.5183   31.1172    7.8302 C   0  0  0  0  0  0
    1.7644   30.8571    7.3734 N   0  0  0  0  0  0
    0.5303   29.3543    9.4971 C   0  0  0  0  0  0
   -0.1704   28.6699   10.6386 C   0  0  0  0  0  0
   -1.0480   29.2937   11.5194 C   0  0  0  0  0  0
   -1.5420   28.4026   12.4326 N   0  0  0  0  0  0
   -0.1458   27.2798   11.0545 C   0  0  0  0  0  0
   -1.0169   27.1588   12.1848 C   0  0  0  0  0  0
   -1.2107   25.9277   12.8156 C   0  0  0  0  0  0
   -0.5791   24.8157   12.3653 N   0  0  0  0  0  0
    0.2459   24.9155   11.2984 C   0  0  0  0  0  0
    0.4931   26.1053   10.6142 C   0  0  0  0  0  0
    1.8413   29.0501    9.0473 C   0  0  0  0  0  0
    2.3796   29.8491    7.9910 C   0  0  0  0  0  0
    3.6592   29.4116    7.7384 N   0  0  0  0  0  0
    3.9618   28.3643    8.5732 C   0  0  0  0  0  0
    2.8816   28.1197    9.3962 C   0  0  0  0  0  0
   -1.1228   30.7029    9.1377 H   0  0  0  0  0  0
    0.0583   31.9866    7.3913 H   0  0  0  0  0  0
   -1.3796   30.3201   11.5646 H   0  0  0  0  0  0
   -2.2246   28.6589   13.1405 H   0  0  0  0  0  0
   -1.8680   25.8189   13.6660 H   0  0  0  0  0  0
    0.7229   23.9985   10.9846 H   0  0  0  0  0  0
    1.1675   26.1121    9.7773 H   0  0  0  0  0  0
    4.3058   29.7930    7.0600 H   0  0  0  0  0  0
    4.9364   27.8954    8.5310 H   0  0  0  0  0  0
    2.8789   27.3829   10.1866 H   0  0  0  0  0  0
  1  2  2  0  0  0
  1  4  1  0  0  0
  1 19  1  0  0  0
  2  3  1  0  0  0
  2 20  1  0  0  0
  3 15  2  0  0  0
  4 14  2  0  0  0
  4  5  1  0  0  0
  5  6  2  0  0  0
  5  8  1  0  0  0
  6  7  1  0  0  0
  6 21  1  0  0  0
  7  9  1  0  0  0
  7 22  1  0  0  0
  8  9  2  0  0  0
  8 13  1  0  0  0
  9 10  1  0  0  0
 10 11  2  0  0  0
 10 23  1  0  0  0
 11 12  1  0  0  0
 12 13  2  0  0  0
 12 24  1  0  0  0
 13 25  1  0  0  0
 14 15  1  0  0  0
 14 18  1  0  0  0
 15 16  1  0  0  0
 16 17  1  0  0  0
 16 26  1  0  0  0
 17 18  2  0  0  0
 17 27  1  0  0  0
 18 28  1  0  0  0
M  END
> <s_m_entry_id>
32921

> <s_m_entry_name>
dock_pv.322

> <s_m_Source_Path>
/home/csk/Desktop/cluster/DUD-E-result/cdk2

> <s_m_Source_File>
dock_pv.maegz

> <i_m_Source_File_Index>
322

> <chembl_id>
CHEMBL3421981

> <chembl_pref_name>
None

> <i_lp_mmshare_version>
53161

> <i_f3d_flags>
0

> <r_lp_tautomer_probability>
0.99976133990232

> <s_lp_Force_Field>
OPLS_2005

> <r_lp_Energy>
12.315234

> <b_lp_Chiralities_Consistent>
1

> <s_lp_Variant>
CHEMBL301_lig1288-1

> <s_i_glide_gridfile>
glide-grid_1h00

> <i_i_glide_lignum>
1704

> <i_i_glide_rotatable_bonds>
1

> <r_i_docking_score>
-7.44934960285764

> <r_i_glide_ligand_efficiency>
-0.413852755714313

> <r_i_glide_ligand_efficiency_sa>
-1.08460104696296

> <r_i_glide_ligand_efficiency_ln>
-1.91481690348433

> <r_i_glide_gscore>
-7.44934960285764

> <r_i_glide_lipo>
-2.29439168695171

> <r_i_glide_hbond>
-0.385138732550629

> <r_i_glide_metal>
0

> <r_i_glide_rewards>
-2.92048015320101

> <r_i_glide_evdw>
-30.0380172729492

> <r_i_glide_ecoul>
-4.21886014938354

> <r_i_glide_erotb>
0.312893217631924

> <r_i_glide_esite>
-0.0275023617312165

> <r_i_glide_emodel>
-49.4340211746051

> <r_i_glide_energy>
-34.2568774223328

> <r_i_glide_einternal>
2.72819042205811

> <i_i_glide_confnum>
2

> <i_i_glide_posenum>
339

> <r_i_glide_eff_state_penalty>
0

> <s_user_duplicate_titles>
CHEMBL301_lig1288

> <s_m_subgroup_title>
dock_pv

> <s_m_subgroupid>
dock_pv

> <b_m_subgroup_collapsed>
1

$$$$
CHEMBL301_lig134
                    3D
 Schrodinger Suite 2021-1.
 46 50  0  0  1  0            999 V2000
   -2.4297   31.1809   10.1761 C   0  0  0  0  0  0
   -1.7820   32.0214    9.2669 C   0  0  0  0  0  0
    0.0161   30.4107    8.9723 C   0  0  0  0  0  0
   -0.5824   31.6186    8.6859 C   0  0  0  0  0  0
    0.2157   32.2780    7.7760 N   0  0  0  0  0  0
    1.2580   31.5359    7.3760 C   0  0  0  0  0  0
    1.2382   30.3361    8.1897 C   0  0  0  0  0  0
   -1.8332   29.9500   10.5022 C   0  0  0  0  0  0
   -0.6029   29.5656    9.9021 C   0  0  0  0  0  0
   -0.1221   27.9892   10.5288 S   0  0  0  0  0  0
   -1.5699   28.0079   11.4966 C   0  0  0  0  0  0
   -2.3429   29.0469   11.3756 N   0  0  0  0  0  0
    2.0580   31.8521    6.5023 O   0  0  0  0  0  0
    2.1996   29.3932    8.1529 C   0  0  0  0  0  0
    3.3372   29.3464    7.3762 N   0  0  0  0  0  0
    4.1644   28.2392    7.1570 C   0  0  0  0  0  0
    4.3469   27.2472    8.1263 C   0  0  0  0  0  0
    5.1853   26.1700    7.8663 C   0  0  0  0  0  0
    5.8605   26.0872    6.6543 C   0  0  0  0  0  0
    5.6574   27.0512    5.6703 C   0  0  0  0  0  0
    4.8169   28.1332    5.9280 C   0  0  0  0  0  0
    7.0516   24.7821    6.4090 S   0  0  0  0  0  0
    6.7876   24.1723    4.7727 N   0  0  0  0  0  0
    5.7266   23.3354    4.4174 C   0  0  0  0  0  0
    8.3703   25.4220    6.3997 O   0  0  0  0  0  0
    6.7528   23.6997    7.3546 O   0  0  0  0  0  0
    5.7756   22.6929    3.1784 C   0  0  0  0  0  0
    4.7239   21.8521    2.8120 C   0  0  0  0  0  0
    3.6579   21.6672    3.6922 C   0  0  0  0  0  0
    3.6740   22.3442    4.9112 C   0  0  0  0  0  0
    4.6879   23.1665    5.2791 N   0  0  0  0  0  0
   -3.3564   31.4796   10.6448 H   0  0  0  0  0  0
   -2.2206   32.9777    9.0203 H   0  0  0  0  0  0
    0.0349   33.2007    7.4054 H   0  0  0  0  0  0
   -1.8043   27.1859   12.1570 H   0  0  0  0  0  0
    2.1074   28.5317    8.7951 H   0  0  0  0  0  0
    3.4767   30.0988    6.7066 H   0  0  0  0  0  0
    3.8721   27.3085    9.0946 H   0  0  0  0  0  0
    5.3428   25.4220    8.6280 H   0  0  0  0  0  0
    6.1888   26.9961    4.7304 H   0  0  0  0  0  0
    4.6909   28.8974    5.1737 H   0  0  0  0  0  0
    7.3990   24.5144    4.0478 H   0  0  0  0  0  0
    6.6010   22.8497    2.4994 H   0  0  0  0  0  0
    4.7310   21.3631    1.8492 H   0  0  0  0  0  0
    2.8253   21.0370    3.4228 H   0  0  0  0  0  0
    2.8573   22.2484    5.6124 H   0  0  0  0  0  0
  1  8  2  0  0  0
  1  2  1  0  0  0
  1 32  1  0  0  0
  2  4  2  0  0  0
  2 33  1  0  0  0
  3  7  1  0  0  0
  3  4  1  0  0  0
  3  9  2  0  0  0
  4  5  1  0  0  0
  5  6  1  0  0  0
  5 34  1  0  0  0
  6  7  1  0  0  0
  6 13  2  0  0  0
  7 14  2  0  0  0
  8  9  1  0  0  0
  8 12  1  0  0  0
  9 10  1  0  0  0
 10 11  1  0  0  0
 11 12  2  0  0  0
 11 35  1  0  0  0
 14 15  1  0  0  0
 14 36  1  0  0  0
 15 16  1  0  0  0
 15 37  1  0  0  0
 16 17  2  0  0  0
 16 21  1  0  0  0
 17 18  1  0  0  0
 17 38  1  0  0  0
 18 19  2  0  0  0
 18 39  1  0  0  0
 19 20  1  0  0  0
 19 22  1  0  0  0
 20 21  2  0  0  0
 20 40  1  0  0  0
 21 41  1  0  0  0
 22 23  1  0  0  0
 22 25  2  0  0  0
 22 26  2  0  0  0
 23 24  1  0  0  0
 23 42  1  0  0  0
 24 27  2  0  0  0
 24 31  1  0  0  0
 27 28  1  0  0  0
 27 43  1  0  0  0
 28 29  2  0  0  0
 28 44  1  0  0  0
 29 30  1  0  0  0
 29 45  1  0  0  0
 30 31  2  0  0  0
 30 46  1  0  0  0
M  END
> <s_m_entry_id>
32922

> <s_m_entry_name>
dock_pv.323

> <s_m_Source_Path>
/home/csk/Desktop/cluster/DUD-E-result/cdk2

> <s_m_Source_File>
dock_pv.maegz

> <i_m_Source_File_Index>
323

> <chembl_id>
CHEMBL1276446

> <chembl_pref_name>
None

> <i_lp_mmshare_version>
53161

> <i_f3d_flags>
0

> <r_lp_tautomer_probability>
0.499999999999422

> <s_lp_Force_Field>
OPLS_2005

> <r_lp_Energy>
38.081061

> <b_lp_Chiralities_Consistent>
1

> <s_lp_Variant>
CHEMBL301_lig134-1

> <s_i_glide_gridfile>
glide-grid_1h00

> <i_i_glide_lignum>
273

> <i_i_glide_rotatable_bonds>
5

> <r_i_docking_score>
-7.44688017526845

> <r_i_glide_ligand_efficiency>
-0.240221941137692

> <r_i_glide_ligand_efficiency_sa>
-0.754628557306054

> <r_i_glide_ligand_efficiency_ln>
-1.67949969899229

> <r_i_glide_gscore>
-7.44688017526845

> <r_i_glide_lipo>
-2.50100453727414

> <r_i_glide_hbond>
-0.625231257816306

> <r_i_glide_metal>
0

> <r_i_glide_rewards>
-1.32213428234147

> <r_i_glide_evdw>
-40.859561920166

> <r_i_glide_ecoul>
-8.64978313446045

> <r_i_glide_erotb>
0.347155109846293

> <r_i_glide_esite>
-0.00521964150546278

> <r_i_glide_emodel>
-65.5326382003233

> <r_i_glide_energy>
-49.5093450546265

> <r_i_glide_einternal>
5.81522607803345

> <i_i_glide_confnum>
25

> <i_i_glide_posenum>
186

> <r_i_glide_eff_state_penalty>
0

> <s_user_duplicate_titles>
CHEMBL301_lig134

> <s_m_subgroup_title>
dock_pv

> <s_m_subgroupid>
dock_pv

> <b_m_subgroup_collapsed>
1

$$$$
CHEMBL301_lig764
                    3D
 Schrodinger Suite 2021-1.
 37 39  0  0  1  0            999 V2000
   -3.1493   32.6516   10.7431 F   0  0  0  0  0  0
   -2.1943   31.8572   10.2208 C   0  0  0  0  0  0
   -1.8419   30.6778   10.8704 C   0  0  0  0  0  0
   -0.7820   29.9201   10.3997 C   0  0  0  0  0  0
   -0.0831   30.3316    9.2663 C   0  0  0  0  0  0
    1.0486   29.5716    8.9533 N   0  0  0  0  0  0
    2.0573   29.8521    8.1067 C   0  0  0  0  0  0
    2.0882   30.8048    7.3267 O   0  0  0  0  0  0
    3.1461   28.9096    8.1692 C   0  0  0  0  0  0
    4.2769   29.0519    7.4041 N   0  0  0  0  0  0
    5.1286   28.0319    7.4932 N   0  0  0  0  0  0
    4.5469   27.2091    8.3308 C   0  0  0  0  0  0
    3.3254   27.6889    8.8464 C   0  0  0  0  0  0
    2.4668   27.0955    9.7751 N   0  0  0  0  0  0
    2.2574   25.7677    9.9195 C   0  0  0  0  0  0
    2.9216   24.8851    9.3758 O   0  0  0  0  0  0
    1.1137   25.3867   10.8298 C   0  0  0  0  0  0
    1.2679   24.3620   11.7779 C   0  0  0  0  0  0
    2.4545   23.7363   11.9514 F   0  0  0  0  0  0
    0.1939   23.9649   12.5757 C   0  0  0  0  0  0
   -1.0474   24.5802   12.4434 C   0  0  0  0  0  0
   -1.2177   25.5911   11.5035 C   0  0  0  0  0  0
   -0.1518   25.9894   10.6982 C   0  0  0  0  0  0
   -0.3807   26.9503    9.7762 F   0  0  0  0  0  0
   -0.4825   31.4885    8.5763 C   0  0  0  0  0  0
   -1.5350   32.2536    9.0649 C   0  0  0  0  0  0
   -2.3419   30.3782   11.7758 H   0  0  0  0  0  0
   -0.4822   29.0487   10.9618 H   0  0  0  0  0  0
    1.1453   28.7187    9.4764 H   0  0  0  0  0  0
    4.4577   29.8612    6.8139 H   0  0  0  0  0  0
    5.0125   26.2678    8.5833 H   0  0  0  0  0  0
    2.0157   27.6967   10.4452 H   0  0  0  0  0  0
    0.3283   23.1757   13.3005 H   0  0  0  0  0  0
   -1.8784   24.2706   13.0604 H   0  0  0  0  0  0
   -2.1843   26.0602   11.3880 H   0  0  0  0  0  0
    0.0261   31.8436    7.6958 H   0  0  0  0  0  0
   -1.8157   33.1723    8.5754 H   0  0  0  0  0  0
  1  2  1  0  0  0
  2  3  1  0  0  0
  2 26  2  0  0  0
  3  4  2  0  0  0
  3 27  1  0  0  0
  4  5  1  0  0  0
  4 28  1  0  0  0
  5  6  1  0  0  0
  5 25  2  0  0  0
  6  7  1  0  0  0
  6 29  1  0  0  0
  7  8  2  0  0  0
  7  9  1  0  0  0
  9 10  1  0  0  0
  9 13  2  0  0  0
 10 11  1  0  0  0
 10 30  1  0  0  0
 11 12  2  0  0  0
 12 31  1  0  0  0
 12 13  1  0  0  0
 13 14  1  0  0  0
 14 15  1  0  0  0
 14 32  1  0  0  0
 15 16  2  0  0  0
 15 17  1  0  0  0
 17 18  1  0  0  0
 17 23  2  0  0  0
 18 19  1  0  0  0
 18 20  2  0  0  0
 20 21  1  0  0  0
 20 33  1  0  0  0
 21 22  2  0  0  0
 21 34  1  0  0  0
 22 23  1  0  0  0
 22 35  1  0  0  0
 23 24  1  0  0  0
 25 26  1  0  0  0
 25 36  1  0  0  0
 26 37  1  0  0  0
M  END
> <s_m_entry_id>
32923

> <s_m_entry_name>
dock_pv.324

> <s_m_Source_Path>
/home/csk/Desktop/cluster/DUD-E-result/cdk2

> <s_m_Source_File>
dock_pv.maegz

> <i_m_Source_File_Index>
324

> <chembl_id>
CHEMBL518383

> <chembl_pref_name>
None

> <i_lp_mmshare_version>
53161

> <i_f3d_flags>
0

> <r_lp_tautomer_probability>
0.5

> <s_lp_Force_Field>
OPLS_2005

> <r_lp_Energy>
34.267066

> <b_lp_Chiralities_Consistent>
1

> <s_lp_Variant>
CHEMBL301_lig764-2

> <s_i_glide_gridfile>
glide-grid_1h00

> <i_i_glide_lignum>
1091

> <i_i_glide_rotatable_bonds>
6

> <r_i_docking_score>
-7.44675413154882

> <r_i_glide_ligand_efficiency>
-0.286413620444186

> <r_i_glide_ligand_efficiency_sa>
-0.848499223582723

> <r_i_glide_ligand_efficiency_ln>
-1.74884577300094

> <r_i_glide_gscore>
-7.44675413154882

> <r_i_glide_lipo>
-2.3890336963713

> <r_i_glide_hbond>
-0.32

> <r_i_glide_metal>
0

> <r_i_glide_rewards>
-2.96537893925438

> <r_i_glide_evdw>
-39.6716499328613

> <r_i_glide_ecoul>
-4.1838436126709

> <r_i_glide_erotb>
0.886407621254424

> <r_i_glide_esite>
-0.0475900786338666

> <r_i_glide_emodel>
-60.9151637792192

> <r_i_glide_energy>
-43.8554935455322

> <r_i_glide_einternal>
5.6879768371582

> <i_i_glide_confnum>
16

> <i_i_glide_posenum>
92

> <r_i_glide_eff_state_penalty>
0

> <s_user_duplicate_titles>
CHEMBL301_lig764,512308

> <s_m_subgroup_title>
dock_pv

> <s_m_subgroupid>
dock_pv

> <b_m_subgroup_collapsed>
1

$$$$
CHEMBL301_lig1380
                    3D
 Schrodinger Suite 2021-1.
 43 44  0  0  1  0            999 V2000
   -1.6209   26.9796   12.6031 C   0  0  0  0  0  0
   -1.2246   26.6774   11.1469 C   0  0  2  0  0  0
   -0.5557   25.4317   11.1150 O   0  0  0  0  0  0
   -0.3651   27.7761   10.4610 C   0  0  2  0  0  0
    0.9753   28.0195   11.1800 C   0  0  0  0  0  0
   -1.2759   29.3352   10.1933 S   0  0  0  0  0  0
   -0.3676   30.4020    9.0980 C   0  0  0  0  0  0
    0.6876   29.8784    8.4120 N   0  0  0  0  0  0
    1.3640   30.7126    7.5738 C   0  0  0  0  0  0
    2.4557   30.2422    6.8340 N   0  0  0  0  0  0
    3.3022   29.1402    6.9999 C   0  0  0  0  0  0
    3.9023   28.5939    5.8650 C   0  0  0  0  0  0
    4.8495   27.5818    5.9852 C   0  0  0  0  0  0
    5.2243   27.1393    7.2528 C   0  0  0  0  0  0
    4.6405   27.7044    8.3886 C   0  0  0  0  0  0
    3.6704   28.6904    8.2636 C   0  0  0  0  0  0
    6.4437   25.8424    7.4502 S   0  0  2  0  0  0
    5.5814   24.5848    7.3749 N   0  0  0  0  0  0
    7.3188   26.1794    8.5760 O   0  0  0  0  0  0
    7.4508   25.7089    5.8672 C   0  0  0  0  0  0
    1.0750   32.0235    7.3777 N   0  0  0  0  0  0
    0.0571   32.5342    8.1234 C   0  0  0  0  0  0
   -0.7280   31.7539    8.9764 C   0  0  0  0  0  0
   -2.1684   32.5540    9.9401 Br  0  0  0  0  0  0
   -2.1892   27.9079   12.6707 H   0  0  0  0  0  0
   -0.7516   27.0794   13.2531 H   0  0  0  0  0  0
   -2.2515   26.1888   13.0121 H   0  0  0  0  0  0
   -2.1402   26.5381   10.5758 H   0  0  0  0  0  0
    0.2738   25.5262   11.5885 H   0  0  0  0  0  0
   -0.1319   27.4171    9.4574 H   0  0  0  0  0  0
    1.5269   27.0973   11.3622 H   0  0  0  0  0  0
    1.6147   28.6519   10.5750 H   0  0  0  0  0  0
    0.8378   28.5219   12.1382 H   0  0  0  0  0  0
    2.9119   30.9596    6.2827 H   0  0  0  0  0  0
    3.6581   28.9699    4.8867 H   0  0  0  0  0  0
    5.2990   27.1711    5.0946 H   0  0  0  0  0  0
    4.9433   27.4024    9.3759 H   0  0  0  0  0  0
    3.2486   29.1378    9.1479 H   0  0  0  0  0  0
    6.1326   23.7518    7.2411 H   0  0  0  0  0  0
    6.7944   25.4743    5.0307 H   0  0  0  0  0  0
    7.9658   26.6506    5.6951 H   0  0  0  0  0  0
    8.1863   24.9161    5.9906 H   0  0  0  0  0  0
   -0.1559   33.5846    7.9907 H   0  0  0  0  0  0
  1  2  1  0  0  0
  1 25  1  0  0  0
  1 26  1  0  0  0
  1 27  1  0  0  0
  2  3  1  0  0  0
  2  4  1  0  0  0
  2 28  1  0  0  0
  3 29  1  0  0  0
  4  5  1  0  0  0
  4  6  1  0  0  0
  4 30  1  0  0  0
  5 31  1  0  0  0
  5 32  1  0  0  0
  5 33  1  0  0  0
  6  7  1  0  0  0
  7  8  2  0  0  0
  7 23  1  0  0  0
  8  9  1  0  0  0
  9 10  1  0  0  0
  9 21  2  0  0  0
 10 11  1  0  0  0
 10 34  1  0  0  0
 11 12  2  0  0  0
 11 16  1  0  0  0
 12 13  1  0  0  0
 12 35  1  0  0  0
 13 14  2  0  0  0
 13 36  1  0  0  0
 14 15  1  0  0  0
 14 17  1  0  0  0
 15 16  2  0  0  0
 15 37  1  0  0  0
 16 38  1  0  0  0
 17 18  2  0  0  0
 17 19  2  0  0  0
 17 20  1  0  0  0
 18 39  1  0  0  0
 20 40  1  0  0  0
 20 41  1  0  0  0
 20 42  1  0  0  0
 21 22  1  0  0  0
 22 23  2  0  0  0
 22 43  1  0  0  0
 23 24  1  0  0  0
M  END
> <s_m_entry_id>
32924

> <s_m_entry_name>
dock_pv.325

> <s_m_Source_Path>
/home/csk/Desktop/cluster/DUD-E-result/cdk2

> <s_m_Source_File>
dock_pv.maegz

> <i_m_Source_File_Index>
325

> <chembl_id>
CHEMBL3648102

> <chembl_pref_name>
None

> <i_lp_mmshare_version>
53161

> <i_f3d_flags>
0

> <r_lp_tautomer_probability>
0.999999987636

> <s_lp_Force_Field>
OPLS_2005

> <r_lp_Energy>
3.938033

> <b_lp_Chiralities_Consistent>
1

> <s_lp_Variant>
CHEMBL301_lig1380-1

> <s_i_glide_gridfile>
glide-grid_1h00

> <i_i_glide_lignum>
1852

> <i_i_glide_rotatable_bonds>
7

> <r_i_docking_score>
-7.44330323603578

> <r_i_glide_ligand_efficiency>
-0.310137634834824

> <r_i_glide_ligand_efficiency_sa>
-0.894591740205676

> <r_i_glide_ligand_efficiency_ln>
-1.78152401531311

> <r_i_glide_gscore>
-7.44330323603578

> <r_i_glide_lipo>
-2.70911061210373

> <r_i_glide_hbond>
-0.359228697442597

> <r_i_glide_metal>
0

> <r_i_glide_rewards>
-1.77315740314014

> <r_i_glide_evdw>
-40.2873306274414

> <r_i_glide_ecoul>
-7.47907495498657

> <r_i_glide_erotb>
0.534421251270742

> <r_i_glide_esite>
0

> <r_i_glide_emodel>
-66.81939428463

> <r_i_glide_energy>
-47.766405582428

> <r_i_glide_einternal>
4.28357887268066

> <i_i_glide_confnum>
100

> <i_i_glide_posenum>
149

> <r_i_glide_eff_state_penalty>
0

> <s_user_duplicate_titles>
CHEMBL301_lig1380

> <s_m_subgroup_title>
dock_pv

> <s_m_subgroupid>
dock_pv

> <b_m_subgroup_collapsed>
1

$$$$
CHEMBL301_lig533
                    3D
 Schrodinger Suite 2021-1.
 52 54  0  0  1  0            999 V2000
    4.6070   24.9535    6.9296 C   0  0  0  0  0  0
    4.4591   24.8294    5.5495 C   0  0  0  0  0  0
    4.3885   25.9587    4.7363 C   0  0  0  0  0  0
    4.4582   27.2249    5.3110 C   0  0  0  0  0  0
    4.6126   27.3577    6.6953 C   0  0  0  0  0  0
    4.6877   26.2191    7.5041 C   0  0  0  0  0  0
    4.6705   28.7453    7.3204 C   0  0  0  0  0  0
    3.3281   29.1758    7.9353 C   0  0  0  0  0  0
    2.9683   28.6345    8.9761 O   0  0  0  0  0  0
    2.6676   30.1767    7.3118 N   0  0  0  0  0  0
    1.4731   30.7849    7.6829 C   0  0  0  0  0  0
    0.0970   32.4139    7.9312 N   0  0  0  0  0  0
    1.2578   32.0384    7.3675 N   0  0  0  0  0  0
   -0.5212   31.3626    8.5760 C   0  0  0  0  0  0
    0.3676   30.2657    8.4398 C   0  0  0  0  0  0
    0.0198   29.0503    9.0283 C   0  0  0  0  0  0
   -1.1428   28.9388    9.7844 C   0  0  0  0  0  0
   -2.0201   30.0314    9.8554 C   0  0  0  0  0  0
   -1.7385   31.2617    9.2559 C   0  0  0  0  0  0
   -1.3222   27.7661   10.5620 N   0  0  0  0  0  0
   -1.2807   26.4784    9.8444 C   0  0  0  0  0  0
   -1.3709   25.1912   10.6923 C   0  0  0  0  0  0
   -1.8994   27.8895   11.9130 C   0  0  0  0  0  0
   -1.3538   29.0772   12.7381 C   0  0  0  0  0  0
   -0.1367   24.9186   11.5729 C   0  0  0  0  0  0
    0.1598   29.3246   12.5758 C   0  0  0  0  0  0
    4.6521   24.0722    7.5516 H   0  0  0  0  0  0
    4.3956   23.8471    5.1042 H   0  0  0  0  0  0
    4.2751   25.8504    3.6665 H   0  0  0  0  0  0
    4.3966   28.1003    4.6802 H   0  0  0  0  0  0
    4.7966   26.3169    8.5756 H   0  0  0  0  0  0
    5.4288   28.7641    8.1039 H   0  0  0  0  0  0
    5.0027   29.4520    6.5641 H   0  0  0  0  0  0
    3.1841   30.6498    6.5791 H   0  0  0  0  0  0
   -0.2363   33.3621    7.8178 H   0  0  0  0  0  0
    0.6908   28.2139    8.9761 H   0  0  0  0  0  0
   -2.9315   29.9423   10.4283 H   0  0  0  0  0  0
   -2.4164   32.0979    9.3508 H   0  0  0  0  0  0
   -1.9420   26.4501    8.9824 H   0  0  0  0  0  0
   -0.2985   26.4317    9.3811 H   0  0  0  0  0  0
   -2.2800   25.2115   11.2940 H   0  0  0  0  0  0
   -1.5256   24.3468   10.0259 H   0  0  0  0  0  0
   -2.9823   27.9740   11.8101 H   0  0  0  0  0  0
   -1.6843   26.9903   12.4842 H   0  0  0  0  0  0
   -1.9399   29.9691   12.5022 H   0  0  0  0  0  0
   -1.5420   28.8926   13.7940 H   0  0  0  0  0  0
   -0.2813   24.0252   12.1798 H   0  0  0  0  0  0
    0.7498   24.7584   10.9582 H   0  0  0  0  0  0
    0.0868   25.7447   12.2477 H   0  0  0  0  0  0
    0.4579   30.2520   13.0305 H   0  0  0  0  0  0
    0.7384   28.4971   12.9760 H   0  0  0  0  0  0
    0.4998   29.4488   11.5567 H   0  0  0  0  0  0
  1  2  2  0  0  0
  1  6  1  0  0  0
  1 27  1  0  0  0
  2  3  1  0  0  0
  2 28  1  0  0  0
  3  4  2  0  0  0
  3 29  1  0  0  0
  4  5  1  0  0  0
  4 30  1  0  0  0
  5  7  1  0  0  0
  5  6  2  0  0  0
  6 31  1  0  0  0
  7  8  1  0  0  0
  7 32  1  0  0  0
  7 33  1  0  0  0
  8  9  2  0  0  0
  8 10  1  0  0  0
 10 11  1  0  0  0
 10 34  1  0  0  0
 11 13  2  0  0  0
 11 15  1  0  0  0
 12 14  1  0  0  0
 12 13  1  0  0  0
 12 35  1  0  0  0
 14 15  2  0  0  0
 14 19  1  0  0  0
 15 16  1  0  0  0
 16 17  2  0  0  0
 16 36  1  0  0  0
 17 18  1  0  0  0
 17 20  1  0  0  0
 18 19  2  0  0  0
 18 37  1  0  0  0
 19 38  1  0  0  0
 20 21  1  0  0  0
 20 23  1  0  0  0
 21 22  1  0  0  0
 21 39  1  0  0  0
 21 40  1  0  0  0
 22 25  1  0  0  0
 22 41  1  0  0  0
 22 42  1  0  0  0
 23 24  1  0  0  0
 23 43  1  0  0  0
 23 44  1  0  0  0
 24 26  1  0  0  0
 24 45  1  0  0  0
 24 46  1  0  0  0
 25 47  1  0  0  0
 25 48  1  0  0  0
 25 49  1  0  0  0
 26 50  1  0  0  0
 26 51  1  0  0  0
 26 52  1  0  0  0
M  END
> <s_m_entry_id>
32925

> <s_m_entry_name>
dock_pv.326

> <s_m_Source_Path>
/home/csk/Desktop/cluster/DUD-E-result/cdk2

> <s_m_Source_File>
dock_pv.maegz

> <i_m_Source_File_Index>
326

> <chembl_id>
CHEMBL401603

> <chembl_pref_name>
None

> <i_lp_mmshare_version>
53161

> <i_f3d_flags>
0

> <r_lp_tautomer_probability>
0.983170504884756

> <s_lp_Force_Field>
OPLS_2005

> <r_lp_Energy>
18.346813

> <b_lp_Chiralities_Consistent>
1

> <s_lp_Variant>
CHEMBL301_lig533-1

> <s_i_glide_gridfile>
glide-grid_1h00

> <i_i_glide_lignum>
750

> <i_i_glide_rotatable_bonds>
9

> <r_i_docking_score>
-7.44261822219055

> <r_i_glide_ligand_efficiency>
-0.286254547007329

> <r_i_glide_ligand_efficiency_sa>
-0.848027969151959

> <r_i_glide_ligand_efficiency_ln>
-1.74787446825918

> <r_i_glide_gscore>
-7.44261822219055

> <r_i_glide_lipo>
-3.19443786261912

> <r_i_glide_hbond>
-0.318422080213965

> <r_i_glide_metal>
0

> <r_i_glide_rewards>
-2.33130161926127

> <r_i_glide_evdw>
-34.6672668457031

> <r_i_glide_ecoul>
-5.30841541290283

> <r_i_glide_erotb>
0.931168994124385

> <r_i_glide_esite>
0

> <r_i_glide_emodel>
-51.3384664741631

> <r_i_glide_energy>
-39.975682258606

> <r_i_glide_einternal>
11.6261138916016

> <i_i_glide_confnum>
39

> <i_i_glide_posenum>
17

> <r_i_glide_eff_state_penalty>
0

> <s_user_duplicate_titles>
CHEMBL301_lig533

> <s_m_subgroup_title>
dock_pv

> <s_m_subgroupid>
dock_pv

> <b_m_subgroup_collapsed>
1

$$$$
CHEMBL301_lig565
                    3D
 Schrodinger Suite 2021-1.
 40 44  0  0  1  0            999 V2000
    3.6576   24.6260    8.7195 N   0  0  0  0  0  0
    2.6900   24.4580    9.5950 C   0  0  0  0  0  0
    2.0869   25.6372   10.0364 C   0  0  0  0  0  0
    3.7763   25.9621    8.5760 N   0  0  0  0  0  0
    2.8579   26.6488    9.3929 C   0  0  0  0  0  0
    2.9411   28.0512    9.3633 C   0  0  0  0  0  0
    3.9029   28.6496    8.5446 C   0  0  0  0  0  0
    4.7465   27.8504    7.7740 C   0  0  0  0  0  0
    4.7117   26.4935    7.7674 N   0  0  0  0  0  0
    0.9377   25.7771   10.9776 C   0  0  0  0  0  0
    0.6547   24.7992   11.9363 C   0  0  0  0  0  0
   -0.4236   25.0395   12.7875 C   0  0  0  0  0  0
   -1.1878   26.1569   12.6961 N   0  0  0  0  0  0
   -0.8593   27.0477   11.7258 C   0  0  0  0  0  0
    0.1877   26.9075   10.8658 N   0  0  0  0  0  0
   -1.7372   28.1353   11.6135 N   0  0  0  0  0  0
   -1.8455   29.2006   10.7033 C   0  0  0  0  0  0
   -0.7826   29.6702    9.9299 C   0  0  0  0  0  0
   -0.9543   30.7440    9.0493 C   0  0  0  0  0  0
   -2.1946   31.3830    8.9751 C   0  0  0  0  0  0
   -3.2641   30.9171    9.7333 C   0  0  0  0  0  0
   -3.0874   29.8219   10.5758 C   0  0  0  0  0  0
    0.1672   31.1844    8.1853 C   0  0  0  0  0  0
    1.0464   30.3231    7.7030 N   0  0  0  0  0  0
    1.8579   31.0453    6.9759 C   0  0  0  0  0  0
    1.5828   32.3712    6.9764 O   0  0  0  0  0  0
    0.4937   32.4681    7.7759 C   0  0  0  0  0  0
    2.3715   23.4626    9.8631 H   0  0  0  0  0  0
    2.2864   28.6512    9.9726 H   0  0  0  0  0  0
    3.9940   29.7255    8.5072 H   0  0  0  0  0  0
    5.4902   28.3064    7.1347 H   0  0  0  0  0  0
    1.2533   23.9068   12.0304 H   0  0  0  0  0  0
   -0.6921   24.3318   13.5575 H   0  0  0  0  0  0
   -2.4550   28.1353   12.3257 H   0  0  0  0  0  0
    0.1876   29.2143   10.0051 H   0  0  0  0  0  0
   -2.3407   32.2222    8.3102 H   0  0  0  0  0  0
   -4.2276   31.4000    9.6672 H   0  0  0  0  0  0
   -3.9235   29.4542   11.1538 H   0  0  0  0  0  0
    2.7056   30.7169    6.3921 H   0  0  0  0  0  0
    0.0746   33.4521    7.9309 H   0  0  0  0  0  0
  1  4  1  0  0  0
  1  2  2  0  0  0
  2  3  1  0  0  0
  2 28  1  0  0  0
  3 10  1  0  0  0
  3  5  2  0  0  0
  4  9  1  0  0  0
  4  5  1  0  0  0
  5  6  1  0  0  0
  6  7  2  0  0  0
  6 29  1  0  0  0
  7  8  1  0  0  0
  7 30  1  0  0  0
  8  9  2  0  0  0
  8 31  1  0  0  0
 10 15  1  0  0  0
 10 11  2  0  0  0
 11 12  1  0  0  0
 11 32  1  0  0  0
 12 13  2  0  0  0
 12 33  1  0  0  0
 13 14  1  0  0  0
 14 15  2  0  0  0
 14 16  1  0  0  0
 16 17  1  0  0  0
 16 34  1  0  0  0
 17 18  2  0  0  0
 17 22  1  0  0  0
 18 19  1  0  0  0
 18 35  1  0  0  0
 19 20  2  0  0  0
 19 23  1  0  0  0
 20 21  1  0  0  0
 20 36  1  0  0  0
 21 22  2  0  0  0
 21 37  1  0  0  0
 22 38  1  0  0  0
 23 24  1  0  0  0
 23 27  2  0  0  0
 24 25  2  0  0  0
 25 26  1  0  0  0
 25 39  1  0  0  0
 26 27  1  0  0  0
 27 40  1  0  0  0
M  END
> <s_m_entry_id>
32926

> <s_m_entry_name>
dock_pv.327

> <s_m_Source_Path>
/home/csk/Desktop/cluster/DUD-E-result/cdk2

> <s_m_Source_File>
dock_pv.maegz

> <i_m_Source_File_Index>
327

> <chembl_id>
CHEMBL497564

> <chembl_pref_name>
None

> <i_lp_mmshare_version>
53161

> <i_f3d_flags>
0

> <r_lp_tautomer_probability>
0.999999987636

> <s_lp_Force_Field>
OPLS_2005

> <r_lp_Energy>
17.351374

> <b_lp_Chiralities_Consistent>
1

> <s_lp_Variant>
CHEMBL301_lig565-1

> <s_i_glide_gridfile>
glide-grid_1h00

> <i_i_glide_lignum>
795

> <i_i_glide_rotatable_bonds>
4

> <r_i_docking_score>
-7.44187972523797

> <r_i_glide_ligand_efficiency>
-0.275625175008814

> <r_i_glide_ligand_efficiency_sa>
-0.826875524118026

> <r_i_glide_ligand_efficiency_ln>
-1.73234691105946

> <r_i_glide_gscore>
-7.44187972523797

> <r_i_glide_lipo>
-2.88569419003697

> <r_i_glide_hbond>
-0.32

> <r_i_glide_metal>
0

> <r_i_glide_rewards>
-2.31823355724352

> <r_i_glide_evdw>
-41.2548942565918

> <r_i_glide_ecoul>
-2.85838103294373

> <r_i_glide_erotb>
0.60564519906766

> <r_i_glide_esite>
-0.0320953092540012

> <r_i_glide_emodel>
-62.4699699256611

> <r_i_glide_energy>
-44.1132752895355

> <r_i_glide_einternal>
2.10248494148254

> <i_i_glide_confnum>
1

> <i_i_glide_posenum>
207

> <r_i_glide_eff_state_penalty>
0

> <s_user_duplicate_titles>
CHEMBL301_lig565,494080

> <s_m_subgroup_title>
dock_pv

> <s_m_subgroupid>
dock_pv

> <b_m_subgroup_collapsed>
1

$$$$
CHEMBL301_lig361
                    3D
 Schrodinger Suite 2021-1.
 59 63  0  0  1  0            999 V2000
    0.5393   30.3263    8.7592 C   0  0  0  0  0  0
    1.7194   30.2195    8.0142 N   0  0  0  0  0  0
    2.5876   29.1750    8.2062 C   0  0  0  0  0  0
    0.2159   29.4360    9.7025 N   0  0  0  0  0  0
    1.8545   31.2374    7.1135 N   0  0  0  0  0  0
    6.8764   24.2680    5.8035 S   0  0  0  0  0  0
    2.2684   28.2526    9.2102 C   0  0  0  0  0  0
   -0.0444   31.5311    8.3059 C   0  0  0  0  0  0
    1.0893   28.4224    9.9403 C   0  0  0  0  0  0
    0.8575   32.0482    7.3765 C   0  0  0  0  0  0
    3.6678   29.0517    7.3218 N   0  0  0  0  0  0
    5.9692   25.7298    6.2892 C   0  0  0  0  0  0
    0.8181   27.5102   10.9762 N   0  0  0  0  0  0
    6.9608   23.3888    6.9759 O   0  0  0  0  0  0
    6.2882   23.7846    4.5501 O   0  0  0  0  0  0
    8.5230   24.8556    5.4290 C   0  0  0  0  0  0
   -1.6707   32.2539    8.9784 Br  0  0  0  0  0  0
    5.8431   26.0669    7.6391 C   0  0  0  0  0  0
    5.3924   26.5296    5.3025 C   0  0  0  0  0  0
    4.4868   27.9631    7.0175 C   0  0  0  0  0  0
   -0.4348   27.5359   11.7447 C   0  0  2  0  0  0
    4.6623   27.6541    5.6690 C   0  0  0  0  0  0
    5.1046   27.1905    8.0003 C   0  0  0  0  0  0
   -3.9503   26.2518   13.9326 N   0  0  0  0  0  0
   -2.7055   26.1945   13.1926 C   0  0  1  0  0  0
   -0.2354   26.9131   13.1405 C   0  0  0  0  0  0
   -1.5073   26.7426   10.9886 C   0  0  0  0  0  0
   -2.8341   26.7891   11.7763 C   0  0  0  0  0  0
   -1.5413   26.8471   13.9572 C   0  0  0  0  0  0
    9.5544   24.6990    6.3587 C   0  0  0  0  0  0
    8.7655   25.4742    4.1995 C   0  0  0  0  0  0
   10.8316   25.1574    6.0534 C   0  0  0  0  0  0
   10.0420   25.9422    3.9001 C   0  0  0  0  0  0
   11.0668   25.7833    4.8308 C   0  0  0  0  0  0
    2.8988   27.4052    9.4148 H   0  0  0  0  0  0
    0.7421   32.9981    6.8729 H   0  0  0  0  0  0
    3.6921   29.8049    6.6432 H   0  0  0  0  0  0
    1.4015   26.6926   11.0452 H   0  0  0  0  0  0
    6.2971   25.4588    8.4086 H   0  0  0  0  0  0
    5.4996   26.2766    4.2579 H   0  0  0  0  0  0
   -0.7721   28.5709   11.8430 H   0  0  0  0  0  0
    4.2016   28.2604    4.9024 H   0  0  0  0  0  0
    5.0183   27.4508    9.0441 H   0  0  0  0  0  0
   -4.0857   27.2383   14.1758 H   0  0  0  0  0  0
   -4.6902   26.0016   13.2958 H   0  0  0  0  0  0
   -2.4362   25.1449   13.0518 H   0  0  0  0  0  0
    0.4579   27.5266   13.7083 H   0  0  0  0  0  0
    0.2083   25.9192   13.0600 H   0  0  0  0  0  0
   -1.1962   25.7053   10.8468 H   0  0  0  0  0  0
   -1.6258   27.1593    9.9897 H   0  0  0  0  0  0
   -3.5958   26.2520   11.2177 H   0  0  0  0  0  0
   -3.1576   27.8304   11.8412 H   0  0  0  0  0  0
   -1.3660   26.3327   14.9027 H   0  0  0  0  0  0
   -1.8185   27.8743   14.1987 H   0  0  0  0  0  0
    9.3730   24.2227    7.3119 H   0  0  0  0  0  0
    7.9691   25.5929    3.4778 H   0  0  0  0  0  0
   11.6370   25.0493    6.7655 H   0  0  0  0  0  0
   10.2412   26.4213    2.9526 H   0  0  0  0  0  0
   12.0564   26.1521    4.6020 H   0  0  0  0  0  0
  1  2  1  0  0  0
  1  4  1  0  0  0
  1  8  2  0  0  0
  2  3  1  0  0  0
  2  5  1  0  0  0
  3 11  1  0  0  0
  3  7  2  0  0  0
  4  9  2  0  0  0
  5 10  2  0  0  0
  6 12  1  0  0  0
  6 14  2  0  0  0
  6 15  2  0  0  0
  6 16  1  0  0  0
  7  9  1  0  0  0
  7 35  1  0  0  0
  8 10  1  0  0  0
  8 17  1  0  0  0
  9 13  1  0  0  0
 10 36  1  0  0  0
 11 20  1  0  0  0
 11 37  1  0  0  0
 12 18  1  0  0  0
 12 19  2  0  0  0
 13 21  1  0  0  0
 13 38  1  0  0  0
 16 30  2  0  0  0
 16 31  1  0  0  0
 18 23  2  0  0  0
 18 39  1  0  0  0
 19 22  1  0  0  0
 19 40  1  0  0  0
 20 22  2  0  0  0
 20 23  1  0  0  0
 21 26  1  0  0  0
 21 27  1  0  0  0
 21 41  1  0  0  0
 22 42  1  0  0  0
 23 43  1  0  0  0
 24 25  1  0  0  0
 24 44  1  0  0  0
 24 45  1  0  0  0
 25 28  1  0  0  0
 25 29  1  0  0  0
 25 46  1  0  0  0
 26 29  1  0  0  0
 26 47  1  0  0  0
 26 48  1  0  0  0
 27 28  1  0  0  0
 27 49  1  0  0  0
 27 50  1  0  0  0
 28 51  1  0  0  0
 28 52  1  0  0  0
 29 53  1  0  0  0
 29 54  1  0  0  0
 30 32  1  0  0  0
 30 55  1  0  0  0
 31 33  2  0  0  0
 31 56  1  0  0  0
 32 34  2  0  0  0
 32 57  1  0  0  0
 33 34  1  0  0  0
 33 58  1  0  0  0
 34 59  1  0  0  0
M  END
> <s_m_entry_id>
32927

> <s_m_entry_name>
dock_pv.328

> <s_m_Source_Path>
/home/csk/Desktop/cluster/DUD-E-result/cdk2

> <s_m_Source_File>
dock_pv.maegz

> <i_m_Source_File_Index>
328

> <chembl_id>
CHEMBL361833

> <chembl_pref_name>
None

> <i_lp_mmshare_version>
53161

> <i_f3d_flags>
0

> <r_lp_tautomer_probability>
1

> <s_lp_Force_Field>
OPLS_2005

> <r_lp_Energy>
32.573691

> <b_lp_Chiralities_Consistent>
1

> <s_lp_Variant>
CHEMBL301_lig361-1

> <s_i_glide_gridfile>
glide-grid_1h00

> <i_i_glide_lignum>
544

> <i_i_glide_rotatable_bonds>
6

> <r_i_docking_score>
-7.44159267988786

> <r_i_glide_ligand_efficiency>
-0.218870372937878

> <r_i_glide_ligand_efficiency_sa>
-0.709055042286093

> <r_i_glide_ligand_efficiency_ln>
-1.64405655259176

> <r_i_glide_gscore>
-7.44159267988786

> <r_i_glide_lipo>
-2.68952847726347

> <r_i_glide_hbond>
-0.395528255970207

> <r_i_glide_metal>
0

> <r_i_glide_rewards>
-1.23791813375683

> <r_i_glide_evdw>
-45.2084732055664

> <r_i_glide_ecoul>
-8.44671058654785

> <r_i_glide_erotb>
0.423228607687317

> <r_i_glide_esite>
-0.0144161723241738

> <r_i_glide_emodel>
-75.9006473050286

> <r_i_glide_energy>
-53.6551837921143

> <r_i_glide_einternal>
6.25320339202881

> <i_i_glide_confnum>
15

> <i_i_glide_posenum>
381

> <r_i_glide_eff_state_penalty>
0

> <s_user_duplicate_titles>
CHEMBL301_lig361

> <s_m_subgroup_title>
dock_pv

> <s_m_subgroupid>
dock_pv

> <b_m_subgroup_collapsed>
1

$$$$
CHEMBL301_lig1504
                    3D
 Schrodinger Suite 2021-1.
 56 59  0  0  1  0            999 V2000
   -2.0661   19.8022   15.9422 C   0  0  0  0  0  0
   -1.6810   21.3561   14.9624 S   0  0  1  0  0  0
   -2.3342   21.0521   13.6188 N   0  0  0  0  0  0
   -1.9947   22.5341   15.7759 O   0  0  0  0  0  0
    0.1807   21.2859   14.6227 C   0  0  0  0  0  0
    0.5845   21.5658   13.1817 C   0  0  0  0  0  0
    0.8518   20.4992   12.3211 C   0  0  0  0  0  0
    1.2499   20.7397   11.0091 C   0  0  0  0  0  0
    1.3700   22.0494   10.5500 C   0  0  0  0  0  0
    1.0755   23.1302   11.3834 C   0  0  0  0  0  0
    1.1968   24.4136   10.8242 N   0  0  0  0  0  0
    0.7632   25.6933   11.1957 C   0  0  0  0  0  0
    0.0556   25.8869   12.3412 N   0  0  0  0  0  0
   -0.3418   27.1586   12.6042 C   0  0  0  0  0  0
   -0.0519   28.2259   11.7524 C   0  0  0  0  0  0
   -0.4541   29.4796   12.0691 F   0  0  0  0  0  0
    0.6551   27.9379   10.5706 C   0  0  0  0  0  0
    1.0711   26.6682   10.3025 N   0  0  0  0  0  0
    0.9305   28.9618    9.5122 C   0  0  0  0  0  0
   -0.0947   29.8521    9.1590 C   0  0  0  0  0  0
    0.0927   30.8194    8.1763 C   0  0  0  0  0  0
    1.3069   30.8943    7.5038 C   0  0  0  0  0  0
    1.5257   31.8527    6.5765 F   0  0  0  0  0  0
    2.3284   30.0121    7.8204 C   0  0  0  0  0  0
    2.1720   29.0547    8.8383 C   0  0  0  0  0  0
    3.2020   28.2167    9.2311 O   0  0  0  0  0  0
    4.4748   28.2460    8.5762 C   0  0  0  0  0  0
    4.4817   27.3178    7.3743 C   0  0  0  0  0  0
    4.4583   25.9366    7.5895 C   0  0  0  0  0  0
    4.4539   25.0658    6.5042 C   0  0  0  0  0  0
    4.4606   25.5806    5.2106 C   0  0  0  0  0  0
    4.4337   24.7318    4.1614 F   0  0  0  0  0  0
    4.4926   26.9559    4.9884 C   0  0  0  0  0  0
    4.5064   27.8292    6.0729 C   0  0  0  0  0  0
    0.6897   22.8792   12.7093 C   0  0  0  0  0  0
   -1.6973   18.9361   15.3922 H   0  0  0  0  0  0
   -1.5788   19.8643   16.9129 H   0  0  0  0  0  0
   -3.1453   19.7287   16.0667 H   0  0  0  0  0  0
   -2.3117   20.0581   13.3765 H   0  0  0  0  0  0
    0.5108   20.2884   14.9109 H   0  0  0  0  0  0
    0.6503   21.9956   15.3007 H   0  0  0  0  0  0
    0.7482   19.4771   12.6623 H   0  0  0  0  0  0
    1.4537   19.9116   10.3454 H   0  0  0  0  0  0
    1.6602   22.2192    9.5209 H   0  0  0  0  0  0
    1.6562   24.4259    9.9249 H   0  0  0  0  0  0
   -0.8938   27.3206   13.5185 H   0  0  0  0  0  0
   -1.0551   29.8039    9.6540 H   0  0  0  0  0  0
   -0.6987   31.5153    7.9396 H   0  0  0  0  0  0
    3.2526   30.1310    7.2821 H   0  0  0  0  0  0
    5.2054   27.8562    9.2870 H   0  0  0  0  0  0
    4.8412   29.2474    8.3471 H   0  0  0  0  0  0
    4.4354   25.5447    8.5970 H   0  0  0  0  0  0
    4.4205   23.9977    6.6611 H   0  0  0  0  0  0
    4.5026   27.3387    3.9783 H   0  0  0  0  0  0
    4.5379   28.8946    5.8963 H   0  0  0  0  0  0
    0.4636   23.6875   13.3826 H   0  0  0  0  0  0
  1  2  1  0  0  0
  1 36  1  0  0  0
  1 37  1  0  0  0
  1 38  1  0  0  0
  2  3  2  0  0  0
  2  4  2  0  0  0
  2  5  1  0  0  0
  3 39  1  0  0  0
  5  6  1  0  0  0
  5 40  1  0  0  0
  5 41  1  0  0  0
  6  7  2  0  0  0
  6 35  1  0  0  0
  7  8  1  0  0  0
  7 42  1  0  0  0
  8  9  2  0  0  0
  8 43  1  0  0  0
  9 10  1  0  0  0
  9 44  1  0  0  0
 10 11  1  0  0  0
 10 35  2  0  0  0
 11 12  1  0  0  0
 11 45  1  0  0  0
 12 13  2  0  0  0
 12 18  1  0  0  0
 13 14  1  0  0  0
 14 15  2  0  0  0
 14 46  1  0  0  0
 15 16  1  0  0  0
 15 17  1  0  0  0
 17 18  2  0  0  0
 17 19  1  0  0  0
 19 20  2  0  0  0
 19 25  1  0  0  0
 20 21  1  0  0  0
 20 47  1  0  0  0
 21 22  2  0  0  0
 21 48  1  0  0  0
 22 23  1  0  0  0
 22 24  1  0  0  0
 24 25  2  0  0  0
 24 49  1  0  0  0
 25 26  1  0  0  0
 26 27  1  0  0  0
 27 28  1  0  0  0
 27 50  1  0  0  0
 27 51  1  0  0  0
 28 29  2  0  0  0
 28 34  1  0  0  0
 29 30  1  0  0  0
 29 52  1  0  0  0
 30 31  2  0  0  0
 30 53  1  0  0  0
 31 32  1  0  0  0
 31 33  1  0  0  0
 33 34  2  0  0  0
 33 54  1  0  0  0
 34 55  1  0  0  0
 35 56  1  0  0  0
M  END
> <s_m_entry_id>
32928

> <s_m_entry_name>
dock_pv.329

> <s_m_Source_Path>
/home/csk/Desktop/cluster/DUD-E-result/cdk2

> <s_m_Source_File>
dock_pv.maegz

> <i_m_Source_File_Index>
329

> <chembl_id>
CHEMBL3892881

> <chembl_pref_name>
None

> <i_lp_mmshare_version>
53161

> <i_f3d_flags>
0

> <r_lp_tautomer_probability>
0.999999987636

> <s_lp_Force_Field>
OPLS_2005

> <r_lp_Energy>
16.592446

> <b_lp_Chiralities_Consistent>
1

> <s_lp_Variant>
CHEMBL301_lig1504-1

> <s_i_glide_gridfile>
glide-grid_1h00

> <i_i_glide_lignum>
2048

> <i_i_glide_rotatable_bonds>
8

> <r_i_docking_score>
-7.44063091763328

> <r_i_glide_ligand_efficiency>
-0.212589454789522

> <r_i_glide_ligand_efficiency_sa>
-0.695394202639244

> <r_i_glide_ligand_efficiency_ln>
-1.63338362232644

> <r_i_glide_gscore>
-7.44063091763328

> <r_i_glide_lipo>
-3.14361304874835

> <r_i_glide_hbond>
-0.16

> <r_i_glide_metal>
0

> <r_i_glide_rewards>
-1.06139777974496

> <r_i_glide_evdw>
-49.547061920166

> <r_i_glide_ecoul>
-7.78517818450928

> <r_i_glide_erotb>
0.656890744437254

> <r_i_glide_esite>
-0.0873810098925367

> <r_i_glide_emodel>
-81.0167254091037

> <r_i_glide_energy>
-57.3322401046753

> <r_i_glide_einternal>
5.09320974349976

> <i_i_glide_confnum>
81

> <i_i_glide_posenum>
332

> <r_i_glide_eff_state_penalty>
0

> <s_user_duplicate_titles>
CHEMBL301_lig1504

> <s_m_subgroup_title>
dock_pv

> <s_m_subgroupid>
dock_pv

> <b_m_subgroup_collapsed>
1

$$$$
CHEMBL301_lig7
                    3D
 Schrodinger Suite 2021-1.
 53 55  0  0  1  0            999 V2000
   -1.5234   30.5546   10.1007 N   0  0  0  0  0  0
   -1.8140   31.7241    9.5149 C   0  0  0  0  0  0
   -1.1063   32.4058    8.6097 N   0  0  0  0  0  0
    0.0580   31.8608    8.1760 C   0  0  0  0  0  0
   -0.3619   30.0206    9.6427 C   0  0  0  0  0  0
    0.4484   30.5909    8.6742 C   0  0  0  0  0  0
    1.5543   29.8520    8.4790 N   0  0  0  0  0  0
    1.4581   28.8834    9.3570 C   0  0  0  0  0  0
    0.3064   28.8892   10.0553 N   0  0  0  0  0  0
    0.8698   32.6520    7.3760 N   0  0  0  0  0  0
    0.0347   28.0072   11.2685 C   0  0  2  0  0  0
    0.1286   26.6502   10.9545 O   0  0  0  0  0  0
   -0.4568   25.8938   12.0082 C   0  0  1  0  0  0
   -1.6495   26.7528   12.4410 C   0  0  2  0  0  0
   -1.3114   28.1791   11.9821 C   0  0  1  0  0  0
   -1.9420   26.6520   13.8272 O   0  0  0  0  0  0
   -1.1420   29.1777   12.9760 O   0  0  0  0  0  0
   -0.7911   24.4820   11.4699 C   0  0  0  0  0  0
    0.0741   23.4788   11.9849 O   0  0  0  0  0  0
    1.6580   23.3487   11.6057 P   0  0  1  0  0  0
    1.6790   22.7426   10.1111 O   0  0  0  0  0  0
    2.1647   24.8716   11.3894 O   0  0  0  0  0  0
    2.4580   22.5577   12.5760 O   0  0  0  0  0  0
    2.7774   21.8517    9.1592 P   0  0  2  0  0  0
    3.6580   23.0591    8.3495 O   0  0  0  0  0  0
    1.8451   21.0520    7.9783 O   0  0  0  0  0  0
    3.6580   20.9392    9.9759 O   0  0  0  0  0  0
    4.6421   23.2596    7.0828 P   0  0  1  0  0  0
    4.8299   24.9394    6.9949 N   0  0  1  0  0  0
    5.8740   22.4291    7.1127 O   0  0  0  0  0  0
    3.6580   22.9625    5.8396 O   0  0  0  0  0  0
    5.1266   25.7385    8.1760 C   0  0  0  0  0  0
    4.9800   27.1609    7.8288 C   0  0  0  0  0  0
    4.8580   28.3510    7.5816 C   0  0  0  0  0  0
   -2.7325   32.1929    9.8385 H   0  0  0  0  0  0
    2.2096   28.1275    9.5419 H   0  0  0  0  0  0
    1.8296   32.3611    7.2759 H   0  0  0  0  0  0
    0.5823   33.6144    7.2251 H   0  0  0  0  0  0
    0.8480   28.2361   11.9663 H   0  0  0  0  0  0
    0.2556   25.8328   12.8357 H   0  0  0  0  0  0
   -2.5335   26.4333   11.8844 H   0  0  0  0  0  0
   -2.0813   28.4644   11.2670 H   0  0  0  0  0  0
   -2.5131   27.3988   14.0573 H   0  0  0  0  0  0
   -1.5302   29.9957   12.6462 H   0  0  0  0  0  0
   -0.7912   24.4628   10.3793 H   0  0  0  0  0  0
   -1.8011   24.2045   11.7723 H   0  0  0  0  0  0
    1.5355   25.4677   10.9323 H   0  0  0  0  0  0
    1.2843   21.5797    7.3772 H   0  0  0  0  0  0
    5.2189   25.3130    6.1290 H   0  0  0  0  0  0
    2.7369   23.2445    6.0170 H   0  0  0  0  0  0
    6.1428   25.5471    8.5232 H   0  0  0  0  0  0
    4.4275   25.4953    8.9760 H   0  0  0  0  0  0
    4.7468   29.3928    7.3760 H   0  0  0  0  0  0
  1  2  2  0  0  0
  1  5  1  0  0  0
  2  3  1  0  0  0
  2 35  1  0  0  0
  3  4  2  0  0  0
  4  6  1  0  0  0
  4 10  1  0  0  0
  5  9  1  0  0  0
  5  6  2  0  0  0
  6  7  1  0  0  0
  7  8  2  0  0  0
  8  9  1  0  0  0
  8 36  1  0  0  0
  9 11  1  0  0  0
 10 37  1  0  0  0
 10 38  1  0  0  0
 11 12  1  0  0  0
 11 15  1  0  0  0
 11 39  1  0  0  0
 12 13  1  0  0  0
 13 18  1  0  0  0
 13 14  1  0  0  0
 13 40  1  0  0  0
 14 16  1  0  0  0
 14 15  1  0  0  0
 14 41  1  0  0  0
 15 17  1  0  0  0
 15 42  1  0  0  0
 16 43  1  0  0  0
 17 44  1  0  0  0
 18 19  1  0  0  0
 18 45  1  0  0  0
 18 46  1  0  0  0
 19 20  1  0  0  0
 20 21  1  0  0  0
 20 22  1  0  0  0
 20 23  2  0  0  0
 21 24  1  0  0  0
 22 47  1  0  0  0
 24 25  1  0  0  0
 24 26  1  0  0  0
 24 27  2  0  0  0
 25 28  1  0  0  0
 26 48  1  0  0  0
 28 29  1  0  0  0
 28 30  2  0  0  0
 28 31  1  0  0  0
 29 32  1  0  0  0
 29 49  1  0  0  0
 31 50  1  0  0  0
 32 33  1  0  0  0
 32 51  1  0  0  0
 32 52  1  0  0  0
 33 34  3  0  0  0
 34 53  1  0  0  0
M  END
> <s_m_entry_id>
32929

> <s_m_entry_name>
dock_pv.330

> <s_m_Source_Path>
/home/csk/Desktop/cluster/DUD-E-result/cdk2

> <s_m_Source_File>
dock_pv.maegz

> <i_m_Source_File_Index>
330

> <chembl_id>
CHEMBL557670

> <chembl_pref_name>
None

> <i_lp_mmshare_version>
53161

> <i_f3d_flags>
0

> <r_lp_tautomer_probability>
0.999997216410988

> <s_lp_Force_Field>
OPLS_2005

> <r_lp_Energy>
25.018304

> <b_lp_Chiralities_Consistent>
1

> <s_lp_Variant>
CHEMBL301_lig7-2

> <s_i_glide_gridfile>
glide-grid_1h00

> <i_i_glide_lignum>
9

> <i_i_glide_rotatable_bonds>
16

> <r_i_docking_score>
-7.43833133385716

> <r_i_glide_ligand_efficiency>
-0.218774450995799

> <r_i_glide_ligand_efficiency_sa>
-0.708744292430896

> <r_i_glide_ligand_efficiency_ln>
-1.64333602977592

> <r_i_glide_gscore>
-7.43833133385716

> <r_i_glide_lipo>
-1.37044221837954

> <r_i_glide_hbond>
-0.374072039060974

> <r_i_glide_metal>
0

> <r_i_glide_rewards>
-1.43970890025017

> <r_i_glide_evdw>
-43.9718933105469

> <r_i_glide_ecoul>
-18.1870498657227

> <r_i_glide_erotb>
0.768624783623472

> <r_i_glide_esite>
-0.0960808144042059

> <r_i_glide_emodel>
-82.6581199588572

> <r_i_glide_energy>
-62.1589431762695

> <r_i_glide_einternal>
21.7524814605713

> <i_i_glide_confnum>
234

> <i_i_glide_posenum>
147

> <r_i_glide_eff_state_penalty>
0

> <s_user_duplicate_titles>
CHEMBL301_lig7

> <s_m_subgroup_title>
dock_pv

> <s_m_subgroupid>
dock_pv

> <b_m_subgroup_collapsed>
1

$$$$
CHEMBL301_lig132
                    3D
 Schrodinger Suite 2021-1.
 38 40  0  0  1  0            999 V2000
   -1.5809   29.6011   10.5639 C   0  0  0  0  0  0
   -2.2479   30.8036   10.2992 C   0  0  0  0  0  0
   -1.7305   31.7160    9.3772 C   0  0  0  0  0  0
   -0.3996   29.2906    9.8764 C   0  0  0  0  0  0
    0.1325   30.2224    8.9757 C   0  0  0  0  0  0
   -0.5362   31.4046    8.7303 C   0  0  0  0  0  0
    0.1752   32.1324    7.8059 N   0  0  0  0  0  0
    1.2582   31.4733    7.3760 C   0  0  0  0  0  0
    1.3400   30.2518    8.1761 C   0  0  0  0  0  0
    2.0464   31.8520    6.5153 O   0  0  0  0  0  0
    2.2779   29.3834    8.2000 N   0  0  0  0  0  0
    3.3808   29.4521    7.3474 N   0  0  0  0  0  0
    4.1816   28.3501    7.0606 C   0  0  0  0  0  0
    4.6743   27.5369    8.0822 C   0  0  0  0  0  0
    5.5127   26.4716    7.7760 C   0  0  0  0  0  0
    5.8426   26.2091    6.4484 C   0  0  0  0  0  0
    5.3143   26.9923    5.4195 C   0  0  0  0  0  0
    4.4959   28.0741    5.7309 C   0  0  0  0  0  0
    6.9956   24.8945    6.0920 S   0  0  0  0  0  0
    8.5317   25.5168    6.6276 N   0  0  0  0  0  0
    6.6592   23.7736    6.9758 O   0  0  0  0  0  0
    7.0741   24.7275    4.6384 O   0  0  0  0  0  0
   -2.1060   28.7268   11.4807 O   0  0  0  0  0  0
    0.3816   27.7655   10.1483 Cl  0  0  0  0  0  0
   -1.4693   28.7792   12.7542 C   0  0  0  0  0  0
   -3.1621   31.0317   10.8264 H   0  0  0  0  0  0
   -2.2523   32.6433    9.1882 H   0  0  0  0  0  0
   -0.0882   33.0407    7.4521 H   0  0  0  0  0  0
    3.3406   30.2173    6.6780 H   0  0  0  0  0  0
    4.4309   27.7435    9.1148 H   0  0  0  0  0  0
    5.9146   25.8652    8.5758 H   0  0  0  0  0  0
    5.5712   26.7950    4.3884 H   0  0  0  0  0  0
    4.1165   28.7032    4.9394 H   0  0  0  0  0  0
    9.0922   24.8179    7.1186 H   0  0  0  0  0  0
    9.0583   25.9813    5.8830 H   0  0  0  0  0  0
   -1.9419   28.0645   13.4264 H   0  0  0  0  0  0
   -1.5418   29.7712   13.2038 H   0  0  0  0  0  0
   -0.4126   28.5148   12.7019 H   0  0  0  0  0  0
  1  2  2  0  0  0
  1  4  1  0  0  0
  1 23  1  0  0  0
  2  3  1  0  0  0
  2 26  1  0  0  0
  3  6  2  0  0  0
  3 27  1  0  0  0
  4  5  2  0  0  0
  4 24  1  0  0  0
  5  9  1  0  0  0
  5  6  1  0  0  0
  6  7  1  0  0  0
  7  8  1  0  0  0
  7 28  1  0  0  0
  8  9  1  0  0  0
  8 10  2  0  0  0
  9 11  2  0  0  0
 11 12  1  0  0  0
 12 13  1  0  0  0
 12 29  1  0  0  0
 13 14  2  0  0  0
 13 18  1  0  0  0
 14 15  1  0  0  0
 14 30  1  0  0  0
 15 16  2  0  0  0
 15 31  1  0  0  0
 16 17  1  0  0  0
 16 19  1  0  0  0
 17 18  2  0  0  0
 17 32  1  0  0  0
 18 33  1  0  0  0
 19 20  1  0  0  0
 19 21  2  0  0  0
 19 22  2  0  0  0
 20 34  1  0  0  0
 20 35  1  0  0  0
 23 25  1  0  0  0
 25 36  1  0  0  0
 25 37  1  0  0  0
 25 38  1  0  0  0
M  END
> <s_m_entry_id>
32930

> <s_m_entry_name>
dock_pv.331

> <s_m_Source_Path>
/home/csk/Desktop/cluster/DUD-E-result/cdk2

> <s_m_Source_File>
dock_pv.maegz

> <i_m_Source_File_Index>
331

> <chembl_id>
CHEMBL271822

> <chembl_pref_name>
None

> <i_lp_mmshare_version>
53161

> <i_f3d_flags>
0

> <r_lp_tautomer_probability>
1

> <s_lp_Force_Field>
OPLS_2005

> <r_lp_Energy>
48.099542

> <b_lp_Chiralities_Consistent>
1

> <s_lp_Variant>
CHEMBL301_lig132-1

> <s_i_glide_gridfile>
glide-grid_1h00

> <i_i_glide_lignum>
271

> <i_i_glide_rotatable_bonds>
4

> <r_i_docking_score>
-7.43735725420934

> <r_i_glide_ligand_efficiency>
-0.297494290168374

> <r_i_glide_ligand_efficiency_sa>
-0.869878580536027

> <r_i_glide_ligand_efficiency_ln>
-1.76287654885924

> <r_i_glide_gscore>
-7.43735725420934

> <r_i_glide_lipo>
-2.12419075351973

> <r_i_glide_hbond>
-0.50993272024291

> <r_i_glide_metal>
0

> <r_i_glide_rewards>
-2.20100267198487

> <r_i_glide_evdw>
-38.1710357666016

> <r_i_glide_ecoul>
-6.36994409561157

> <r_i_glide_erotb>
0.267621341305376

> <r_i_glide_esite>
-0.00580904709540194

> <r_i_glide_emodel>
-61.2220436754604

> <r_i_glide_energy>
-44.5409798622131

> <r_i_glide_einternal>
6.11583137512207

> <i_i_glide_confnum>
3

> <i_i_glide_posenum>
192

> <r_i_glide_eff_state_penalty>
0

> <s_user_duplicate_titles>
CHEMBL301_lig132,440909

> <s_m_subgroup_title>
dock_pv

> <s_m_subgroupid>
dock_pv

> <b_m_subgroup_collapsed>
1

$$$$
CHEMBL301_lig273
                    3D
 Schrodinger Suite 2021-1.
 33 35  0  0  1  0            999 V2000
    3.4600   27.8318    8.9754 O   0  0  0  0  0  0
    3.9101   28.3927    7.9789 C   0  0  0  0  0  0
    5.2044   27.8761    7.3681 C   0  0  0  0  0  0
    3.3414   29.4520    7.3635 N   0  0  0  0  0  0
    2.1386   30.1111    7.6769 C   0  0  0  0  0  0
    1.2632   29.5809    8.5761 N   0  0  0  0  0  0
    1.9547   31.2969    7.0364 N   0  0  0  0  0  0
    0.8582   32.0147    7.3960 C   0  0  0  0  0  0
   -0.0845   31.5362    8.3070 C   0  0  0  0  0  0
    0.1344   30.2736    8.8746 C   0  0  0  0  0  0
   -0.8326   29.6312    9.8381 C   0  0  0  0  0  0
   -0.5920   28.5128   10.6356 N   0  0  0  0  0  0
   -1.7966   28.2657   11.3211 C   0  0  0  0  0  0
   -2.7418   29.1584   10.9760 N   0  0  0  0  0  0
   -2.1772   29.9629   10.1085 C   0  0  0  0  0  0
   -3.0503   31.0516    9.5216 C   0  0  0  0  0  0
   -1.8871   27.1766   12.2055 C   0  0  0  0  0  0
   -0.7758   26.3536   12.3816 C   0  0  0  0  0  0
    0.4091   26.6091   11.7016 C   0  0  0  0  0  0
    0.5013   27.6999   10.8413 C   0  0  0  0  0  0
    5.9650   28.6532    7.3748 H   0  0  0  0  0  0
    5.0431   27.5587    6.3365 H   0  0  0  0  0  0
    5.5843   27.0248    7.9354 H   0  0  0  0  0  0
    3.8833   29.9199    6.6458 H   0  0  0  0  0  0
    0.7585   33.0051    6.9760 H   0  0  0  0  0  0
   -0.9261   32.1516    8.5756 H   0  0  0  0  0  0
   -2.9336   31.1289    8.4414 H   0  0  0  0  0  0
   -4.1139   30.8806    9.6979 H   0  0  0  0  0  0
   -2.8211   32.0234    9.9578 H   0  0  0  0  0  0
   -2.8082   26.9844   12.7364 H   0  0  0  0  0  0
   -0.8324   25.5125   13.0571 H   0  0  0  0  0  0
    1.2678   25.9702   11.8515 H   0  0  0  0  0  0
    1.4191   27.9276   10.3301 H   0  0  0  0  0  0
  1  2  2  0  0  0
  2  3  1  0  0  0
  2  4  1  0  0  0
  3 21  1  0  0  0
  3 22  1  0  0  0
  3 23  1  0  0  0
  4  5  1  0  0  0
  4 24  1  0  0  0
  5  6  2  0  0  0
  5  7  1  0  0  0
  6 10  1  0  0  0
  7  8  2  0  0  0
  8  9  1  0  0  0
  8 25  1  0  0  0
  9 10  2  0  0  0
  9 26  1  0  0  0
 10 11  1  0  0  0
 11 12  1  0  0  0
 11 15  2  0  0  0
 12 13  1  0  0  0
 12 20  1  0  0  0
 13 14  2  0  0  0
 13 17  1  0  0  0
 14 15  1  0  0  0
 15 16  1  0  0  0
 16 27  1  0  0  0
 16 28  1  0  0  0
 16 29  1  0  0  0
 17 18  2  0  0  0
 17 30  1  0  0  0
 18 19  1  0  0  0
 18 31  1  0  0  0
 19 20  2  0  0  0
 19 32  1  0  0  0
 20 33  1  0  0  0
M  END
> <s_m_entry_id>
32931

> <s_m_entry_name>
dock_pv.332

> <s_m_Source_Path>
/home/csk/Desktop/cluster/DUD-E-result/cdk2

> <s_m_Source_File>
dock_pv.maegz

> <i_m_Source_File_Index>
332

> <chembl_id>
CHEMBL99842

> <chembl_pref_name>
None

> <i_lp_mmshare_version>
53161

> <i_f3d_flags>
0

> <r_lp_tautomer_probability>
1

> <s_lp_Force_Field>
OPLS_2005

> <r_lp_Energy>
9.976462

> <b_lp_Chiralities_Consistent>
1

> <s_lp_Variant>
CHEMBL301_lig273-1

> <s_i_glide_gridfile>
glide-grid_1h00

> <i_i_glide_lignum>
429

> <i_i_glide_rotatable_bonds>
3

> <r_i_docking_score>
-7.43722327501501

> <r_i_glide_ligand_efficiency>
-0.37186116375075

> <r_i_glide_ligand_efficiency_sa>
-1.00938649280457

> <r_i_glide_ligand_efficiency_ln>
-1.86129168969572

> <r_i_glide_gscore>
-7.43722327501501

> <r_i_glide_lipo>
-1.84462152324443

> <r_i_glide_hbond>
-0.306194573665372

> <r_i_glide_metal>
0

> <r_i_glide_rewards>
-3.64543918004241

> <r_i_glide_evdw>
-33.4731101989746

> <r_i_glide_ecoul>
-3.10963225364685

> <r_i_glide_erotb>
0.499132349932961

> <r_i_glide_esite>
0

> <r_i_glide_emodel>
-55.0233521738947

> <r_i_glide_energy>
-36.5827424526215

> <r_i_glide_einternal>
0.979602336883545

> <i_i_glide_confnum>
5

> <i_i_glide_posenum>
120

> <r_i_glide_eff_state_penalty>
0

> <s_user_duplicate_titles>
CHEMBL301_lig273

> <s_m_subgroup_title>
dock_pv

> <s_m_subgroupid>
dock_pv

> <b_m_subgroup_collapsed>
1

$$$$
CHEMBL301_lig1165
                    3D
 Schrodinger Suite 2021-1.
 46 49  0  0  1  0            999 V2000
    0.3391   28.8658    9.8404 N   0  0  0  0  0  0
    1.3336   27.9459    9.9051 C   0  0  0  0  0  0
    2.4775   28.0092    9.1160 C   0  0  0  0  0  0
    2.6209   29.0523    8.1984 C   0  0  0  0  0  0
    0.4953   29.8880    9.0007 C   0  0  0  0  0  0
    1.6277   30.0050    8.1765 N   0  0  0  0  0  0
    1.5510   31.1087    7.3760 N   0  0  0  0  0  0
    0.4580   31.7343    7.7760 C   0  0  0  0  0  0
   -0.2926   31.0214    8.7013 C   0  0  0  0  0  0
    1.2044   26.8405   10.7550 N   0  0  0  0  0  0
   -0.0515   26.4888   11.4239 C   0  0  2  0  0  0
   -0.3952   27.5088   12.5428 C   0  0  0  0  0  0
   -1.5969   27.0518   13.3848 C   0  0  0  0  0  0
   -1.3851   25.6515   13.9890 C   0  0  2  0  0  0
   -1.0789   24.6323   12.8710 C   0  0  0  0  0  0
    0.1173   25.0626   11.9958 C   0  0  0  0  0  0
   -2.5000   25.2524   14.8256 N   0  0  0  0  0  0
    3.6423   29.0778    7.2369 N   0  0  0  0  0  0
    4.4809   28.0544    6.7881 C   0  0  0  0  0  0
    5.3205   27.3407    7.6471 C   0  0  0  0  0  0
    6.1193   26.3108    7.1449 C   0  0  0  0  0  0
    6.0773   25.9891    5.7854 C   0  0  0  0  0  0
    5.2460   26.7065    4.9264 C   0  0  0  0  0  0
    4.4583   27.7434    5.4261 C   0  0  0  0  0  0
    6.8416   24.9872    5.2932 F   0  0  0  0  0  0
    7.1706   25.4524    8.2082 Cl  0  0  0  0  0  0
   -1.8073   31.3795    9.4328 Cl  0  0  0  0  0  0
    3.2080   27.2203    9.1849 H   0  0  0  0  0  0
    0.1781   32.6941    7.3630 H   0  0  0  0  0  0
    1.7975   26.0696   10.4944 H   0  0  0  0  0  0
   -0.8436   26.4804   10.6716 H   0  0  0  0  0  0
    0.4580   27.6585   13.2003 H   0  0  0  0  0  0
   -0.6287   28.4903   12.1332 H   0  0  0  0  0  0
   -2.4912   27.0565   12.7584 H   0  0  0  0  0  0
   -1.7754   27.7815   14.1757 H   0  0  0  0  0  0
   -0.4979   25.7099   14.6217 H   0  0  0  0  0  0
   -1.9510   24.5208   12.2269 H   0  0  0  0  0  0
   -0.8824   23.6496   13.3020 H   0  0  0  0  0  0
    0.2314   24.3497   11.1779 H   0  0  0  0  0  0
    1.0379   24.9987   12.5763 H   0  0  0  0  0  0
   -2.7707   26.0549   15.3763 H   0  0  0  0  0  0
   -3.2874   25.0696   14.2204 H   0  0  0  0  0  0
    3.7141   29.9541    6.7282 H   0  0  0  0  0  0
    5.3654   27.5857    8.6988 H   0  0  0  0  0  0
    5.2185   26.4600    3.8748 H   0  0  0  0  0  0
    3.8152   28.2908    4.7523 H   0  0  0  0  0  0
  1  5  1  0  0  0
  1  2  2  0  0  0
  2  3  1  0  0  0
  2 10  1  0  0  0
  3  4  2  0  0  0
  3 28  1  0  0  0
  4  6  1  0  0  0
  4 18  1  0  0  0
  5  6  1  0  0  0
  5  9  2  0  0  0
  6  7  1  0  0  0
  7  8  2  0  0  0
  8  9  1  0  0  0
  8 29  1  0  0  0
  9 27  1  0  0  0
 10 11  1  0  0  0
 10 30  1  0  0  0
 11 12  1  0  0  0
 11 16  1  0  0  0
 11 31  1  0  0  0
 12 13  1  0  0  0
 12 32  1  0  0  0
 12 33  1  0  0  0
 13 14  1  0  0  0
 13 34  1  0  0  0
 13 35  1  0  0  0
 14 15  1  0  0  0
 14 17  1  0  0  0
 14 36  1  0  0  0
 15 16  1  0  0  0
 15 37  1  0  0  0
 15 38  1  0  0  0
 16 39  1  0  0  0
 16 40  1  0  0  0
 17 41  1  0  0  0
 17 42  1  0  0  0
 18 19  1  0  0  0
 18 43  1  0  0  0
 19 20  2  0  0  0
 19 24  1  0  0  0
 20 21  1  0  0  0
 20 44  1  0  0  0
 21 22  2  0  0  0
 21 26  1  0  0  0
 22 23  1  0  0  0
 22 25  1  0  0  0
 23 24  2  0  0  0
 23 45  1  0  0  0
 24 46  1  0  0  0
M  END
> <s_m_entry_id>
32932

> <s_m_entry_name>
dock_pv.333

> <s_m_Source_Path>
/home/csk/Desktop/cluster/DUD-E-result/cdk2

> <s_m_Source_File>
dock_pv.maegz

> <i_m_Source_File_Index>
333

> <chembl_id>
CHEMBL2163996

> <chembl_pref_name>
None

> <i_lp_mmshare_version>
53161

> <i_f3d_flags>
0

> <r_lp_tautomer_probability>
1

> <s_lp_Force_Field>
OPLS_2005

> <r_lp_Energy>
26.858953

> <b_lp_Chiralities_Consistent>
1

> <s_lp_Variant>
CHEMBL301_lig1165-1

> <s_i_glide_gridfile>
glide-grid_1h00

> <i_i_glide_lignum>
1578

> <i_i_glide_rotatable_bonds>
4

> <r_i_docking_score>
-7.43671383128695

> <r_i_glide_ligand_efficiency>
-0.27543384560322

> <r_i_glide_ligand_efficiency_sa>
-0.826301535901876

> <r_i_glide_ligand_efficiency_ln>
-1.73114437611408

> <r_i_glide_gscore>
-7.43671383128695

> <r_i_glide_lipo>
-2.76999867098057

> <r_i_glide_hbond>
-0.32

> <r_i_glide_metal>
0

> <r_i_glide_rewards>
-1.99891263951389

> <r_i_glide_evdw>
-42.4394493103027

> <r_i_glide_ecoul>
-4.53378438949585

> <r_i_glide_erotb>
0.470148060061309

> <r_i_glide_esite>
-0.0159104569142767

> <r_i_glide_emodel>
-64.0449388262088

> <r_i_glide_energy>
-46.9732336997986

> <r_i_glide_einternal>
7.56883192062378

> <i_i_glide_confnum>
8

> <i_i_glide_posenum>
184

> <r_i_glide_eff_state_penalty>
0

> <s_user_duplicate_titles>
CHEMBL301_lig1165

> <s_m_subgroup_title>
dock_pv

> <s_m_subgroupid>
dock_pv

> <b_m_subgroup_collapsed>
1

$$$$
CHEMBL301_lig130
                    3D
 Schrodinger Suite 2021-1.
 38 40  0  0  1  0            999 V2000
    1.9308   28.2874    9.2933 C   0  0  0  0  0  0
    2.0852   29.4520    8.3054 C   0  0  0  0  0  0
    3.2337   29.4517    7.5151 N   0  0  0  0  0  0
    4.1355   28.4265    7.1958 C   0  0  0  0  0  0
    4.8541   27.7398    8.1760 C   0  0  0  0  0  0
    5.7350   26.7281    7.8127 C   0  0  0  0  0  0
    5.9272   26.4231    6.4692 C   0  0  0  0  0  0
    5.2321   27.1201    5.4799 C   0  0  0  0  0  0
    4.3493   28.1342    5.8468 C   0  0  0  0  0  0
    7.1224   25.1721    6.0401 S   0  0  0  0  0  0
    8.6517   25.8520    6.5229 N   0  0  0  0  0  0
    6.8699   24.0232    6.9160 O   0  0  0  0  0  0
    7.1460   25.0309    4.5820 O   0  0  0  0  0  0
    1.1358   30.4303    8.2414 C   0  0  0  0  0  0
    1.2508   31.6066    7.3760 C   0  0  0  0  0  0
    2.0580   31.8520    6.4882 O   0  0  0  0  0  0
    0.2963   32.4586    7.7760 N   0  0  0  0  0  0
   -0.5670   31.9023    8.6773 C   0  0  0  0  0  0
   -1.7081   32.4545    9.2524 C   0  0  0  0  0  0
   -2.4263   31.6970   10.1760 C   0  0  0  0  0  0
   -1.9839   30.4192   10.5253 C   0  0  0  0  0  0
   -0.8285   29.8894    9.9448 C   0  0  0  0  0  0
   -0.1173   30.6379    8.9955 C   0  0  0  0  0  0
    2.0605   28.6265   10.3176 H   0  0  0  0  0  0
    0.9345   27.8636    9.2028 H   0  0  0  0  0  0
    2.5784   27.4342    9.1240 H   0  0  0  0  0  0
    3.2560   30.1861    6.8133 H   0  0  0  0  0  0
    4.7386   27.9845    9.2215 H   0  0  0  0  0  0
    6.2837   26.1961    8.5760 H   0  0  0  0  0  0
    5.3915   26.8993    4.4339 H   0  0  0  0  0  0
    3.8228   28.6828    5.0793 H   0  0  0  0  0  0
    9.3191   25.1317    6.8045 H   0  0  0  0  0  0
    9.0402   26.4568    5.7938 H   0  0  0  0  0  0
    0.1895   33.3807    7.3763 H   0  0  0  0  0  0
   -2.0359   33.4520    9.0032 H   0  0  0  0  0  0
   -3.3135   32.1038   10.6408 H   0  0  0  0  0  0
   -2.5318   29.8490   11.2624 H   0  0  0  0  0  0
   -0.5166   28.9119   10.2698 H   0  0  0  0  0  0
  1  2  1  0  0  0
  1 24  1  0  0  0
  1 25  1  0  0  0
  1 26  1  0  0  0
  2  3  1  0  0  0
  2 14  2  0  0  0
  3  4  1  0  0  0
  3 27  1  0  0  0
  4  5  2  0  0  0
  4  9  1  0  0  0
  5  6  1  0  0  0
  5 28  1  0  0  0
  6  7  2  0  0  0
  6 29  1  0  0  0
  7  8  1  0  0  0
  7 10  1  0  0  0
  8  9  2  0  0  0
  8 30  1  0  0  0
  9 31  1  0  0  0
 10 11  1  0  0  0
 10 12  2  0  0  0
 10 13  2  0  0  0
 11 32  1  0  0  0
 11 33  1  0  0  0
 14 15  1  0  0  0
 14 23  1  0  0  0
 15 16  2  0  0  0
 15 17  1  0  0  0
 17 18  1  0  0  0
 17 34  1  0  0  0
 18 19  2  0  0  0
 18 23  1  0  0  0
 19 20  1  0  0  0
 19 35  1  0  0  0
 20 21  2  0  0  0
 20 36  1  0  0  0
 21 22  1  0  0  0
 21 37  1  0  0  0
 22 23  2  0  0  0
 22 38  1  0  0  0
M  END
> <s_m_entry_id>
32933

> <s_m_entry_name>
dock_pv.334

> <s_m_Source_Path>
/home/csk/Desktop/cluster/DUD-E-result/cdk2

> <s_m_Source_File>
dock_pv.maegz

> <i_m_Source_File_Index>
334

> <chembl_id>
CHEMBL405042

> <chembl_pref_name>
GW335962X

> <i_lp_mmshare_version>
53161

> <i_f3d_flags>
0

> <r_lp_tautomer_probability>
0.499999999999422

> <s_lp_Force_Field>
OPLS_2005

> <r_lp_Energy>
49.214625

> <b_lp_Chiralities_Consistent>
1

> <s_lp_Variant>
CHEMBL301_lig130-1

> <s_i_glide_gridfile>
glide-grid_1h00

> <i_i_glide_lignum>
269

> <i_i_glide_rotatable_bonds>
3

> <r_i_docking_score>
-7.43628933322003

> <r_i_glide_ligand_efficiency>
-0.323316927531306

> <r_i_glide_ligand_efficiency_sa>
-0.919470333272344

> <r_i_glide_ligand_efficiency_ln>
-1.79816218931629

> <r_i_glide_gscore>
-7.43628933322003

> <r_i_glide_lipo>
-2.7343120686942

> <r_i_glide_hbond>
-0.661307450871973

> <r_i_glide_metal>
0

> <r_i_glide_rewards>
-1.46481254359231

> <r_i_glide_evdw>
-34.3712692260742

> <r_i_glide_ecoul>
-7.27114868164062

> <r_i_glide_erotb>
0.242531227643118

> <r_i_glide_esite>
-0.00915273415485769

> <r_i_glide_emodel>
-55.8578168764431

> <r_i_glide_energy>
-41.6424179077148

> <r_i_glide_einternal>
2.49410033226013

> <i_i_glide_confnum>
1

> <i_i_glide_posenum>
23

> <r_i_glide_eff_state_penalty>
0

> <s_user_duplicate_titles>
CHEMBL301_lig130,441006

> <s_m_subgroup_title>
dock_pv

> <s_m_subgroupid>
dock_pv

> <b_m_subgroup_collapsed>
1

$$$$
CHEMBL301_lig14
                    3D
 Schrodinger Suite 2021-1.
 59 61  0  0  1  0            999 V2000
    4.3356   26.3804    8.1173 N   0  0  0  0  0  0
    3.6580   27.1583    8.9751 C   0  0  0  0  0  0
    3.1732   28.3901    8.8008 N   0  0  0  0  0  0
    3.3782   28.9813    7.5953 C   0  0  0  0  0  0
    4.4992   26.9883    6.9141 C   0  0  0  0  0  0
    4.0581   28.2532    6.5830 C   0  0  0  0  0  0
    4.3375   28.5435    5.3056 N   0  0  0  0  0  0
    4.9236   27.4661    4.8474 C   0  0  0  0  0  0
    5.1070   26.5103    5.7829 N   0  0  0  0  0  0
    2.8554   30.2523    7.4039 N   0  0  0  0  0  0
    5.7628   25.1565    5.5847 C   0  0  2  0  0  0
    4.8728   24.1138    5.8165 O   0  0  0  0  0  0
    5.5920   22.9005    5.9700 C   0  0  1  0  0  0
    6.8644   23.3672    6.7024 C   0  0  2  0  0  0
    6.9917   24.8808    6.4514 C   0  0  1  0  0  0
    8.0165   22.6419    6.3157 O   0  0  0  0  0  0
    8.1472   25.3239    5.7548 O   0  0  0  0  0  0
    4.7101   21.8866    6.7250 C   0  0  0  0  0  0
    4.3765   22.4282    7.9952 O   0  0  0  0  0  0
    3.2573   21.7764    8.9773 P   0  0  1  0  0  0
    2.7717   23.0956    9.7720 O   0  0  0  0  0  0
    1.9976   21.4548    8.0173 O   0  0  0  0  0  0
    3.7272   20.6523    9.8279 O   0  0  0  0  0  0
    1.7771   23.6983   11.0143 P   0  0  2  0  0  0
    0.6395   24.7051   10.2726 O   0  0  0  0  0  0
    2.8413   24.7425   11.8501 O   0  0  0  0  0  0
    1.1805   22.6290   11.8989 O   0  0  0  0  0  0
   -0.7497   25.4471   10.6147 P   0  0  1  0  0  0
   -0.2630   26.5991   11.7512 N   0  0  3  0  0  0
   -1.5138   25.8968    9.4265 O   0  0  0  0  0  0
   -1.5389   24.3626   11.5138 O   0  0  0  0  0  0
   -1.1456   27.5841   12.3622 C   0  0  0  0  0  0
   -0.3964   28.8802   12.7272 C   0  0  0  0  0  0
    0.1501   29.6868   11.5359 C   0  0  0  0  0  0
   -0.8776   30.2442   10.6359 C   0  0  0  0  0  0
   -1.7618   30.6803    9.9158 C   0  0  0  0  0  0
    3.4520   26.7290    9.9447 H   0  0  0  0  0  0
    5.2814   27.3291    3.8380 H   0  0  0  0  0  0
    3.4294   30.8299    6.7901 H   0  0  0  0  0  0
    2.4676   30.6589    8.2367 H   0  0  0  0  0  0
    6.0324   25.1026    4.5225 H   0  0  0  0  0  0
    5.8473   22.5177    4.9809 H   0  0  0  0  0  0
    6.7265   23.2207    7.7741 H   0  0  0  0  0  0
    6.8786   25.4192    7.3979 H   0  0  0  0  0  0
    8.4937   23.1805    5.6677 H   0  0  0  0  0  0
    8.1479   26.2866    5.7297 H   0  0  0  0  0  0
    5.2280   20.9325    6.8327 H   0  0  0  0  0  0
    3.8065   21.7070    6.1428 H   0  0  0  0  0  0
    1.6568   22.2881    7.5876 H   0  0  0  0  0  0
    3.3624   25.4486   11.4146 H   0  0  0  0  0  0
    0.6985   26.5763   12.1045 H   0  0  0  0  0  0
   -2.4316   24.6572   11.7960 H   0  0  0  0  0  0
   -1.5811   27.1481   13.2615 H   0  0  0  0  0  0
   -1.9772   27.7977   11.6914 H   0  0  0  0  0  0
    0.4526   28.6289   13.3663 H   0  0  0  0  0  0
   -1.0446   29.5095   13.3353 H   0  0  0  0  0  0
    0.8168   29.0774   10.9262 H   0  0  0  0  0  0
    0.7399   30.5263   11.8995 H   0  0  0  0  0  0
   -2.5472   31.0670    9.3027 H   0  0  0  0  0  0
  1  2  2  0  0  0
  1  5  1  0  0  0
  2  3  1  0  0  0
  2 37  1  0  0  0
  3  4  2  0  0  0
  4  6  1  0  0  0
  4 10  1  0  0  0
  5  9  1  0  0  0
  5  6  2  0  0  0
  6  7  1  0  0  0
  7  8  2  0  0  0
  8  9  1  0  0  0
  8 38  1  0  0  0
  9 11  1  0  0  0
 10 39  1  0  0  0
 10 40  1  0  0  0
 11 12  1  0  0  0
 11 15  1  0  0  0
 11 41  1  0  0  0
 12 13  1  0  0  0
 13 18  1  0  0  0
 13 14  1  0  0  0
 13 42  1  0  0  0
 14 15  1  0  0  0
 14 16  1  0  0  0
 14 43  1  0  0  0
 15 17  1  0  0  0
 15 44  1  0  0  0
 16 45  1  0  0  0
 17 46  1  0  0  0
 18 19  1  0  0  0
 18 47  1  0  0  0
 18 48  1  0  0  0
 19 20  1  0  0  0
 20 21  1  0  0  0
 20 22  1  0  0  0
 20 23  2  0  0  0
 21 24  1  0  0  0
 22 49  1  0  0  0
 24 25  1  0  0  0
 24 26  1  0  0  0
 24 27  2  0  0  0
 25 28  1  0  0  0
 26 50  1  0  0  0
 28 29  1  0  0  0
 28 30  2  0  0  0
 28 31  1  0  0  0
 29 32  1  0  0  0
 29 51  1  0  0  0
 31 52  1  0  0  0
 32 33  1  0  0  0
 32 53  1  0  0  0
 32 54  1  0  0  0
 33 34  1  0  0  0
 33 55  1  0  0  0
 33 56  1  0  0  0
 34 35  1  0  0  0
 34 57  1  0  0  0
 34 58  1  0  0  0
 35 36  3  0  0  0
 36 59  1  0  0  0
M  END
> <s_m_entry_id>
32934

> <s_m_entry_name>
dock_pv.335

> <s_m_Source_Path>
/home/csk/Desktop/cluster/DUD-E-result/cdk2

> <s_m_Source_File>
dock_pv.maegz

> <i_m_Source_File_Index>
335

> <chembl_id>
CHEMBL560883

> <chembl_pref_name>
None

> <i_lp_mmshare_version>
53161

> <i_f3d_flags>
0

> <r_lp_tautomer_probability>
0.999997216410988

> <s_lp_Force_Field>
OPLS_2005

> <r_lp_Energy>
21.665555

> <b_lp_Chiralities_Consistent>
1

> <s_lp_Variant>
CHEMBL301_lig14-2

> <s_i_glide_gridfile>
glide-grid_1h00

> <i_i_glide_lignum>
65

> <i_i_glide_rotatable_bonds>
18

> <r_i_docking_score>
-7.43154825355305

> <r_i_glide_ligand_efficiency>
-0.206431895932029

> <r_i_glide_ligand_efficiency_sa>
-0.681623101404744

> <r_i_glide_ligand_efficiency_ln>
-1.62136305169413

> <r_i_glide_gscore>
-7.43154825355305

> <r_i_glide_lipo>
-1.53267470452455

> <r_i_glide_hbond>
-0.394613186725866

> <r_i_glide_metal>
0

> <r_i_glide_rewards>
-0.590926301987792

> <r_i_glide_evdw>
-39.4280853271484

> <r_i_glide_ecoul>
-23.857780456543

> <r_i_glide_erotb>
0.735727852696252

> <r_i_glide_esite>
-0.0989905781722282

> <r_i_glide_emodel>
-86.6604123486663

> <r_i_glide_energy>
-63.2858657836914

> <r_i_glide_einternal>
10.8945722579956

> <i_i_glide_confnum>
21

> <i_i_glide_posenum>
368

> <r_i_glide_eff_state_penalty>
0

> <s_user_duplicate_titles>
CHEMBL301_lig14

> <s_m_subgroup_title>
dock_pv

> <s_m_subgroupid>
dock_pv

> <b_m_subgroup_collapsed>
1

$$$$
CHEMBL301_lig1236
                    3D
 Schrodinger Suite 2021-1.
 60 63  0  0  1  0            999 V2000
    0.0422   28.3007   10.3968 C   0  0  0  0  0  0
   -1.0706   28.8779   11.0145 C   0  0  0  0  0  0
   -1.8404   28.1666   11.9233 C   0  0  0  0  0  0
    0.3911   26.9900   10.7363 C   0  0  0  0  0  0
   -0.3091   26.2579   11.7272 C   0  0  0  0  0  0
   -1.4733   26.8555   12.2995 C   0  0  0  0  0  0
   -2.2453   26.2090   13.2138 N   0  0  0  0  0  0
   -1.8803   24.9643   13.6025 C   0  0  0  0  0  0
   -0.7411   24.3176   13.1214 C   0  0  0  0  0  0
    0.0790   24.9557   12.1914 C   0  0  0  0  0  0
    0.8412   29.0370    9.3759 C   0  0  0  0  0  0
    1.3372   24.2624   11.7355 C   0  0  0  0  0  0
    1.3553   23.0744   11.4225 O   0  0  0  0  0  0
    2.4584   25.0425   11.7758 O   0  0  0  0  0  0
   -2.6961   24.3136   14.6759 C   0  0  0  0  0  0
   -4.0287   24.2519   14.4662 N   0  0  0  0  0  0
   -2.1321   23.8505   15.6609 O   0  0  0  0  0  0
   -5.0792   23.6144   15.3004 C   0  0  2  0  0  0
   -5.1421   24.2531   16.6928 C   0  0  0  0  0  0
   -5.0841   22.0432   15.2613 C   0  0  0  0  0  0
   -3.7711   21.3687   15.6636 C   0  0  0  0  0  0
   -5.9277   23.5550   17.5453 O   0  0  0  0  0  0
   -4.5918   25.3211   16.9755 O   0  0  0  0  0  0
   -6.0732   23.9795   18.8961 C   0  0  0  0  0  0
   -2.9751   20.7651   14.6837 C   0  0  0  0  0  0
   -1.7180   20.2572   15.0102 C   0  0  0  0  0  0
   -1.2491   20.3356   16.3179 C   0  0  0  0  0  0
   -2.0429   20.9169   17.3045 C   0  0  0  0  0  0
   -3.3132   21.4043   16.9859 C   0  0  0  0  0  0
    0.2606   30.0341    8.5803 C   0  0  0  0  0  0
    0.9919   30.6611    7.5777 C   0  0  0  0  0  0
    2.3064   30.2791    7.3344 C   0  0  0  0  0  0
    2.9179   29.2977    8.1123 C   0  0  0  0  0  0
    2.1875   28.6991    9.1404 C   0  0  0  0  0  0
    4.3527   28.8748    7.8082 C   0  0  0  0  0  0
    4.5037   28.6495    6.5023 F   0  0  0  0  0  0
    5.1733   29.8519    8.1760 F   0  0  0  0  0  0
    4.7092   27.7683    8.4610 F   0  0  0  0  0  0
   -1.5474   21.0509   18.5725 O   0  0  0  0  0  0
   -1.3697   29.8916   10.7848 H   0  0  0  0  0  0
   -2.7146   28.6269   12.3629 H   0  0  0  0  0  0
    1.2146   26.5133   10.2296 H   0  0  0  0  0  0
   -0.4807   23.3353   13.4931 H   0  0  0  0  0  0
    2.3146   25.9257   12.1330 H   0  0  0  0  0  0
   -4.3406   24.5939   13.5661 H   0  0  0  0  0  0
   -5.9947   23.9256   14.8106 H   0  0  0  0  0  0
   -5.3308   21.7201   14.2483 H   0  0  0  0  0  0
   -5.8916   21.6225   15.8622 H   0  0  0  0  0  0
   -6.8530   23.3995   19.3891 H   0  0  0  0  0  0
   -5.1427   23.8340   19.4454 H   0  0  0  0  0  0
   -6.3443   25.0344   18.9591 H   0  0  0  0  0  0
   -3.3038   20.7124   13.6565 H   0  0  0  0  0  0
   -1.1026   19.8264   14.2337 H   0  0  0  0  0  0
   -0.2657   19.9548   16.5489 H   0  0  0  0  0  0
   -3.9167   21.8519   17.7605 H   0  0  0  0  0  0
   -0.7726   30.3176    8.7118 H   0  0  0  0  0  0
    0.5323   31.4282    6.9760 H   0  0  0  0  0  0
    2.8574   30.7436    6.5322 H   0  0  0  0  0  0
    2.6771   27.9536    9.7484 H   0  0  0  0  0  0
   -0.7119   20.5840   18.6482 H   0  0  0  0  0  0
  1  2  2  0  0  0
  1  4  1  0  0  0
  1 11  1  0  0  0
  2  3  1  0  0  0
  2 40  1  0  0  0
  3  6  2  0  0  0
  3 41  1  0  0  0
  4  5  2  0  0  0
  4 42  1  0  0  0
  5  6  1  0  0  0
  5 10  1  0  0  0
  6  7  1  0  0  0
  7  8  2  0  0  0
  8  9  1  0  0  0
  8 15  1  0  0  0
  9 10  2  0  0  0
  9 43  1  0  0  0
 10 12  1  0  0  0
 11 30  2  0  0  0
 11 34  1  0  0  0
 12 13  2  0  0  0
 12 14  1  0  0  0
 14 44  1  0  0  0
 15 16  1  0  0  0
 15 17  2  0  0  0
 16 18  1  0  0  0
 16 45  1  0  0  0
 18 19  1  0  0  0
 18 20  1  0  0  0
 18 46  1  0  0  0
 19 22  1  0  0  0
 19 23  2  0  0  0
 20 21  1  0  0  0
 20 47  1  0  0  0
 20 48  1  0  0  0
 21 25  2  0  0  0
 21 29  1  0  0  0
 22 24  1  0  0  0
 24 49  1  0  0  0
 24 50  1  0  0  0
 24 51  1  0  0  0
 25 26  1  0  0  0
 25 52  1  0  0  0
 26 27  2  0  0  0
 26 53  1  0  0  0
 27 28  1  0  0  0
 27 54  1  0  0  0
 28 29  2  0  0  0
 28 39  1  0  0  0
 29 55  1  0  0  0
 30 31  1  0  0  0
 30 56  1  0  0  0
 31 32  2  0  0  0
 31 57  1  0  0  0
 32 33  1  0  0  0
 32 58  1  0  0  0
 33 34  2  0  0  0
 33 35  1  0  0  0
 34 59  1  0  0  0
 35 36  1  0  0  0
 35 37  1  0  0  0
 35 38  1  0  0  0
 39 60  1  0  0  0
M  END
> <s_m_entry_id>
32935

> <s_m_entry_name>
dock_pv.336

> <s_m_Source_Path>
/home/csk/Desktop/cluster/DUD-E-result/cdk2

> <s_m_Source_File>
dock_pv.maegz

> <i_m_Source_File_Index>
336

> <chembl_id>
CHEMBL3099745

> <chembl_pref_name>
None

> <i_lp_mmshare_version>
53161

> <i_f3d_flags>
0

> <r_lp_tautomer_probability>
0.999999999997365

> <s_lp_Force_Field>
OPLS_2005

> <r_lp_Energy>
29.180862

> <b_lp_Chiralities_Consistent>
1

> <s_lp_Variant>
CHEMBL301_lig1236-1

> <s_i_glide_gridfile>
glide-grid_1h00

> <i_i_glide_lignum>
1650

> <i_i_glide_rotatable_bonds>
12

> <r_i_docking_score>
-7.4298988594872

> <r_i_glide_ligand_efficiency>
-0.190510227166338

> <r_i_glide_ligand_efficiency_sa>
-0.646060461588755

> <r_i_glide_ligand_efficiency_ln>
-1.59318122569547

> <r_i_glide_gscore>
-7.4298988594872

> <r_i_glide_lipo>
-2.50528143974293

> <r_i_glide_hbond>
-0.651975439411148

> <r_i_glide_metal>
0

> <r_i_glide_rewards>
-0.818141218766942

> <r_i_glide_evdw>
-46.7844696044922

> <r_i_glide_ecoul>
-10.6031093597412

> <r_i_glide_erotb>
0.570101334643959

> <r_i_glide_esite>
-0.09491221202435

> <r_i_glide_emodel>
-79.3782626227773

> <r_i_glide_energy>
-57.3875789642334

> <r_i_glide_einternal>
9.41876602172852

> <i_i_glide_confnum>
22

> <i_i_glide_posenum>
371

> <r_i_glide_eff_state_penalty>
0

> <s_user_duplicate_titles>
CHEMBL301_lig1236

> <s_m_subgroup_title>
dock_pv

> <s_m_subgroupid>
dock_pv

> <b_m_subgroup_collapsed>
1

$$$$
CHEMBL301_lig688
                    3D
 Schrodinger Suite 2021-1.
 36 38  0  0  1  0            999 V2000
    0.7178   30.3549    8.1699 C   0  0  0  0  0  0
    0.0277   31.5340    8.3874 C   0  0  0  0  0  0
    0.7111   32.4476    7.6303 N   0  0  0  0  0  0
    1.7547   31.9240    6.9760 N   0  0  0  0  0  0
    1.8215   30.6760    7.3760 C   0  0  0  0  0  0
    2.8580   29.8520    6.9882 N   0  0  0  0  0  0
    3.3649   28.8598    7.7530 C   0  0  0  0  0  0
    4.4021   27.9744    7.0978 C   0  0  0  0  0  0
    3.0298   28.6520    8.9227 O   0  0  0  0  0  0
   -1.1468   31.8808    9.2777 C   0  0  0  0  0  0
    4.4580   27.8239    5.7018 C   0  0  0  0  0  0
    5.3341   26.9068    5.1279 C   0  0  0  0  0  0
    6.1730   26.1494    5.9419 C   0  0  0  0  0  0
    6.1391   26.2963    7.3249 C   0  0  0  0  0  0
    5.2580   27.2069    7.8983 C   0  0  0  0  0  0
    7.3823   24.9059    5.1609 Br  0  0  0  0  0  0
   -1.4899   30.7270   10.2119 C   0  0  0  0  0  0
   -0.5180   30.2067   11.0760 C   0  0  0  0  0  0
   -0.7814   29.0822   11.8470 C   0  0  0  0  0  0
   -2.0383   28.4967   11.7760 C   0  0  0  0  0  0
   -3.0320   29.0520   10.9760 C   0  0  0  0  0  0
   -2.7595   30.1562   10.1760 C   0  0  0  0  0  0
    0.5012   29.3919    8.6081 H   0  0  0  0  0  0
    0.4580   33.4234    7.5384 H   0  0  0  0  0  0
    3.4587   30.2119    6.2564 H   0  0  0  0  0  0
   -0.8921   32.7422    9.8966 H   0  0  0  0  0  0
   -2.0143   32.1735    8.6844 H   0  0  0  0  0  0
    3.8032   28.3822    5.0483 H   0  0  0  0  0  0
    5.3677   26.7837    4.0552 H   0  0  0  0  0  0
    6.7882   25.7048    7.9533 H   0  0  0  0  0  0
    5.2295   27.2917    8.9760 H   0  0  0  0  0  0
    0.4580   30.6520   11.1344 H   0  0  0  0  0  0
   -0.0198   28.6714   12.4941 H   0  0  0  0  0  0
   -2.2648   27.6360   12.3879 H   0  0  0  0  0  0
   -4.0211   28.6231   10.9760 H   0  0  0  0  0  0
   -3.5306   30.5579    9.5353 H   0  0  0  0  0  0
  1  2  2  0  0  0
  1  5  1  0  0  0
  1 23  1  0  0  0
  2  3  1  0  0  0
  2 10  1  0  0  0
  3  4  1  0  0  0
  3 24  1  0  0  0
  4  5  2  0  0  0
  5  6  1  0  0  0
  6  7  1  0  0  0
  6 25  1  0  0  0
  7  8  1  0  0  0
  7  9  2  0  0  0
  8 11  2  0  0  0
  8 15  1  0  0  0
 10 17  1  0  0  0
 10 26  1  0  0  0
 10 27  1  0  0  0
 11 12  1  0  0  0
 11 28  1  0  0  0
 12 13  2  0  0  0
 12 29  1  0  0  0
 13 14  1  0  0  0
 13 16  1  0  0  0
 14 15  2  0  0  0
 14 30  1  0  0  0
 15 31  1  0  0  0
 17 18  2  0  0  0
 17 22  1  0  0  0
 18 19  1  0  0  0
 18 32  1  0  0  0
 19 20  2  0  0  0
 19 33  1  0  0  0
 20 21  1  0  0  0
 20 34  1  0  0  0
 21 22  2  0  0  0
 21 35  1  0  0  0
 22 36  1  0  0  0
M  END
> <s_m_entry_id>
32936

> <s_m_entry_name>
dock_pv.337

> <s_m_Source_Path>
/home/csk/Desktop/cluster/DUD-E-result/cdk2

> <s_m_Source_File>
dock_pv.maegz

> <i_m_Source_File_Index>
337

> <chembl_id>
CHEMBL420677

> <chembl_pref_name>
None

> <i_lp_mmshare_version>
53161

> <i_f3d_flags>
0

> <r_lp_tautomer_probability>
0.5

> <s_lp_Force_Field>
OPLS_2005

> <r_lp_Energy>
14.198672

> <b_lp_Chiralities_Consistent>
1

> <s_lp_Variant>
CHEMBL301_lig688-1

> <s_i_glide_gridfile>
glide-grid_1h00

> <i_i_glide_lignum>
960

> <i_i_glide_rotatable_bonds>
5

> <r_i_docking_score>
-7.42489944639067

> <r_i_glide_ligand_efficiency>
-0.337495429381394

> <r_i_glide_ligand_efficiency_sa>
-0.94567546606872

> <r_i_glide_ligand_efficiency_ln>
-1.8149162544856

> <r_i_glide_gscore>
-7.42489944639067

> <r_i_glide_lipo>
-2.47403029052367

> <r_i_glide_hbond>
-0.683610898238413

> <r_i_glide_metal>
0

> <r_i_glide_rewards>
-2.58861152139404

> <r_i_glide_evdw>
-31.7479934692383

> <r_i_glide_ecoul>
-4.0942645072937

> <r_i_glide_erotb>
0.527653687929084

> <r_i_glide_esite>
-0.00476107460766641

> <r_i_glide_emodel>
-50.7644622948982

> <r_i_glide_energy>
-35.842257976532

> <r_i_glide_einternal>
3.65604472160339

> <i_i_glide_confnum>
18

> <i_i_glide_posenum>
114

> <r_i_glide_eff_state_penalty>
0

> <s_user_duplicate_titles>
CHEMBL301_lig688

> <s_m_subgroup_title>
dock_pv

> <s_m_subgroupid>
dock_pv

> <b_m_subgroup_collapsed>
1

$$$$
CHEMBL301_lig1465
                    3D
 Schrodinger Suite 2021-1.
 39 40  0  0  1  0            999 V2000
    7.3597   25.6728    5.7307 C   0  0  0  0  0  0
    6.3530   25.6843    7.3200 S   0  0  0  0  0  0
    7.2581   26.0509    8.4145 O   0  0  0  0  0  0
    5.5868   24.4354    7.3761 O   0  0  0  0  0  0
    5.1541   27.0116    7.1642 C   0  0  0  0  0  0
    4.8580   27.5928    5.9300 C   0  0  0  0  0  0
    3.9582   28.6519    5.8668 C   0  0  0  0  0  0
    3.3200   29.1108    7.0170 C   0  0  0  0  0  0
    2.4580   30.2112    6.8874 N   0  0  0  0  0  0
    1.3960   30.6609    7.6702 C   0  0  0  0  0  0
    0.9592   31.9205    7.4279 N   0  0  0  0  0  0
   -0.0948   32.3437    8.1760 C   0  0  0  0  0  0
   -0.7552   31.5178    9.0950 C   0  0  0  0  0  0
   -0.2022   30.2452    9.3029 C   0  0  0  0  0  0
   -0.7190   29.3854   10.2564 O   0  0  0  0  0  0
   -0.0465   28.1511   10.5491 C   0  0  0  0  0  0
   -0.3952   27.6302   11.9299 C   0  0  0  0  0  0
   -1.1422   28.2697   12.8432 C   0  0  0  0  0  0
    0.8698   29.8223    8.5857 N   0  0  0  0  0  0
   -2.0053   32.0035    9.8131 C   0  0  0  0  0  0
   -3.0497   31.7486    9.0275 F   0  0  0  0  0  0
   -2.1986   31.3943   10.9760 F   0  0  0  0  0  0
   -1.9420   33.3149   10.0432 F   0  0  0  0  0  0
    3.6146   28.5264    8.2490 C   0  0  0  0  0  0
    4.5298   27.4835    8.3184 C   0  0  0  0  0  0
    8.1371   24.9166    5.8278 H   0  0  0  0  0  0
    6.7096   25.4222    4.8946 H   0  0  0  0  0  0
    7.8142   26.6520    5.5923 H   0  0  0  0  0  0
    5.3354   27.2600    5.0218 H   0  0  0  0  0  0
    3.7615   29.1186    4.9187 H   0  0  0  0  0  0
    2.7650   30.8762    6.1926 H   0  0  0  0  0  0
   -0.4399   33.3491    7.9717 H   0  0  0  0  0  0
    1.0402   28.2538   10.5308 H   0  0  0  0  0  0
   -0.3296   27.4039    9.8059 H   0  0  0  0  0  0
    0.0102   26.6601   12.1773 H   0  0  0  0  0  0
   -1.5712   29.2435   12.6476 H   0  0  0  0  0  0
   -1.3464   27.8279   13.8069 H   0  0  0  0  0  0
    3.1657   28.8881    9.1619 H   0  0  0  0  0  0
    4.7541   27.0525    9.2793 H   0  0  0  0  0  0
  1  2  1  0  0  0
  1 26  1  0  0  0
  1 27  1  0  0  0
  1 28  1  0  0  0
  2  3  2  0  0  0
  2  4  2  0  0  0
  2  5  1  0  0  0
  5  6  2  0  0  0
  5 25  1  0  0  0
  6  7  1  0  0  0
  6 29  1  0  0  0
  7  8  2  0  0  0
  7 30  1  0  0  0
  8  9  1  0  0  0
  8 24  1  0  0  0
  9 10  1  0  0  0
  9 31  1  0  0  0
 10 11  2  0  0  0
 10 19  1  0  0  0
 11 12  1  0  0  0
 12 13  2  0  0  0
 12 32  1  0  0  0
 13 14  1  0  0  0
 13 20  1  0  0  0
 14 15  1  0  0  0
 14 19  2  0  0  0
 15 16  1  0  0  0
 16 17  1  0  0  0
 16 33  1  0  0  0
 16 34  1  0  0  0
 17 18  2  0  0  0
 17 35  1  0  0  0
 18 36  1  0  0  0
 18 37  1  0  0  0
 20 21  1  0  0  0
 20 22  1  0  0  0
 20 23  1  0  0  0
 24 25  2  0  0  0
 24 38  1  0  0  0
 25 39  1  0  0  0
M  END
> <s_m_entry_id>
32937

> <s_m_entry_name>
dock_pv.338

> <s_m_Source_Path>
/home/csk/Desktop/cluster/DUD-E-result/cdk2

> <s_m_Source_File>
dock_pv.maegz

> <i_m_Source_File_Index>
338

> <chembl_id>
CHEMBL3644030

> <chembl_pref_name>
None

> <i_lp_mmshare_version>
53161

> <i_f3d_flags>
0

> <r_lp_tautomer_probability>
0.999999917912647

> <s_lp_Force_Field>
OPLS_2005

> <r_lp_Energy>
-1.067124

> <b_lp_Chiralities_Consistent>
1

> <s_lp_Variant>
CHEMBL301_lig1465-1

> <s_i_glide_gridfile>
glide-grid_1h00

> <i_i_glide_lignum>
1978

> <i_i_glide_rotatable_bonds>
7

> <r_i_docking_score>
-7.42466296592987

> <r_i_glide_ligand_efficiency>
-0.296986518637195

> <r_i_glide_ligand_efficiency_sa>
-0.868393847573492

> <r_i_glide_ligand_efficiency_ln>
-1.75986762211988

> <r_i_glide_gscore>
-7.42466296592987

> <r_i_glide_lipo>
-2.42443618119795

> <r_i_glide_hbond>
-0.14817809543898

> <r_i_glide_metal>
0

> <r_i_glide_rewards>
-2.48688073414489

> <r_i_glide_evdw>
-38.2265014648438

> <r_i_glide_ecoul>
-7.17520570755005

> <r_i_glide_erotb>
0.693162595464001

> <r_i_glide_esite>
-0.070724621237347

> <r_i_glide_emodel>
-62.7329062242214

> <r_i_glide_energy>
-45.4017071723938

> <r_i_glide_einternal>
6.09505224227905

> <i_i_glide_confnum>
4

> <i_i_glide_posenum>
166

> <r_i_glide_eff_state_penalty>
0

> <s_user_duplicate_titles>
CHEMBL301_lig1465

> <s_m_subgroup_title>
dock_pv

> <s_m_subgroupid>
dock_pv

> <b_m_subgroup_collapsed>
1

$$$$
CHEMBL301_lig1352
                    3D
 Schrodinger Suite 2021-1.
 42 43  0  0  1  0            999 V2000
   -1.2036   25.1943   10.5838 C   0  0  0  0  0  0
   -1.3947   26.6253   11.1131 C   0  0  0  0  0  0
   -0.4564   27.6666   10.4577 C   0  0  2  0  0  0
    0.9270   27.6356   11.1275 C   0  0  0  0  0  0
   -1.1769   29.3398   10.4725 S   0  0  0  0  0  0
   -0.3483   30.3767    9.2883 C   0  0  0  0  0  0
    0.6881   29.8522    8.5759 N   0  0  0  0  0  0
    1.3069   30.6750    7.6838 C   0  0  0  0  0  0
    2.4012   30.2244    6.9367 N   0  0  0  0  0  0
    3.2580   29.1248    7.0727 C   0  0  0  0  0  0
    3.9185   28.6520    5.9368 C   0  0  0  0  0  0
    4.8216   27.5958    6.0334 C   0  0  0  0  0  0
    5.0639   27.0069    7.2753 C   0  0  0  0  0  0
    4.4054   27.4876    8.4088 C   0  0  0  0  0  0
    3.5236   28.5544    8.3128 C   0  0  0  0  0  0
    6.1788   25.6068    7.4208 S   0  0  1  0  0  0
    7.1033   25.9950    8.5760 N   0  0  0  0  0  0
    5.3949   24.3695    7.3759 O   0  0  0  0  0  0
    7.3664   25.6690    5.9647 C   0  0  0  0  0  0
    0.9588   31.9622    7.4361 N   0  0  0  0  0  0
   -0.0602   32.4686    8.1760 C   0  0  0  0  0  0
   -0.7600   31.7080    9.1124 C   0  0  0  0  0  0
   -2.1894   32.5054   10.0950 Br  0  0  0  0  0  0
   -1.8981   24.5090   11.0702 H   0  0  0  0  0  0
   -0.1929   24.8285   10.7663 H   0  0  0  0  0  0
   -1.3909   25.1418    9.5105 H   0  0  0  0  0  0
   -2.4361   26.9101   10.9760 H   0  0  0  0  0  0
   -1.2535   26.6300   12.1952 H   0  0  0  0  0  0
   -0.3328   27.4082    9.4046 H   0  0  0  0  0  0
    1.3804   26.6454   11.0844 H   0  0  0  0  0  0
    1.6171   28.3269   10.6550 H   0  0  0  0  0  0
    0.8579   27.9240   12.1762 H   0  0  0  0  0  0
    2.7669   30.9222    6.3041 H   0  0  0  0  0  0
    3.7447   29.1111    4.9762 H   0  0  0  0  0  0
    5.3215   27.2462    5.1425 H   0  0  0  0  0  0
    4.5706   27.0520    9.3757 H   0  0  0  0  0  0
    3.0645   28.9443    9.2050 H   0  0  0  0  0  0
    6.6059   25.9852    9.4683 H   0  0  0  0  0  0
    7.8329   26.6519    5.9281 H   0  0  0  0  0  0
    8.1280   24.9047    6.1098 H   0  0  0  0  0  0
    6.8178   25.4723    5.0452 H   0  0  0  0  0  0
   -0.3249   33.4996    7.9906 H   0  0  0  0  0  0
  1  2  1  0  0  0
  1 24  1  0  0  0
  1 25  1  0  0  0
  1 26  1  0  0  0
  2  3  1  0  0  0
  2 27  1  0  0  0
  2 28  1  0  0  0
  3  4  1  0  0  0
  3  5  1  0  0  0
  3 29  1  0  0  0
  4 30  1  0  0  0
  4 31  1  0  0  0
  4 32  1  0  0  0
  5  6  1  0  0  0
  6  7  2  0  0  0
  6 22  1  0  0  0
  7  8  1  0  0  0
  8  9  1  0  0  0
  8 20  2  0  0  0
  9 10  1  0  0  0
  9 33  1  0  0  0
 10 11  2  0  0  0
 10 15  1  0  0  0
 11 12  1  0  0  0
 11 34  1  0  0  0
 12 13  2  0  0  0
 12 35  1  0  0  0
 13 14  1  0  0  0
 13 16  1  0  0  0
 14 15  2  0  0  0
 14 36  1  0  0  0
 15 37  1  0  0  0
 16 17  2  0  0  0
 16 18  2  0  0  0
 16 19  1  0  0  0
 17 38  1  0  0  0
 19 39  1  0  0  0
 19 40  1  0  0  0
 19 41  1  0  0  0
 20 21  1  0  0  0
 21 22  2  0  0  0
 21 42  1  0  0  0
 22 23  1  0  0  0
M  END
> <s_m_entry_id>
32938

> <s_m_entry_name>
dock_pv.339

> <s_m_Source_Path>
/home/csk/Desktop/cluster/DUD-E-result/cdk2

> <s_m_Source_File>
dock_pv.maegz

> <i_m_Source_File_Index>
339

> <chembl_id>
CHEMBL3648100

> <chembl_pref_name>
None

> <i_lp_mmshare_version>
53161

> <i_f3d_flags>
0

> <r_lp_tautomer_probability>
0.999999987636

> <s_lp_Force_Field>
OPLS_2005

> <r_lp_Energy>
2.058812

> <b_lp_Chiralities_Consistent>
1

> <s_lp_Variant>
CHEMBL301_lig1352-3

> <s_i_glide_gridfile>
glide-grid_1h00

> <i_i_glide_lignum>
1799

> <i_i_glide_rotatable_bonds>
6

> <r_i_docking_score>
-7.42405187972933

> <r_i_glide_ligand_efficiency>
-0.322784864336058

> <r_i_glide_ligand_efficiency_sa>
-0.917957216321766

> <r_i_glide_ligand_efficiency_ln>
-1.79520306209915

> <r_i_glide_gscore>
-7.42405187972933

> <r_i_glide_lipo>
-2.7483085709987

> <r_i_glide_hbond>
-0.33651084892196

> <r_i_glide_metal>
0

> <r_i_glide_rewards>
-1.57393344542064

> <r_i_glide_evdw>
-38.7087860107422

> <r_i_glide_ecoul>
-8.58432292938232

> <r_i_glide_erotb>
0.457788725556423

> <r_i_glide_esite>
0

> <r_i_glide_emodel>
-67.2264634061019

> <r_i_glide_energy>
-47.2931089401245

> <r_i_glide_einternal>
3.77750968933105

> <i_i_glide_confnum>
3

> <i_i_glide_posenum>
286

> <r_i_glide_eff_state_penalty>
0

> <s_user_duplicate_titles>
CHEMBL301_lig1352

> <s_m_subgroup_title>
dock_pv

> <s_m_subgroupid>
dock_pv

> <b_m_subgroup_collapsed>
1

$$$$
CHEMBL301_lig1383
                    3D
 Schrodinger Suite 2021-1.
 48 49  0  0  1  0            999 V2000
    5.2555   27.5792    3.9322 C   0  0  0  0  0  0
    5.2753   26.8898    5.1756 O   0  0  0  0  0  0
    4.5835   27.3980    6.2544 C   0  0  0  0  0  0
    3.9476   28.6502    6.2378 C   0  0  0  0  0  0
    3.2177   29.1068    7.3334 C   0  0  0  0  0  0
    2.4581   30.2757    7.1783 N   0  0  0  0  0  0
    1.2621   30.6952    7.7765 C   0  0  0  0  0  0
    0.8828   31.9691    7.5110 N   0  0  0  0  0  0
   -0.2090   32.4257    8.1762 C   0  0  0  0  0  0
   -0.9373   31.6326    9.0651 C   0  0  0  0  0  0
   -2.4353   32.3644    9.9921 Br  0  0  0  0  0  0
   -0.4996   30.3149    9.2557 C   0  0  0  0  0  0
   -1.1922   29.4753   10.1473 N   0  0  0  0  0  0
   -0.5689   28.3657   10.8881 C   0  0  2  0  0  0
   -0.2075   27.1677    9.9872 C   0  0  0  0  0  0
   -1.4329   27.9561   12.1135 C   0  0  1  0  0  0
   -0.8882   26.7969   12.9701 C   0  0  0  0  0  0
   -1.5420   29.0637   12.9760 O   0  0  0  0  0  0
    0.6021   29.8518    8.6113 N   0  0  0  0  0  0
    3.2179   28.3614    8.5110 C   0  0  0  0  0  0
    3.8035   27.1055    8.5307 C   0  0  0  0  0  0
    4.4581   26.6044    7.4050 C   0  0  0  0  0  0
    4.9893   24.8976    7.4912 S   0  0  1  0  0  0
    6.4790   25.0522    7.7760 N   0  0  0  0  0  0
    4.0612   24.1665    8.3622 O   0  0  0  0  0  0
    4.9552   24.1247    5.7750 C   0  0  0  0  0  0
    5.8628   27.0357    3.2083 H   0  0  0  0  0  0
    4.2417   27.6461    3.5332 H   0  0  0  0  0  0
    5.6691   28.5834    4.0252 H   0  0  0  0  0  0
    3.9640   29.2555    5.3492 H   0  0  0  0  0  0
    2.9287   30.9781    6.6215 H   0  0  0  0  0  0
   -0.4898   33.4518    7.9984 H   0  0  0  0  0  0
   -1.9119   29.9530   10.6736 H   0  0  0  0  0  0
    0.3769   28.7463   11.2809 H   0  0  0  0  0  0
    0.0895   26.2839   10.5499 H   0  0  0  0  0  0
   -1.0356   26.8860    9.3344 H   0  0  0  0  0  0
    0.6550   27.4070    9.3757 H   0  0  0  0  0  0
   -2.4391   27.7013   11.7745 H   0  0  0  0  0  0
   -0.9616   25.8428   12.4491 H   0  0  0  0  0  0
   -1.4491   26.6889   13.8996 H   0  0  0  0  0  0
    0.1582   26.9578   13.2354 H   0  0  0  0  0  0
   -2.4307   29.0520   13.3762 H   0  0  0  0  0  0
    2.6865   28.7001    9.3838 H   0  0  0  0  0  0
    3.6580   26.4765    9.3877 H   0  0  0  0  0  0
    6.6342   25.4783    8.6796 H   0  0  0  0  0  0
    5.7761   24.5191    5.1785 H   0  0  0  0  0  0
    5.0750   23.0496    5.8878 H   0  0  0  0  0  0
    3.9954   24.3439    5.3094 H   0  0  0  0  0  0
  1  2  1  0  0  0
  1 27  1  0  0  0
  1 28  1  0  0  0
  1 29  1  0  0  0
  2  3  1  0  0  0
  3  4  2  0  0  0
  3 22  1  0  0  0
  4  5  1  0  0  0
  4 30  1  0  0  0
  5  6  1  0  0  0
  5 20  2  0  0  0
  6  7  1  0  0  0
  6 31  1  0  0  0
  7  8  2  0  0  0
  7 19  1  0  0  0
  8  9  1  0  0  0
  9 10  2  0  0  0
  9 32  1  0  0  0
 10 11  1  0  0  0
 10 12  1  0  0  0
 12 13  1  0  0  0
 12 19  2  0  0  0
 13 14  1  0  0  0
 13 33  1  0  0  0
 14 15  1  0  0  0
 14 16  1  0  0  0
 14 34  1  0  0  0
 15 35  1  0  0  0
 15 36  1  0  0  0
 15 37  1  0  0  0
 16 17  1  0  0  0
 16 18  1  0  0  0
 16 38  1  0  0  0
 17 39  1  0  0  0
 17 40  1  0  0  0
 17 41  1  0  0  0
 18 42  1  0  0  0
 20 21  1  0  0  0
 20 43  1  0  0  0
 21 22  2  0  0  0
 21 44  1  0  0  0
 22 23  1  0  0  0
 23 24  2  0  0  0
 23 25  2  0  0  0
 23 26  1  0  0  0
 24 45  1  0  0  0
 26 46  1  0  0  0
 26 47  1  0  0  0
 26 48  1  0  0  0
M  END
> <s_m_entry_id>
32939

> <s_m_entry_name>
dock_pv.340

> <s_m_Source_Path>
/home/csk/Desktop/cluster/DUD-E-result/cdk2

> <s_m_Source_File>
dock_pv.maegz

> <i_m_Source_File_Index>
340

> <chembl_id>
CHEMBL3648111

> <chembl_pref_name>
None

> <i_lp_mmshare_version>
53161

> <i_f3d_flags>
0

> <r_lp_tautomer_probability>
0.999999624730965

> <s_lp_Force_Field>
OPLS_2005

> <r_lp_Energy>
15.479059

> <b_lp_Chiralities_Consistent>
1

> <s_lp_Variant>
CHEMBL301_lig1383-2

> <s_i_glide_gridfile>
glide-grid_1h00

> <i_i_glide_lignum>
1865

> <i_i_glide_rotatable_bonds>
8

> <r_i_docking_score>
-7.42016853543016

> <r_i_glide_ligand_efficiency>
-0.285391097516544

> <r_i_glide_ligand_efficiency_sa>
-0.84547000343302

> <r_i_glide_ligand_efficiency_ln>
-1.74260223298693

> <r_i_glide_gscore>
-7.42016853543016

> <r_i_glide_lipo>
-2.75452623342577

> <r_i_glide_hbond>
-0.411211685225834

> <r_i_glide_metal>
0

> <r_i_glide_rewards>
-1.70987876855285

> <r_i_glide_evdw>
-36.743579864502

> <r_i_glide_ecoul>
-8.09215545654297

> <r_i_glide_erotb>
0.506450463480838

> <r_i_glide_esite>
0

> <r_i_glide_emodel>
-63.6568635187854

> <r_i_glide_energy>
-44.8357353210449

> <r_i_glide_einternal>
6.18270301818848

> <i_i_glide_confnum>
44

> <i_i_glide_posenum>
25

> <r_i_glide_eff_state_penalty>
0

> <s_user_duplicate_titles>
CHEMBL301_lig1383

> <s_m_subgroup_title>
dock_pv

> <s_m_subgroupid>
dock_pv

> <b_m_subgroup_collapsed>
1

$$$$
CHEMBL301_lig1492
                    3D
 Schrodinger Suite 2021-1.
 49 51  0  0  1  0            999 V2000
    0.1480   26.1107   10.7738 C   0  0  0  0  0  0
    0.7538   27.3913   11.3759 C   0  0  0  0  0  0
    0.5007   28.5840   10.6310 O   0  0  0  0  0  0
   -0.7788   29.0831   10.4694 C   0  0  0  0  0  0
   -1.8627   28.5850   11.2064 C   0  0  0  0  0  0
   -3.1460   29.0521   10.9762 C   0  0  0  0  0  0
   -4.1995   28.4280   11.5506 F   0  0  0  0  0  0
   -3.3587   30.0991   10.0932 C   0  0  0  0  0  0
   -2.3006   30.6219    9.3769 C   0  0  0  0  0  0
   -1.0003   30.1187    9.5271 C   0  0  0  0  0  0
    0.0714   30.6843    8.6510 C   0  0  0  0  0  0
    1.1018   29.8523    8.3088 N   0  0  0  0  0  0
    2.0809   30.3528    7.5141 C   0  0  0  0  0  0
    3.2543   29.6287    7.2460 N   0  0  0  0  0  0
    3.7522   28.3562    7.5438 C   0  0  0  0  0  0
    3.2588   27.5601    8.5765 C   0  0  0  0  0  0
    3.6152   26.2133    8.6495 C   0  0  0  0  0  0
    2.9734   25.4015    9.5240 F   0  0  0  0  0  0
    4.5606   25.6884    7.7722 C   0  0  0  0  0  0
    5.1355   26.5069    6.7988 C   0  0  0  0  0  0
    6.1012   25.9246    5.7855 C   0  0  0  0  0  0
    5.1982   25.3403    4.2375 S   0  0  2  0  0  0
    4.8227   26.6446    3.5353 N   0  0  0  0  0  0
    4.2339   24.2924    4.5809 O   0  0  0  0  0  0
    6.5290   24.6507    3.1130 C   0  0  0  0  0  0
    4.7314   27.8396    6.6923 C   0  0  0  0  0  0
    2.0577   31.5987    6.9755 N   0  0  0  0  0  0
    1.0768   32.4359    7.3759 C   0  0  0  0  0  0
    0.0578   32.0248    8.2150 C   0  0  0  0  0  0
   -0.8646   32.9280    8.6214 F   0  0  0  0  0  0
    0.4149   25.2428   11.3769 H   0  0  0  0  0  0
   -0.9375   26.1339   10.6992 H   0  0  0  0  0  0
    0.5393   25.9392    9.7758 H   0  0  0  0  0  0
    1.8371   27.2699   11.3765 H   0  0  0  0  0  0
    0.4585   27.5205   12.4182 H   0  0  0  0  0  0
   -1.7456   27.7999   11.9352 H   0  0  0  0  0  0
   -4.3421   30.4934    9.9234 H   0  0  0  0  0  0
   -2.5342   31.3868    8.6530 H   0  0  0  0  0  0
    3.8873   30.1771    6.6690 H   0  0  0  0  0  0
    2.5092   27.9403    9.2480 H   0  0  0  0  0  0
    4.8105   24.6397    7.8276 H   0  0  0  0  0  0
    6.8487   26.6524    5.4733 H   0  0  0  0  0  0
    6.6253   25.0630    6.1957 H   0  0  0  0  0  0
    3.8849   26.5975    3.1650 H   0  0  0  0  0  0
    7.2890   25.4139    2.9524 H   0  0  0  0  0  0
    6.9625   23.7679    3.5787 H   0  0  0  0  0  0
    6.0587   24.3821    2.1675 H   0  0  0  0  0  0
    5.1262   28.4471    5.8892 H   0  0  0  0  0  0
    1.1093   33.4505    7.0088 H   0  0  0  0  0  0
  1  2  1  0  0  0
  1 31  1  0  0  0
  1 32  1  0  0  0
  1 33  1  0  0  0
  2  3  1  0  0  0
  2 34  1  0  0  0
  2 35  1  0  0  0
  3  4  1  0  0  0
  4  5  2  0  0  0
  4 10  1  0  0  0
  5  6  1  0  0  0
  5 36  1  0  0  0
  6  7  1  0  0  0
  6  8  2  0  0  0
  8  9  1  0  0  0
  8 37  1  0  0  0
  9 10  2  0  0  0
  9 38  1  0  0  0
 10 11  1  0  0  0
 11 12  2  0  0  0
 11 29  1  0  0  0
 12 13  1  0  0  0
 13 14  1  0  0  0
 13 27  2  0  0  0
 14 15  1  0  0  0
 14 39  1  0  0  0
 15 16  2  0  0  0
 15 26  1  0  0  0
 16 17  1  0  0  0
 16 40  1  0  0  0
 17 18  1  0  0  0
 17 19  2  0  0  0
 19 20  1  0  0  0
 19 41  1  0  0  0
 20 21  1  0  0  0
 20 26  2  0  0  0
 21 22  1  0  0  0
 21 42  1  0  0  0
 21 43  1  0  0  0
 22 23  2  0  0  0
 22 24  2  0  0  0
 22 25  1  0  0  0
 23 44  1  0  0  0
 25 45  1  0  0  0
 25 46  1  0  0  0
 25 47  1  0  0  0
 26 48  1  0  0  0
 27 28  1  0  0  0
 28 29  2  0  0  0
 28 49  1  0  0  0
 29 30  1  0  0  0
M  END
> <s_m_entry_id>
32940

> <s_m_entry_name>
dock_pv.341

> <s_m_Source_Path>
/home/csk/Desktop/cluster/DUD-E-result/cdk2

> <s_m_Source_File>
dock_pv.maegz

> <i_m_Source_File_Index>
341

> <chembl_id>
CHEMBL3959867

> <chembl_pref_name>
None

> <i_lp_mmshare_version>
53161

> <i_f3d_flags>
0

> <r_lp_tautomer_probability>
0.999999987636

> <s_lp_Force_Field>
OPLS_2005

> <r_lp_Energy>
14.538763

> <b_lp_Chiralities_Consistent>
1

> <s_lp_Variant>
CHEMBL301_lig1492-1

> <s_i_glide_gridfile>
glide-grid_1h00

> <i_i_glide_lignum>
2024

> <i_i_glide_rotatable_bonds>
7

> <r_i_docking_score>
-7.41525806779152

> <r_i_glide_ligand_efficiency>
-0.247175268926384

> <r_i_glide_ligand_efficiency_sa>
-0.768031029405206

> <r_i_glide_ligand_efficiency_ln>
-1.68482742871011

> <r_i_glide_gscore>
-7.41525806779152

> <r_i_glide_lipo>
-2.45493483841242

> <r_i_glide_hbond>
-0.543335352072798

> <r_i_glide_metal>
0

> <r_i_glide_rewards>
-2.30648465082115

> <r_i_glide_evdw>
-29.3978633880615

> <r_i_glide_ecoul>
-6.33516550064087

> <r_i_glide_erotb>
0.439489613066893

> <r_i_glide_esite>
-0.129824845052848

> <r_i_glide_emodel>
-52.6957500735168

> <r_i_glide_energy>
-35.7330288887024

> <r_i_glide_einternal>
3.05519390106201

> <i_i_glide_confnum>
22

> <i_i_glide_posenum>
357

> <r_i_glide_eff_state_penalty>
0

> <s_user_duplicate_titles>
CHEMBL301_lig1492

> <s_m_subgroup_title>
dock_pv

> <s_m_subgroupid>
dock_pv

> <b_m_subgroup_collapsed>
1

$$$$
CHEMBL301_lig1156
                    3D
 Schrodinger Suite 2021-1.
 44 47  0  0  1  0            999 V2000
    3.8593   28.5534    5.8698 C   0  0  0  0  0  0
    4.6512   27.4136    6.0067 C   0  0  0  0  0  0
    4.8723   26.8686    7.2715 C   0  0  0  0  0  0
    4.2998   27.4662    8.3933 C   0  0  0  0  0  0
    3.5065   28.6011    8.2537 C   0  0  0  0  0  0
    3.2580   29.1376    6.9857 C   0  0  0  0  0  0
    5.3295   26.6650    4.6086 Cl  0  0  0  0  0  0
    2.4580   30.2770    6.7973 N   0  0  0  0  0  0
    1.3633   30.7354    7.5377 C   0  0  0  0  0  0
    0.9839   32.0298    7.3934 N   0  0  0  0  0  0
   -0.0589   32.4340    8.1760 C   0  0  0  0  0  0
   -0.7420   31.5696    9.0455 C   0  0  0  0  0  0
   -0.2779   30.2460    9.1248 C   0  0  0  0  0  0
    0.7681   29.8520    8.3625 N   0  0  0  0  0  0
   -0.8368   29.1681   10.0086 C   0  0  0  0  0  0
   -0.2890   27.8673   10.0087 C   0  0  0  0  0  0
   -0.8380   26.8396   10.7846 C   0  0  0  0  0  0
   -1.9245   27.0785   11.5664 N   0  0  0  0  0  0
   -2.4431   28.3291   11.5898 C   0  0  0  0  0  0
   -1.9387   29.3885   10.8407 C   0  0  0  0  0  0
   -0.3841   25.5197   10.6868 N   0  0  0  0  0  0
    0.9519   25.1247   10.2001 C   0  0  0  0  0  0
    1.9004   24.8954   11.3932 C   0  0  0  0  0  0
    1.3698   23.8545   12.2138 O   0  0  0  0  0  0
    0.0580   24.1499   12.7021 C   0  0  0  0  0  0
   -0.8903   24.4077   11.5119 C   0  0  0  0  0  0
    3.6989   28.9727    4.8913 H   0  0  0  0  0  0
    5.4823   25.9844    7.3847 H   0  0  0  0  0  0
    4.4580   27.0520    9.3760 H   0  0  0  0  0  0
    3.0847   29.0521    9.1387 H   0  0  0  0  0  0
    2.9422   30.9941    6.2690 H   0  0  0  0  0  0
   -0.3559   33.4683    8.0745 H   0  0  0  0  0  0
   -1.5706   31.9292    9.6359 H   0  0  0  0  0  0
    0.5531   27.6526    9.3760 H   0  0  0  0  0  0
   -3.3343   28.4695   12.1760 H   0  0  0  0  0  0
   -2.4276   30.3495   10.9009 H   0  0  0  0  0  0
    1.3933   25.8307    9.5020 H   0  0  0  0  0  0
    0.8629   24.2022    9.6267 H   0  0  0  0  0  0
    2.8855   24.6013   11.0342 H   0  0  0  0  0  0
    2.0386   25.8125   11.9688 H   0  0  0  0  0  0
   -0.2971   23.3011   13.2865 H   0  0  0  0  0  0
    0.0790   25.0089   13.3757 H   0  0  0  0  0  0
   -0.9517   23.5055   10.9049 H   0  0  0  0  0  0
   -1.9100   24.5889   11.8527 H   0  0  0  0  0  0
  1  2  2  0  0  0
  1  6  1  0  0  0
  1 27  1  0  0  0
  2  7  1  0  0  0
  2  3  1  0  0  0
  3  4  2  0  0  0
  3 28  1  0  0  0
  4  5  1  0  0  0
  4 29  1  0  0  0
  5  6  2  0  0  0
  5 30  1  0  0  0
  6  8  1  0  0  0
  8  9  1  0  0  0
  8 31  1  0  0  0
  9 14  1  0  0  0
  9 10  2  0  0  0
 10 11  1  0  0  0
 11 12  2  0  0  0
 11 32  1  0  0  0
 12 13  1  0  0  0
 12 33  1  0  0  0
 13 14  2  0  0  0
 13 15  1  0  0  0
 15 16  2  0  0  0
 15 20  1  0  0  0
 16 17  1  0  0  0
 16 34  1  0  0  0
 17 18  2  0  0  0
 17 21  1  0  0  0
 18 19  1  0  0  0
 19 20  2  0  0  0
 19 35  1  0  0  0
 20 36  1  0  0  0
 21 22  1  0  0  0
 21 26  1  0  0  0
 22 23  1  0  0  0
 22 37  1  0  0  0
 22 38  1  0  0  0
 23 24  1  0  0  0
 23 39  1  0  0  0
 23 40  1  0  0  0
 24 25  1  0  0  0
 25 26  1  0  0  0
 25 41  1  0  0  0
 25 42  1  0  0  0
 26 43  1  0  0  0
 26 44  1  0  0  0
M  END
> <s_m_entry_id>
32941

> <s_m_entry_name>
dock_pv.342

> <s_m_Source_Path>
/home/csk/Desktop/cluster/DUD-E-result/cdk2

> <s_m_Source_File>
dock_pv.maegz

> <i_m_Source_File_Index>
342

> <chembl_id>
CHEMBL2158844

> <chembl_pref_name>
None

> <i_lp_mmshare_version>
53161

> <i_f3d_flags>
0

> <r_lp_tautomer_probability>
0.999999987636

> <s_lp_Force_Field>
OPLS_2005

> <r_lp_Energy>
17.65887

> <b_lp_Chiralities_Consistent>
1

> <s_lp_Variant>
CHEMBL301_lig1156-1

> <s_i_glide_gridfile>
glide-grid_1h00

> <i_i_glide_lignum>
1568

> <i_i_glide_rotatable_bonds>
4

> <r_i_docking_score>
-7.41383359303544

> <r_i_glide_ligand_efficiency>
-0.285147445885979

> <r_i_glide_ligand_efficiency_sa>
-0.844748186436191

> <r_i_glide_ligand_efficiency_ln>
-1.74111449255217

> <r_i_glide_gscore>
-7.41383359303544

> <r_i_glide_lipo>
-2.76548505533227

> <r_i_glide_hbond>
-0.235419382183618

> <r_i_glide_metal>
0

> <r_i_glide_rewards>
-2.25737487141744

> <r_i_glide_evdw>
-38.9607200622559

> <r_i_glide_ecoul>
-5.18006324768066

> <r_i_glide_erotb>
0.56949120616278

> <r_i_glide_esite>
0

> <r_i_glide_emodel>
-64.3911550428028

> <r_i_glide_energy>
-44.1407833099365

> <r_i_glide_einternal>
1.83855426311493

> <i_i_glide_confnum>
68

> <i_i_glide_posenum>
1

> <r_i_glide_eff_state_penalty>
0

> <s_user_duplicate_titles>
CHEMBL301_lig1156

> <s_m_subgroup_title>
dock_pv

> <s_m_subgroupid>
dock_pv

> <b_m_subgroup_collapsed>
1

$$$$
CHEMBL301_lig241
                    3D
 Schrodinger Suite 2021-1.
 48 51  0  0  1  0            999 V2000
    0.0898   29.9454    9.1728 C   0  0  0  0  0  0
   -0.0345   31.2110    8.5767 C   0  0  0  0  0  0
    2.1715   29.6047    8.0342 C   0  0  0  0  0  0
    1.2275   29.1686    8.9349 O   0  0  0  0  0  0
   -0.9377   29.4457   10.0103 C   0  0  0  0  0  0
    0.9916   31.6761    7.6111 C   0  0  0  0  0  0
    2.0519   30.7640    7.3758 C   0  0  0  0  0  0
   -1.0883   32.0380    8.9757 C   0  0  0  0  0  0
   -2.0440   30.2588   10.2756 C   0  0  0  0  0  0
   -0.9218   28.0087   10.5675 C   0  0  2  0  0  0
   -2.0918   31.5614    9.8052 C   0  0  0  0  0  0
    3.2581   28.6477    7.6712 C   0  0  0  0  0  0
    0.1871   27.7218   11.6074 C   0  0  2  0  0  0
    0.6046   25.4955   10.5539 N   0  0  2  0  0  0
   -0.9420   27.0329    9.3914 C   0  0  0  0  0  0
    0.4391   26.2075   11.8217 C   0  0  0  0  0  0
    0.9873   32.7817    7.0949 O   0  0  0  0  0  0
    3.7984   27.6997    8.5595 C   0  0  0  0  0  0
   -0.6240   25.5781    9.7716 C   0  0  0  0  0  0
   -1.1425   33.3409    8.5764 O   0  0  0  0  0  0
   -3.1131   29.7723   10.9749 O   0  0  0  0  0  0
   -0.0800   28.3319   12.8506 O   0  0  0  0  0  0
    3.2580   27.5513   10.1838 Cl  0  0  0  0  0  0
    3.7670   28.6520    6.3535 C   0  0  0  0  0  0
    1.0277   24.1145   10.7547 C   0  0  0  0  0  0
    4.7890   26.8110    8.1354 C   0  0  0  0  0  0
    4.7679   27.7770    5.9419 C   0  0  0  0  0  0
    5.2810   26.8504    6.8370 C   0  0  0  0  0  0
    2.7987   31.0558    6.6599 H   0  0  0  0  0  0
   -1.8540   27.7999   11.0927 H   0  0  0  0  0  0
   -2.9257   32.2006   10.0582 H   0  0  0  0  0  0
    1.0937   28.2010   11.2648 H   0  0  0  0  0  0
   -0.3631   27.4525    8.5761 H   0  0  0  0  0  0
   -1.9412   26.9827    8.9768 H   0  0  0  0  0  0
   -0.3577   25.7406   12.4046 H   0  0  0  0  0  0
    1.3618   26.0822   12.3819 H   0  0  0  0  0  0
   -1.4560   25.0880   10.2820 H   0  0  0  0  0  0
   -0.4716   25.0389    8.8425 H   0  0  0  0  0  0
   -0.4049   33.5682    7.9924 H   0  0  0  0  0  0
   -3.4774   30.3792   11.6474 H   0  0  0  0  0  0
    0.7228   28.2566   13.3763 H   0  0  0  0  0  0
    3.3853   29.3329    5.6084 H   0  0  0  0  0  0
    0.2636   23.5271   11.2663 H   0  0  0  0  0  0
    1.2497   23.6400    9.7973 H   0  0  0  0  0  0
    1.9418   24.0771   11.3486 H   0  0  0  0  0  0
    5.1776   26.0716    8.8155 H   0  0  0  0  0  0
    5.1429   27.8157    4.9293 H   0  0  0  0  0  0
    6.0533   26.1628    6.5242 H   0  0  0  0  0  0
  1  2  2  0  0  0
  1  4  1  0  0  0
  1  5  1  0  0  0
  2  6  1  0  0  0
  2  8  1  0  0  0
  3  4  1  0  0  0
  3  7  2  0  0  0
  3 12  1  0  0  0
  5  9  2  0  0  0
  5 10  1  0  0  0
  6 17  2  0  0  0
  6  7  1  0  0  0
  7 29  1  0  0  0
  8 20  1  0  0  0
  8 11  2  0  0  0
  9 11  1  0  0  0
  9 21  1  0  0  0
 10 13  1  0  0  0
 10 15  1  0  0  0
 10 30  1  0  0  0
 11 31  1  0  0  0
 12 18  2  0  0  0
 12 24  1  0  0  0
 13 16  1  0  0  0
 13 22  1  0  0  0
 13 32  1  0  0  0
 14 19  1  0  0  0
 14 25  1  0  0  0
 14 16  1  0  0  0
 15 19  1  0  0  0
 15 33  1  0  0  0
 15 34  1  0  0  0
 16 35  1  0  0  0
 16 36  1  0  0  0
 18 23  1  0  0  0
 18 26  1  0  0  0
 19 37  1  0  0  0
 19 38  1  0  0  0
 20 39  1  0  0  0
 21 40  1  0  0  0
 22 41  1  0  0  0
 24 27  2  0  0  0
 24 42  1  0  0  0
 25 43  1  0  0  0
 25 44  1  0  0  0
 25 45  1  0  0  0
 26 28  2  0  0  0
 26 46  1  0  0  0
 27 28  1  0  0  0
 27 47  1  0  0  0
 28 48  1  0  0  0
M  END
> <s_m_entry_id>
32942

> <s_m_entry_name>
dock_pv.343

> <s_m_Source_Path>
/home/csk/Desktop/cluster/DUD-E-result/cdk2

> <s_m_Source_File>
dock_pv.maegz

> <i_m_Source_File_Index>
343

> <chembl_id>
CHEMBL418203

> <chembl_pref_name>
None

> <i_lp_mmshare_version>
53161

> <i_f3d_flags>
0

> <r_lp_tautomer_probability>
1

> <s_lp_Force_Field>
OPLS_2005

> <r_lp_Energy>
35.398058

> <b_lp_Chiralities_Consistent>
1

> <s_lp_Variant>
CHEMBL301_lig241-1

> <s_i_glide_gridfile>
glide-grid_1h00

> <i_i_glide_lignum>
383

> <i_i_glide_rotatable_bonds>
5

> <r_i_docking_score>
-7.409293029298

> <r_i_glide_ligand_efficiency>
-0.264617608189214

> <r_i_glide_ligand_efficiency_sa>
-0.803534909898969

> <r_i_glide_ligand_efficiency_ln>
-1.7102823774583

> <r_i_glide_gscore>
-7.409293029298

> <r_i_glide_lipo>
-3.48149434642843

> <r_i_glide_hbond>
-0.492093201217577

> <r_i_glide_metal>
0

> <r_i_glide_rewards>
-0.984261364466

> <r_i_glide_evdw>
-22.6069889068604

> <r_i_glide_ecoul>
-10.427191734314

> <r_i_glide_erotb>
0.242984088304113

> <r_i_glide_esite>
0

> <r_i_glide_emodel>
-45.7180431586935

> <r_i_glide_energy>
-33.0341806411743

> <r_i_glide_einternal>
4.74076747894287

> <i_i_glide_confnum>
6

> <i_i_glide_posenum>
324

> <r_i_glide_eff_state_penalty>
0

> <s_user_duplicate_titles>
CHEMBL301_lig241,35542

> <s_m_subgroup_title>
dock_pv

> <s_m_subgroupid>
dock_pv

> <b_m_subgroup_collapsed>
1

$$$$
CHEMBL301_lig526
                    3D
 Schrodinger Suite 2021-1.
 44 47  0  0  1  0            999 V2000
   -0.0285   27.1977   11.6318 N   0  0  0  0  0  0
    5.3403   25.3234    4.7563 C   0  0  0  0  0  0
    5.9317   24.2336    5.3943 C   0  0  0  0  0  0
    6.3667   24.3512    6.7139 C   0  0  0  0  0  0
    6.2051   25.5563    7.3964 C   0  0  0  0  0  0
    5.6043   26.6565    6.7704 C   0  0  0  0  0  0
    5.1784   26.5336    5.4339 C   0  0  0  0  0  0
    5.4477   27.9591    7.5627 C   0  0  0  0  0  0
    4.0095   28.2049    8.0107 C   0  0  0  0  0  0
    3.4285   27.2853    8.5760 O   0  0  0  0  0  0
    3.4749   29.4113    7.7223 N   0  0  0  0  0  0
    2.1919   29.8635    8.0095 C   0  0  0  0  0  0
    0.4681   31.1157    7.7832 N   0  0  0  0  0  0
    1.7080   30.8707    7.3272 N   0  0  0  0  0  0
    0.1057   30.2509    8.7896 C   0  0  0  0  0  0
    1.2335   29.4141    8.9908 C   0  0  0  0  0  0
    1.1606   28.4372   10.0012 C   0  0  0  0  0  0
   -0.0150   28.2614   10.7150 C   0  0  0  0  0  0
   -1.1094   29.1056   10.4889 C   0  0  0  0  0  0
   -1.0695   30.1279    9.5381 C   0  0  0  0  0  0
   -0.3445   27.4547   13.0232 C   0  0  0  0  0  0
   -1.8500   27.2147   13.1982 C   0  0  0  0  0  0
   -2.3482   26.1683   12.1825 C   0  0  0  0  0  0
   -0.8287   25.6744   11.2081 S   0  0  0  0  0  0
   -1.1434   25.5811    9.7788 O   0  0  0  0  0  0
   -0.2451   24.5399   11.9325 O   0  0  0  0  0  0
    4.4572   27.8500    4.5790 Cl  0  0  0  0  0  0
    5.0078   25.2295    3.7330 H   0  0  0  0  0  0
    6.0549   23.3018    4.8619 H   0  0  0  0  0  0
    6.8293   23.5077    7.2052 H   0  0  0  0  0  0
    6.5318   25.6289    8.4237 H   0  0  0  0  0  0
    6.0583   27.9321    8.4626 H   0  0  0  0  0  0
    5.8113   28.7948    6.9741 H   0  0  0  0  0  0
    4.0242   30.0370    7.1433 H   0  0  0  0  0  0
   -0.0766   31.8698    7.3924 H   0  0  0  0  0  0
    1.9953   27.8031   10.2499 H   0  0  0  0  0  0
   -2.0211   28.9738   11.0427 H   0  0  0  0  0  0
   -1.9207   30.7736    9.3765 H   0  0  0  0  0  0
    0.2912   26.8786   13.6941 H   0  0  0  0  0  0
   -0.1377   28.5037   13.2515 H   0  0  0  0  0  0
   -2.0999   26.9579   14.2279 H   0  0  0  0  0  0
   -2.3421   28.1609   12.9878 H   0  0  0  0  0  0
   -2.7444   25.2799   12.6694 H   0  0  0  0  0  0
   -3.0876   26.5732   11.4936 H   0  0  0  0  0  0
  1 18  1  0  0  0
  1 21  1  0  0  0
  1 24  1  0  0  0
  2  3  2  0  0  0
  2  7  1  0  0  0
  2 28  1  0  0  0
  3  4  1  0  0  0
  3 29  1  0  0  0
  4  5  2  0  0  0
  4 30  1  0  0  0
  5  6  1  0  0  0
  5 31  1  0  0  0
  6  8  1  0  0  0
  6  7  2  0  0  0
  7 27  1  0  0  0
  8  9  1  0  0  0
  8 32  1  0  0  0
  8 33  1  0  0  0
  9 10  2  0  0  0
  9 11  1  0  0  0
 11 12  1  0  0  0
 11 34  1  0  0  0
 12 14  2  0  0  0
 12 16  1  0  0  0
 13 15  1  0  0  0
 13 14  1  0  0  0
 13 35  1  0  0  0
 15 16  2  0  0  0
 15 20  1  0  0  0
 16 17  1  0  0  0
 17 18  2  0  0  0
 17 36  1  0  0  0
 18 19  1  0  0  0
 19 20  2  0  0  0
 19 37  1  0  0  0
 20 38  1  0  0  0
 21 22  1  0  0  0
 21 39  1  0  0  0
 21 40  1  0  0  0
 22 23  1  0  0  0
 22 41  1  0  0  0
 22 42  1  0  0  0
 23 24  1  0  0  0
 23 43  1  0  0  0
 23 44  1  0  0  0
 24 25  2  0  0  0
 24 26  2  0  0  0
M  END
> <s_m_entry_id>
32943

> <s_m_entry_name>
dock_pv.344

> <s_m_Source_Path>
/home/csk/Desktop/cluster/DUD-E-result/cdk2

> <s_m_Source_File>
dock_pv.maegz

> <i_m_Source_File_Index>
344

> <chembl_id>
CHEMBL255463

> <chembl_pref_name>
None

> <i_lp_mmshare_version>
53161

> <i_f3d_flags>
0

> <r_lp_tautomer_probability>
0.980392156862745

> <s_lp_Force_Field>
OPLS_2005

> <r_lp_Energy>
21.570325

> <b_lp_Chiralities_Consistent>
1

> <s_lp_Variant>
CHEMBL301_lig526-1

> <s_i_glide_gridfile>
glide-grid_1h00

> <i_i_glide_lignum>
736

> <i_i_glide_rotatable_bonds>
5

> <r_i_docking_score>
-7.40851576069295

> <r_i_glide_ligand_efficiency>
-0.274389472618257

> <r_i_glide_ligand_efficiency_sa>
-0.823168416950429

> <r_i_glide_ligand_efficiency_ln>
-1.72458033016133

> <r_i_glide_gscore>
-7.40851576069295

> <r_i_glide_lipo>
-2.58966939768596

> <r_i_glide_hbond>
-0.32

> <r_i_glide_metal>
0

> <r_i_glide_rewards>
-2.10648873566597

> <r_i_glide_evdw>
-45.0384979248047

> <r_i_glide_ecoul>
-4.13244199752808

> <r_i_glide_erotb>
0.479433568528439

> <r_i_glide_esite>
0

> <r_i_glide_emodel>
-67.4796039896759

> <r_i_glide_energy>
-49.1709399223328

> <r_i_glide_einternal>
8.80332851409912

> <i_i_glide_confnum>
36

> <i_i_glide_posenum>
15

> <r_i_glide_eff_state_penalty>
0

> <s_user_duplicate_titles>
CHEMBL301_lig526,CHEMBL301_lig526,424690

> <s_m_subgroup_title>
dock_pv

> <s_m_subgroupid>
dock_pv

> <b_m_subgroup_collapsed>
1

$$$$
CHEMBL301_lig1328
                    3D
 Schrodinger Suite 2021-1.
 54 56  0  0  1  0            999 V2000
    2.3293   24.6462   12.0852 C   0  0  0  0  0  0
    0.8017   24.8734   12.1193 C   0  0  0  0  0  0
    0.2968   26.2789   11.6733 C   0  0  1  0  0  0
    1.1293   26.7887   10.5816 N   0  0  0  0  0  0
    1.0963   28.0551   10.0005 C   0  0  0  0  0  0
    2.2169   28.3031    9.2901 N   0  0  0  0  0  0
    2.2516   29.4109    8.5073 C   0  0  0  0  0  0
    3.4094   29.7066    7.7762 N   0  0  0  0  0  0
    4.6447   28.9395    7.9170 C   0  0  0  0  0  0
    4.5769   27.6461    7.1216 C   0  0  0  0  0  0
    4.5393   27.6592    5.7218 C   0  0  0  0  0  0
    4.4734   26.4520    5.0224 C   0  0  0  0  0  0
    4.4585   25.2610    5.7515 C   0  0  0  0  0  0
    4.5027   25.2243    7.1086 N   0  0  0  0  0  0
    4.5628   26.4078    7.7721 C   0  0  0  0  0  0
    1.1306   30.2515    8.4396 C   0  0  0  0  0  0
    0.8646   31.3771    7.7067 N   0  0  0  0  0  0
   -0.2786   31.7929    8.1801 C   0  0  0  0  0  0
   -0.8039   31.0115    9.2000 N   0  0  0  0  0  0
   -2.0030   31.2738   10.0089 C   0  0  0  0  0  0
   -3.2338   30.6067    9.3751 C   0  0  0  0  0  0
   -2.1992   32.7859   10.2525 C   0  0  0  0  0  0
    0.0645   29.9391    9.3160 C   0  0  0  0  0  0
    0.0066   28.8637   10.1139 N   0  0  0  0  0  0
   -1.2411   26.3025   11.4015 C   0  0  2  0  0  0
   -2.0966   25.7870   12.5689 C   0  0  0  0  0  0
   -1.5414   25.5436   10.2442 O   0  0  0  0  0  0
    2.5926   23.7099   12.5758 H   0  0  0  0  0  0
    2.6976   24.5897   11.0600 H   0  0  0  0  0  0
    2.8743   25.4517   12.5759 H   0  0  0  0  0  0
    0.4449   24.6788   13.1304 H   0  0  0  0  0  0
    0.3430   24.1052   11.4951 H   0  0  0  0  0  0
    0.4703   26.9557   12.5129 H   0  0  0  0  0  0
    2.0191   26.3283   10.4635 H   0  0  0  0  0  0
    3.4528   30.5696    7.2486 H   0  0  0  0  0  0
    5.4687   29.5475    7.5413 H   0  0  0  0  0  0
    4.8598   28.7370    8.9681 H   0  0  0  0  0  0
    4.5578   28.5967    5.1849 H   0  0  0  0  0  0
    4.4393   26.4384    3.9424 H   0  0  0  0  0  0
    4.4063   24.3075    5.2459 H   0  0  0  0  0  0
    4.5766   26.3506    8.8511 H   0  0  0  0  0  0
   -0.7750   32.7021    7.8758 H   0  0  0  0  0  0
   -1.8350   30.8146   10.9862 H   0  0  0  0  0  0
   -4.1354   30.8402    9.9422 H   0  0  0  0  0  0
   -3.1293   29.5217    9.3759 H   0  0  0  0  0  0
   -3.3933   30.9393    8.3482 H   0  0  0  0  0  0
   -3.0616   32.9694   10.8951 H   0  0  0  0  0  0
   -1.3299   33.2263   10.7405 H   0  0  0  0  0  0
   -2.3569   33.3369    9.3282 H   0  0  0  0  0  0
   -1.5756   27.3171   11.1977 H   0  0  0  0  0  0
   -1.8671   26.3247   13.4894 H   0  0  0  0  0  0
   -3.1558   25.9347   12.3642 H   0  0  0  0  0  0
   -1.9433   24.7235   12.7521 H   0  0  0  0  0  0
   -0.9432   25.8414    9.5531 H   0  0  0  0  0  0
  1  2  1  0  0  0
  1 28  1  0  0  0
  1 29  1  0  0  0
  1 30  1  0  0  0
  2  3  1  0  0  0
  2 31  1  0  0  0
  2 32  1  0  0  0
  3  4  1  0  0  0
  3 25  1  0  0  0
  3 33  1  0  0  0
  4  5  1  0  0  0
  4 34  1  0  0  0
  5  6  2  0  0  0
  5 24  1  0  0  0
  6  7  1  0  0  0
  7  8  1  0  0  0
  7 16  2  0  0  0
  8  9  1  0  0  0
  8 35  1  0  0  0
  9 10  1  0  0  0
  9 36  1  0  0  0
  9 37  1  0  0  0
 10 11  2  0  0  0
 10 15  1  0  0  0
 11 12  1  0  0  0
 11 38  1  0  0  0
 12 13  2  0  0  0
 12 39  1  0  0  0
 13 14  1  0  0  0
 13 40  1  0  0  0
 14 15  2  0  0  0
 15 41  1  0  0  0
 16 17  1  0  0  0
 16 23  1  0  0  0
 17 18  2  0  0  0
 18 19  1  0  0  0
 18 42  1  0  0  0
 19 20  1  0  0  0
 19 23  1  0  0  0
 20 21  1  0  0  0
 20 22  1  0  0  0
 20 43  1  0  0  0
 21 44  1  0  0  0
 21 45  1  0  0  0
 21 46  1  0  0  0
 22 47  1  0  0  0
 22 48  1  0  0  0
 22 49  1  0  0  0
 23 24  2  0  0  0
 25 26  1  0  0  0
 25 27  1  0  0  0
 25 50  1  0  0  0
 26 51  1  0  0  0
 26 52  1  0  0  0
 26 53  1  0  0  0
 27 54  1  0  0  0
M  END
> <s_m_entry_id>
32944

> <s_m_entry_name>
dock_pv.345

> <s_m_Source_Path>
/home/csk/Desktop/cluster/DUD-E-result/cdk2

> <s_m_Source_File>
dock_pv.maegz

> <i_m_Source_File_Index>
345

> <chembl_id>
CHEMBL1922218

> <chembl_pref_name>
None

> <i_lp_mmshare_version>
53161

> <i_f3d_flags>
0

> <r_lp_tautomer_probability>
1

> <s_lp_Force_Field>
OPLS_2005

> <r_lp_Energy>
21.26503

> <b_lp_Chiralities_Consistent>
1

> <s_lp_Variant>
CHEMBL301_lig1328-1

> <s_i_glide_gridfile>
glide-grid_1h00

> <i_i_glide_lignum>
1752

> <i_i_glide_rotatable_bonds>
9

> <r_i_docking_score>
-7.40520469021074

> <r_i_glide_ligand_efficiency>
-0.274266840378176

> <r_i_glide_ligand_efficiency_sa>
-0.822800520230588

> <r_i_glide_ligand_efficiency_ln>
-1.72380956754033

> <r_i_glide_gscore>
-7.40520469021074

> <r_i_glide_lipo>
-2.59226866911187

> <r_i_glide_hbond>
-0.249706091156372

> <r_i_glide_metal>
0

> <r_i_glide_rewards>
-2.77821023378553

> <r_i_glide_evdw>
-43.4711532592773

> <r_i_glide_ecoul>
-3.05735373497009

> <r_i_glide_erotb>
0.847506336905596

> <r_i_glide_esite>
-0.000365309853186042

> <r_i_glide_emodel>
-63.7050723500215

> <r_i_glide_energy>
-46.5285069942474

> <r_i_glide_einternal>
6.32042694091797

> <i_i_glide_confnum>
18

> <i_i_glide_posenum>
395

> <r_i_glide_eff_state_penalty>
0

> <s_user_duplicate_titles>
CHEMBL301_lig1328

> <s_m_subgroup_title>
dock_pv

> <s_m_subgroupid>
dock_pv

> <b_m_subgroup_collapsed>
1

$$$$
CHEMBL301_lig1319
                    3D
 Schrodinger Suite 2021-1.
 48 49  0  0  1  0            999 V2000
   -1.0933   29.2428   13.1867 C   0  0  0  0  0  0
   -0.7617   27.9951   12.3509 C   0  0  2  0  0  0
    0.0580   27.1344   13.1289 O   0  0  0  0  0  0
   -0.0954   28.3285   10.9897 C   0  0  1  0  0  0
    0.2705   27.0569   10.1918 C   0  0  0  0  0  0
   -0.9199   29.2522   10.1974 N   0  0  0  0  0  0
   -0.3312   30.1576    9.2996 C   0  0  0  0  0  0
    0.7864   29.7749    8.6315 N   0  0  0  0  0  0
    1.3423   30.6519    7.7639 C   0  0  0  0  0  0
    2.4580   30.2520    7.0160 N   0  0  0  0  0  0
    3.2580   29.0963    7.0351 C   0  0  0  0  0  0
    3.8555   28.6983    5.8403 C   0  0  0  0  0  0
    4.6519   27.5655    5.7592 C   0  0  0  0  0  0
    4.8579   26.8118    6.9065 C   0  0  0  0  0  0
    4.2990   27.2295    8.1117 C   0  0  0  0  0  0
    3.5051   28.3648    8.1920 C   0  0  0  0  0  0
    5.8271   25.3085    6.8308 S   0  0  2  0  0  0
    6.7637   25.4521    8.0299 N   0  0  0  0  0  0
    6.3117   25.1300    5.4599 O   0  0  0  0  0  0
    4.6672   23.8695    7.2817 C   0  0  0  0  0  0
    3.8457   24.1101    8.5604 C   0  0  0  0  0  0
    3.2580   22.8981    8.9760 O   0  0  0  0  0  0
    0.8784   31.9061    7.5302 N   0  0  0  0  0  0
   -0.2151   32.2930    8.2386 C   0  0  0  0  0  0
   -0.8698   31.4411    9.1319 C   0  0  0  0  0  0
   -2.4058   32.0503   10.0866 Br  0  0  0  0  0  0
   -1.8134   29.8779   12.6713 H   0  0  0  0  0  0
   -0.2093   29.8495   13.3760 H   0  0  0  0  0  0
   -1.5420   28.9739   14.1432 H   0  0  0  0  0  0
   -1.7002   27.4687   12.1656 H   0  0  0  0  0  0
    0.9735   27.4520   13.1377 H   0  0  0  0  0  0
    0.8435   28.8411   11.2121 H   0  0  0  0  0  0
    0.7895   26.3208   10.8054 H   0  0  0  0  0  0
   -0.6146   26.5750    9.7756 H   0  0  0  0  0  0
    0.9479   27.2907    9.3760 H   0  0  0  0  0  0
   -1.7268   29.6197   10.6819 H   0  0  0  0  0  0
    2.8166   30.9717    6.4044 H   0  0  0  0  0  0
    3.7249   29.3048    4.9760 H   0  0  0  0  0  0
    5.1021   27.2836    4.8180 H   0  0  0  0  0  0
    4.4580   26.6393    8.9760 H   0  0  0  0  0  0
    3.0824   28.6523    9.1420 H   0  0  0  0  0  0
    7.4058   24.6795    8.1031 H   0  0  0  0  0  0
    3.9992   23.7506    6.4289 H   0  0  0  0  0  0
    5.2876   22.9775    7.3530 H   0  0  0  0  0  0
    4.4580   24.4814    9.3760 H   0  0  0  0  0  0
    3.0597   24.8468    8.3923 H   0  0  0  0  0  0
    2.5067   22.7481    8.3868 H   0  0  0  0  0  0
   -0.5604   33.3062    8.0888 H   0  0  0  0  0  0
  1  2  1  0  0  0
  1 27  1  0  0  0
  1 28  1  0  0  0
  1 29  1  0  0  0
  2  3  1  0  0  0
  2  4  1  0  0  0
  2 30  1  0  0  0
  3 31  1  0  0  0
  4  5  1  0  0  0
  4  6  1  0  0  0
  4 32  1  0  0  0
  5 33  1  0  0  0
  5 34  1  0  0  0
  5 35  1  0  0  0
  6  7  1  0  0  0
  6 36  1  0  0  0
  7  8  2  0  0  0
  7 25  1  0  0  0
  8  9  1  0  0  0
  9 10  1  0  0  0
  9 23  2  0  0  0
 10 11  1  0  0  0
 10 37  1  0  0  0
 11 12  2  0  0  0
 11 16  1  0  0  0
 12 13  1  0  0  0
 12 38  1  0  0  0
 13 14  2  0  0  0
 13 39  1  0  0  0
 14 15  1  0  0  0
 14 17  1  0  0  0
 15 16  2  0  0  0
 15 40  1  0  0  0
 16 41  1  0  0  0
 17 18  2  0  0  0
 17 19  2  0  0  0
 17 20  1  0  0  0
 18 42  1  0  0  0
 20 21  1  0  0  0
 20 43  1  0  0  0
 20 44  1  0  0  0
 21 22  1  0  0  0
 21 45  1  0  0  0
 21 46  1  0  0  0
 22 47  1  0  0  0
 23 24  1  0  0  0
 24 25  2  0  0  0
 24 48  1  0  0  0
 25 26  1  0  0  0
M  END
> <s_m_entry_id>
32945

> <s_m_entry_name>
dock_pv.346

> <s_m_Source_Path>
/home/csk/Desktop/cluster/DUD-E-result/cdk2

> <s_m_Source_File>
dock_pv.maegz

> <i_m_Source_File_Index>
346

> <chembl_id>
CHEMBL3648110

> <chembl_pref_name>
None

> <i_lp_mmshare_version>
53161

> <i_f3d_flags>
0

> <r_lp_tautomer_probability>
0.999999624730965

> <s_lp_Force_Field>
OPLS_2005

> <r_lp_Energy>
3.083299

> <b_lp_Chiralities_Consistent>
1

> <s_lp_Variant>
CHEMBL301_lig1319-1

> <s_i_glide_gridfile>
glide-grid_1h00

> <i_i_glide_lignum>
1735

> <i_i_glide_rotatable_bonds>
10

> <r_i_docking_score>
-7.40298998134426

> <r_i_glide_ligand_efficiency>
-0.284730383897856

> <r_i_glide_ligand_efficiency_sa>
-0.843512641937439

> <r_i_glide_ligand_efficiency_ln>
-1.73856790592729

> <r_i_glide_gscore>
-7.40298998134426

> <r_i_glide_lipo>
-2.61160448179771

> <r_i_glide_hbond>
-0.73868797523421

> <r_i_glide_metal>
0

> <r_i_glide_rewards>
-1.2342766200687

> <r_i_glide_evdw>
-35.3479919433594

> <r_i_glide_ecoul>
-12.4089469909668

> <r_i_glide_erotb>
0.810320741569342

> <r_i_glide_esite>
0

> <r_i_glide_emodel>
-65.1839494614708

> <r_i_glide_energy>
-47.7569389343262

> <r_i_glide_einternal>
9.42501449584961

> <i_i_glide_confnum>
187

> <i_i_glide_posenum>
80

> <r_i_glide_eff_state_penalty>
0

> <s_user_duplicate_titles>
CHEMBL301_lig1319

> <s_m_subgroup_title>
dock_pv

> <s_m_subgroupid>
dock_pv

> <b_m_subgroup_collapsed>
1

$$$$
CHEMBL301_lig9
                    3D
 Schrodinger Suite 2021-1.
 55 57  0  0  1  0            999 V2000
    2.2377   28.0918    9.7662 N   0  0  0  0  0  0
    3.1999   28.3675    8.8717 C   0  0  0  0  0  0
    3.1940   29.2691    7.8794 N   0  0  0  0  0  0
    2.0770   30.0256    7.7131 C   0  0  0  0  0  0
    1.1449   28.8730    9.5767 C   0  0  0  0  0  0
    0.9910   29.8369    8.5950 C   0  0  0  0  0  0
   -0.2207   30.4094    8.6609 N   0  0  0  0  0  0
   -0.7921   29.8219    9.6821 C   0  0  0  0  0  0
   -0.0103   28.9080   10.3012 N   0  0  0  0  0  0
    2.0580   30.9401    6.6694 N   0  0  0  0  0  0
   -0.2934   28.0492   11.5214 C   0  0  2  0  0  0
   -0.4676   26.6999   11.2138 O   0  0  0  0  0  0
   -0.9202   26.0607   12.4035 C   0  0  1  0  0  0
   -1.9068   27.0788   12.9739 C   0  0  2  0  0  0
   -1.5086   28.4312   12.3571 C   0  0  1  0  0  0
   -1.9420   27.0520   14.3894 O   0  0  0  0  0  0
   -1.1420   29.4863   13.2240 O   0  0  0  0  0  0
   -1.5382   24.6817   12.1144 C   0  0  0  0  0  0
   -0.5509   23.6789   12.2879 O   0  0  0  0  0  0
   -0.7426   22.4976   13.3975 P   0  0  2  0  0  0
    0.7303   21.8591   13.4564 O   0  0  0  0  0  0
   -1.5900   21.3765   12.5926 O   0  0  0  0  0  0
   -1.3008   22.9117   14.7128 O   0  0  0  0  0  0
    1.9775   21.6277   12.3484 P   0  0  1  0  0  0
    1.2185   20.9760   10.9901 O   0  0  0  0  0  0
    2.4344   23.1918   11.8484 O   0  0  0  0  0  0
    3.1407   20.8245   12.8819 O   0  0  0  0  0  0
    0.8510   19.5473   10.3459 P   0  0  1  0  0  0
    0.9950   19.8451    8.7502 O   0  0  0  0  0  0
    1.6574   18.4084   10.8536 O   0  0  0  0  0  0
   -0.7477   19.4519   10.5760 O   0  0  0  0  0  0
    2.2859   20.0447    8.1911 C   0  0  0  0  0  0
    2.3576   19.4122    6.7868 C   0  0  0  0  0  0
    1.7518   20.2538    5.7763 N   0  0  0  0  0  0
    2.4718   21.1732    5.3762 N   0  3  0  0  0  0
    3.2578   21.9071    5.0015 N   0  5  0  0  0  0
    4.1070   27.7884    8.9695 H   0  0  0  0  0  0
   -1.7861   30.0473   10.0381 H   0  0  0  0  0  0
    1.3059   31.6099    6.6211 H   0  0  0  0  0  0
    2.9403   31.0591    6.1770 H   0  0  0  0  0  0
    0.6176   28.1221   12.1265 H   0  0  0  0  0  0
   -0.0709   25.9514   13.0841 H   0  0  0  0  0  0
   -2.9096   26.8458   12.6085 H   0  0  0  0  0  0
   -2.3133   28.7529   11.6954 H   0  0  0  0  0  0
   -2.6069   27.7086   14.6453 H   0  0  0  0  0  0
   -1.9563   29.8707   13.5672 H   0  0  0  0  0  0
   -1.9310   24.6408   11.0970 H   0  0  0  0  0  0
   -2.3809   24.5071   12.7850 H   0  0  0  0  0  0
   -1.5934   20.4735   12.9756 H   0  0  0  0  0  0
    1.7837   23.8332   11.5014 H   0  0  0  0  0  0
   -1.0616   18.7966   11.2490 H   0  0  0  0  0  0
    3.0359   19.5523    8.8148 H   0  0  0  0  0  0
    2.5364   21.1074    8.1856 H   0  0  0  0  0  0
    1.8413   18.4530    6.8036 H   0  0  0  0  0  0
    3.3961   19.1747    6.5336 H   0  0  0  0  0  0
  1  2  2  0  0  0
  1  5  1  0  0  0
  2  3  1  0  0  0
  2 37  1  0  0  0
  3  4  2  0  0  0
  4  6  1  0  0  0
  4 10  1  0  0  0
  5  9  1  0  0  0
  5  6  2  0  0  0
  6  7  1  0  0  0
  7  8  2  0  0  0
  8  9  1  0  0  0
  8 38  1  0  0  0
  9 11  1  0  0  0
 10 39  1  0  0  0
 10 40  1  0  0  0
 11 12  1  0  0  0
 11 15  1  0  0  0
 11 41  1  0  0  0
 12 13  1  0  0  0
 13 18  1  0  0  0
 13 14  1  0  0  0
 13 42  1  0  0  0
 14 15  1  0  0  0
 14 16  1  0  0  0
 14 43  1  0  0  0
 15 17  1  0  0  0
 15 44  1  0  0  0
 16 45  1  0  0  0
 17 46  1  0  0  0
 18 19  1  0  0  0
 18 47  1  0  0  0
 18 48  1  0  0  0
 19 20  1  0  0  0
 20 21  1  0  0  0
 20 22  1  0  0  0
 20 23  2  0  0  0
 21 24  1  0  0  0
 22 49  1  0  0  0
 24 25  1  0  0  0
 24 26  1  0  0  0
 24 27  2  0  0  0
 25 28  1  0  0  0
 26 50  1  0  0  0
 28 29  1  0  0  0
 28 30  2  0  0  0
 28 31  1  0  0  0
 29 32  1  0  0  0
 31 51  1  0  0  0
 32 33  1  0  0  0
 32 52  1  0  0  0
 32 53  1  0  0  0
 33 34  1  0  0  0
 33 54  1  0  0  0
 33 55  1  0  0  0
 34 35  2  0  0  0
 35 36  2  0  0  0
M  CHG  2  35   1  36  -1
M  END
> <s_m_entry_id>
32946

> <s_m_entry_name>
dock_pv.347

> <s_m_Source_Path>
/home/csk/Desktop/cluster/DUD-E-result/cdk2

> <s_m_Source_File>
dock_pv.maegz

> <i_m_Source_File_Index>
347

> <chembl_id>
CHEMBL564435

> <chembl_pref_name>
None

> <i_lp_mmshare_version>
53161

> <i_f3d_flags>
0

> <r_lp_tautomer_probability>
0.999997216410988

> <s_lp_Force_Field>
OPLS_2005

> <r_lp_Energy>
29.937244

> <b_lp_Chiralities_Consistent>
1

> <s_lp_Variant>
CHEMBL301_lig9-7

> <s_i_glide_gridfile>
glide-grid_1h00

> <i_i_glide_lignum>
30

> <i_i_glide_rotatable_bonds>
17

> <r_i_docking_score>
-7.40062432366139

> <r_i_glide_ligand_efficiency>
-0.205572897879483

> <r_i_glide_ligand_efficiency_sa>
-0.678786752331683

> <r_i_glide_ligand_efficiency_ln>
-1.61461628565981

> <r_i_glide_gscore>
-7.40062432366139

> <r_i_glide_lipo>
-0.502086841196862

> <r_i_glide_hbond>
-0.32

> <r_i_glide_metal>
0

> <r_i_glide_rewards>
-1.41033406701571

> <r_i_glide_evdw>
-44.4858474731445

> <r_i_glide_ecoul>
-22.6163349151611

> <r_i_glide_erotb>
0.658582282973751

> <r_i_glide_esite>
-0.210043087491169

> <r_i_glide_emodel>
-92.9668155017422

> <r_i_glide_energy>
-67.1021823883057

> <r_i_glide_einternal>
17.1570720672607

> <i_i_glide_confnum>
10

> <i_i_glide_posenum>
211

> <r_i_glide_eff_state_penalty>
0

> <s_user_duplicate_titles>
CHEMBL301_lig9

> <s_m_subgroup_title>
dock_pv

> <s_m_subgroupid>
dock_pv

> <b_m_subgroup_collapsed>
1

$$$$
CHEMBL301_lig1349
                    3D
 Schrodinger Suite 2021-1.
 47 48  0  0  1  0            999 V2000
    7.3686   25.8397    8.5816 C   0  0  0  0  0  0
    6.9524   25.5971    7.2339 N   0  0  0  0  0  0
    5.5119   25.1505    6.9558 S   0  0  2  0  0  0
    4.7613   24.1943    7.7758 O   0  0  0  0  0  0
    5.5942   24.5466    5.1737 C   0  0  0  0  0  0
    4.6482   26.7104    6.9728 C   0  0  0  0  0  0
    4.5243   27.4718    5.8135 C   0  0  0  0  0  0
    3.7959   28.6520    5.8585 C   0  0  0  0  0  0
    3.2062   29.0814    7.0456 C   0  0  0  0  0  0
    2.4578   30.2643    6.9935 N   0  0  0  0  0  0
    1.3356   30.7349    7.6905 C   0  0  0  0  0  0
    1.0356   32.0370    7.4500 N   0  0  0  0  0  0
    0.0160   32.5708    8.1737 C   0  0  0  0  0  0
   -0.7418   31.8222    9.0714 C   0  0  0  0  0  0
   -2.1684   32.6511   10.0320 Br  0  0  0  0  0  0
   -0.3747   30.4803    9.2488 C   0  0  0  0  0  0
   -1.0920   29.7243   10.1880 N   0  0  0  0  0  0
   -0.9044   28.3053   10.4962 C   0  0  2  0  0  0
   -2.0210   27.8704   11.4674 C   0  0  0  0  0  0
    0.5184   27.9211   11.0138 C   0  0  2  0  0  0
    0.7045   26.4253   11.3187 C   0  0  0  0  0  0
    0.8546   28.6525   12.1759 O   0  0  0  0  0  0
    0.6570   29.9254    8.5491 N   0  0  0  0  0  0
    3.3986   28.3589    8.2207 C   0  0  0  0  0  0
    4.1016   27.1593    8.1765 C   0  0  0  0  0  0
    8.4539   25.8586    8.6302 H   0  0  0  0  0  0
    6.9726   26.7863    8.9455 H   0  0  0  0  0  0
    7.0137   25.0527    9.2468 H   0  0  0  0  0  0
    6.1836   25.2436    4.5800 H   0  0  0  0  0  0
    6.0734   23.5695    5.1692 H   0  0  0  0  0  0
    4.5819   24.4653    4.7791 H   0  0  0  0  0  0
    4.9734   27.1614    4.8828 H   0  0  0  0  0  0
    3.6903   29.2458    4.9684 H   0  0  0  0  0  0
    2.9347   30.9809    6.4592 H   0  0  0  0  0  0
   -0.2092   33.6132    8.0016 H   0  0  0  0  0  0
   -1.7935   30.2143   10.7254 H   0  0  0  0  0  0
   -1.0673   27.7621    9.5633 H   0  0  0  0  0  0
   -2.1010   26.7858   11.5351 H   0  0  0  0  0  0
   -1.8496   28.2569   12.4730 H   0  0  0  0  0  0
   -2.9928   28.2504   11.1509 H   0  0  0  0  0  0
    1.2578   28.1881   10.2679 H   0  0  0  0  0  0
    0.4354   25.8154   10.4564 H   0  0  0  0  0  0
    0.0926   26.1020   12.1607 H   0  0  0  0  0  0
    1.7441   26.2014   11.5627 H   0  0  0  0  0  0
    1.5911   28.2077   12.6253 H   0  0  0  0  0  0
    3.0017   28.7174    9.1557 H   0  0  0  0  0  0
    4.2190   26.5757    9.0760 H   0  0  0  0  0  0
  1  2  1  0  0  0
  1 26  1  0  0  0
  1 27  1  0  0  0
  1 28  1  0  0  0
  2  3  2  0  0  0
  3  4  2  0  0  0
  3  5  1  0  0  0
  3  6  1  0  0  0
  5 29  1  0  0  0
  5 30  1  0  0  0
  5 31  1  0  0  0
  6  7  2  0  0  0
  6 25  1  0  0  0
  7  8  1  0  0  0
  7 32  1  0  0  0
  8  9  2  0  0  0
  8 33  1  0  0  0
  9 10  1  0  0  0
  9 24  1  0  0  0
 10 11  1  0  0  0
 10 34  1  0  0  0
 11 12  2  0  0  0
 11 23  1  0  0  0
 12 13  1  0  0  0
 13 14  2  0  0  0
 13 35  1  0  0  0
 14 15  1  0  0  0
 14 16  1  0  0  0
 16 17  1  0  0  0
 16 23  2  0  0  0
 17 18  1  0  0  0
 17 36  1  0  0  0
 18 19  1  0  0  0
 18 20  1  0  0  0
 18 37  1  0  0  0
 19 38  1  0  0  0
 19 39  1  0  0  0
 19 40  1  0  0  0
 20 21  1  0  0  0
 20 22  1  0  0  0
 20 41  1  0  0  0
 21 42  1  0  0  0
 21 43  1  0  0  0
 21 44  1  0  0  0
 22 45  1  0  0  0
 24 25  2  0  0  0
 24 46  1  0  0  0
 25 47  1  0  0  0
M  END
> <s_m_entry_id>
32947

> <s_m_entry_name>
dock_pv.348

> <s_m_Source_Path>
/home/csk/Desktop/cluster/DUD-E-result/cdk2

> <s_m_Source_File>
dock_pv.maegz

> <i_m_Source_File_Index>
348

> <chembl_id>
CHEMBL3648083

> <chembl_pref_name>
None

> <i_lp_mmshare_version>
53161

> <i_f3d_flags>
0

> <r_lp_tautomer_probability>
0.999999624730965

> <s_lp_Force_Field>
OPLS_2005

> <r_lp_Energy>
5.214408

> <b_lp_Chiralities_Consistent>
1

> <s_lp_Variant>
CHEMBL301_lig1349-2

> <s_i_glide_gridfile>
glide-grid_1h00

> <i_i_glide_lignum>
1792

> <i_i_glide_rotatable_bonds>
7

> <r_i_docking_score>
-7.39923989988767

> <r_i_glide_ligand_efficiency>
-0.295969595995507

> <r_i_glide_ligand_efficiency_sa>
-0.865420347733997

> <r_i_glide_ligand_efficiency_ln>
-1.75384159360007

> <r_i_glide_gscore>
-7.39923989988767

> <r_i_glide_lipo>
-2.408948874013

> <r_i_glide_hbond>
-0.552240223005497

> <r_i_glide_metal>
0

> <r_i_glide_rewards>
-1.8107706662633

> <r_i_glide_evdw>
-34.9863662719727

> <r_i_glide_ecoul>
-10.1832885742188

> <r_i_glide_erotb>
0.64953146312557

> <r_i_glide_esite>
0

> <r_i_glide_emodel>
-66.4151083067193

> <r_i_glide_energy>
-45.1696548461914

> <r_i_glide_einternal>
2.61741948127747

> <i_i_glide_confnum>
67

> <i_i_glide_posenum>
77

> <r_i_glide_eff_state_penalty>
0

> <s_user_duplicate_titles>
CHEMBL301_lig1349

> <s_m_subgroup_title>
dock_pv

> <s_m_subgroupid>
dock_pv

> <b_m_subgroup_collapsed>
1

$$$$
CHEMBL301_lig12
                    3D
 Schrodinger Suite 2021-1.
 55 57  0  0  1  0            999 V2000
   -2.0982   29.8227   10.3361 N   0  0  0  0  0  0
   -2.6223   31.0435   10.1341 C   0  0  0  0  0  0
   -2.1139   32.0826    9.4556 N   0  0  0  0  0  0
   -0.8999   31.9234    8.8696 C   0  0  0  0  0  0
   -0.8864   29.6954    9.7417 C   0  0  0  0  0  0
   -0.2497   30.6749    8.9978 C   0  0  0  0  0  0
    0.9390   30.2520    8.5423 N   0  0  0  0  0  0
    1.0570   29.0519    9.0373 C   0  0  0  0  0  0
   -0.0362   28.6212    9.7004 N   0  0  0  0  0  0
   -0.3420   33.0002    8.1834 N   0  0  0  0  0  0
   -0.2155   27.2437   10.3181 C   0  0  2  0  0  0
   -1.5420   26.8590   10.4446 O   0  0  0  0  0  0
   -1.7776   26.0468   11.5900 C   0  0  1  0  0  0
   -0.3980   25.9057   12.2498 C   0  0  2  0  0  0
    0.4701   27.0119   11.6461 C   0  0  1  0  0  0
    0.1557   24.6182   12.0353 O   0  0  0  0  0  0
    1.8136   26.6466   11.3742 O   0  0  0  0  0  0
   -2.8797   26.7262   12.4270 C   0  0  0  0  0  0
   -3.4911   25.8521   13.3760 O   0  0  0  0  0  0
   -2.9888   25.7102   14.9198 P   0  0  1  0  0  0
   -1.7162   24.7156   14.8223 O   0  0  0  0  0  0
   -2.3419   27.1578   15.2482 O   0  0  0  0  0  0
   -4.0269   25.2765   15.8931 O   0  0  0  0  0  0
   -1.3757   23.0740   15.1168 P   0  0  1  0  0  0
   -0.8297   22.3053   13.7117 O   0  0  0  0  0  0
    0.0187   23.1320   16.0945 O   0  0  0  0  0  0
   -2.5138   22.3548   15.8013 O   0  0  0  0  0  0
    0.0522   21.0009   13.3626 P   0  0  1  0  0  0
   -0.3493   20.6519   11.7579 N   0  0  1  0  0  0
    1.4950   21.0994   13.7102 O   0  0  0  0  0  0
   -0.7419   19.8520   14.1760 O   0  0  0  0  0  0
    0.6661   20.6617   10.7108 C   0  0  0  0  0  0
    0.3321   19.8513    9.4676 C   0  0  0  0  0  0
   -0.7387   19.0548    9.2857 C   0  0  0  0  0  0
   -3.5929   31.2116   10.5773 H   0  0  0  0  0  0
    1.9091   28.3987    8.9054 H   0  0  0  0  0  0
    0.5776   32.8986    7.7811 H   0  0  0  0  0  0
   -0.8322   33.8814    8.1474 H   0  0  0  0  0  0
    0.2042   26.5496    9.5907 H   0  0  0  0  0  0
   -2.1548   25.0823   11.2429 H   0  0  0  0  0  0
   -0.4495   26.0800   13.3226 H   0  0  0  0  0  0
    0.3984   27.9329   12.2289 H   0  0  0  0  0  0
    1.0356   24.7647   11.6706 H   0  0  0  0  0  0
    2.3601   26.9605   12.1151 H   0  0  0  0  0  0
   -3.6836   27.0184   11.7512 H   0  0  0  0  0  0
   -2.5205   27.6558   12.8670 H   0  0  0  0  0  0
   -2.9263   27.9151   14.9762 H   0  0  0  0  0  0
    0.8522   23.5162   15.7680 H   0  0  0  0  0  0
   -0.9478   19.8220   11.6879 H   0  0  0  0  0  0
   -1.1477   19.1449   13.6014 H   0  0  0  0  0  0
    1.5979   20.2641   11.1160 H   0  0  0  0  0  0
    0.8598   21.6968   10.4258 H   0  0  0  0  0  0
    1.0448   19.9414    8.6602 H   0  0  0  0  0  0
   -1.4907   18.9097   10.0497 H   0  0  0  0  0  0
   -0.8835   18.5252    8.3558 H   0  0  0  0  0  0
  1  2  2  0  0  0
  1  5  1  0  0  0
  2  3  1  0  0  0
  2 35  1  0  0  0
  3  4  2  0  0  0
  4  6  1  0  0  0
  4 10  1  0  0  0
  5  9  1  0  0  0
  5  6  2  0  0  0
  6  7  1  0  0  0
  7  8  2  0  0  0
  8  9  1  0  0  0
  8 36  1  0  0  0
  9 11  1  0  0  0
 10 37  1  0  0  0
 10 38  1  0  0  0
 11 12  1  0  0  0
 11 15  1  0  0  0
 11 39  1  0  0  0
 12 13  1  0  0  0
 13 18  1  0  0  0
 13 14  1  0  0  0
 13 40  1  0  0  0
 14 16  1  0  0  0
 14 15  1  0  0  0
 14 41  1  0  0  0
 15 17  1  0  0  0
 15 42  1  0  0  0
 16 43  1  0  0  0
 17 44  1  0  0  0
 18 19  1  0  0  0
 18 45  1  0  0  0
 18 46  1  0  0  0
 19 20  1  0  0  0
 20 21  1  0  0  0
 20 22  1  0  0  0
 20 23  2  0  0  0
 21 24  1  0  0  0
 22 47  1  0  0  0
 24 25  1  0  0  0
 24 26  1  0  0  0
 24 27  2  0  0  0
 25 28  1  0  0  0
 26 48  1  0  0  0
 28 29  1  0  0  0
 28 30  2  0  0  0
 28 31  1  0  0  0
 29 32  1  0  0  0
 29 49  1  0  0  0
 31 50  1  0  0  0
 32 33  1  0  0  0
 32 51  1  0  0  0
 32 52  1  0  0  0
 33 34  2  0  0  0
 33 53  1  0  0  0
 34 54  1  0  0  0
 34 55  1  0  0  0
M  END
> <s_m_entry_id>
32948

> <s_m_entry_name>
dock_pv.349

> <s_m_Source_Path>
/home/csk/Desktop/cluster/DUD-E-result/cdk2

> <s_m_Source_File>
dock_pv.maegz

> <i_m_Source_File_Index>
349

> <chembl_id>
CHEMBL560604

> <chembl_pref_name>
None

> <i_lp_mmshare_version>
53161

> <i_f3d_flags>
0

> <r_lp_tautomer_probability>
0.999997216410988

> <s_lp_Force_Field>
OPLS_2005

> <r_lp_Energy>
20.202093

> <b_lp_Chiralities_Consistent>
1

> <s_lp_Variant>
CHEMBL301_lig12-4

> <s_i_glide_gridfile>
glide-grid_1h00

> <i_i_glide_lignum>
51

> <i_i_glide_rotatable_bonds>
16

> <r_i_docking_score>
-7.39892903893954

> <r_i_glide_ligand_efficiency>
-0.21761555996881

> <r_i_glide_ligand_efficiency_sa>
-0.704989935387882

> <r_i_glide_ligand_efficiency_ln>
-1.63463095763168

> <r_i_glide_gscore>
-7.39892903893954

> <r_i_glide_lipo>
-0.857590873865738

> <r_i_glide_hbond>
-0.15996249701933

> <r_i_glide_metal>
0

> <r_i_glide_rewards>
-1.09779445670335

> <r_i_glide_evdw>
-36.1653327941895

> <r_i_glide_ecoul>
-28.2223052978516

> <r_i_glide_erotb>
0.763399580262734

> <r_i_glide_esite>
-0.238714151904379

> <r_i_glide_emodel>
-88.3150337579052

> <r_i_glide_energy>
-64.387638092041

> <r_i_glide_einternal>
17.0268211364746

> <i_i_glide_confnum>
231

> <i_i_glide_posenum>
102

> <r_i_glide_eff_state_penalty>
0

> <s_user_duplicate_titles>
CHEMBL301_lig12

> <s_m_subgroup_title>
dock_pv

> <s_m_subgroupid>
dock_pv

> <b_m_subgroup_collapsed>
1

$$$$
CHEMBL301_lig1400
                    3D
 Schrodinger Suite 2021-1.
 51 53  0  0  1  0            999 V2000
    0.2041   27.1920   10.0597 C   0  0  0  0  0  0
   -0.1763   28.4026   10.9432 C   0  0  1  0  0  0
   -0.9538   29.4138   10.2090 N   0  0  0  0  0  0
   -0.3520   30.2804    9.2805 C   0  0  0  0  0  0
    0.7339   29.8493    8.5907 N   0  0  0  0  0  0
    1.2997   30.6891    7.6987 C   0  0  0  0  0  0
    2.4039   30.2522    6.9568 N   0  0  0  0  0  0
    3.2580   29.1435    7.0797 C   0  0  0  0  0  0
    3.5515   28.5597    8.3103 C   0  0  0  0  0  0
    4.4589   27.5077    8.3779 C   0  0  0  0  0  0
    5.1107   27.0649    7.2214 C   0  0  0  0  0  0
    4.8143   27.6445    5.9902 C   0  0  0  0  0  0
    3.8774   28.6660    5.9248 C   0  0  0  0  0  0
    6.2905   25.7198    7.2711 S   0  0  2  0  0  0
    7.0668   25.9377    8.5760 N   0  0  0  0  0  0
    6.9367   25.5959    5.9610 O   0  0  0  0  0  0
    5.2217   24.2003    7.6159 C   0  0  0  0  0  0
    4.6591   23.4971    6.4016 C   0  0  0  0  0  0
    5.7810   22.8594    7.1910 C   0  0  0  0  0  0
    0.8665   31.9501    7.4461 N   0  0  0  0  0  0
   -0.1904   32.3908    8.1761 C   0  0  0  0  0  0
   -0.8501   31.5797    9.1037 C   0  0  0  0  0  0
   -2.3432   32.2566   10.0782 Br  0  0  0  0  0  0
   -0.8431   27.9928   12.2944 C   0  0  0  0  0  0
   -1.1282   29.2166   13.1868 C   0  0  0  0  0  0
   -2.1477   27.1889   12.0974 C   0  0  0  0  0  0
    0.0488   27.1500   13.0126 O   0  0  0  0  0  0
    0.5728   26.3478   10.6408 H   0  0  0  0  0  0
   -0.6460   26.8399    9.4726 H   0  0  0  0  0  0
    1.0073   27.4531    9.3757 H   0  0  0  0  0  0
    0.7669   28.8884   11.2050 H   0  0  0  0  0  0
   -1.7145   29.8279   10.7302 H   0  0  0  0  0  0
    2.7665   30.9553    6.3296 H   0  0  0  0  0  0
    3.0923   28.9204    9.2189 H   0  0  0  0  0  0
    4.6545   27.0598    9.3366 H   0  0  0  0  0  0
    5.3069   27.3128    5.0874 H   0  0  0  0  0  0
    3.6658   29.1282    4.9764 H   0  0  0  0  0  0
    6.4935   25.8519    9.4193 H   0  0  0  0  0  0
    4.6000   24.3242    8.5036 H   0  0  0  0  0  0
    3.6579   23.0724    6.4708 H   0  0  0  0  0  0
    4.8675   23.9007    5.4089 H   0  0  0  0  0  0
    6.7832   22.8286    6.7598 H   0  0  0  0  0  0
    5.5571   21.9707    7.7801 H   0  0  0  0  0  0
   -0.5155   33.4065    7.9907 H   0  0  0  0  0  0
   -1.8507   29.8847   12.7193 H   0  0  0  0  0  0
   -0.2283   29.7986   13.3755 H   0  0  0  0  0  0
   -1.5420   28.9256   14.1524 H   0  0  0  0  0  0
   -2.8970   27.7765   11.5676 H   0  0  0  0  0  0
   -1.9838   26.2750   11.5268 H   0  0  0  0  0  0
   -2.5876   26.8970   13.0522 H   0  0  0  0  0  0
    0.9489   27.5024   12.9857 H   0  0  0  0  0  0
  1  2  1  0  0  0
  1 28  1  0  0  0
  1 29  1  0  0  0
  1 30  1  0  0  0
  2  3  1  0  0  0
  2 24  1  0  0  0
  2 31  1  0  0  0
  3  4  1  0  0  0
  3 32  1  0  0  0
  4  5  2  0  0  0
  4 22  1  0  0  0
  5  6  1  0  0  0
  6  7  1  0  0  0
  6 20  2  0  0  0
  7  8  1  0  0  0
  7 33  1  0  0  0
  8  9  2  0  0  0
  8 13  1  0  0  0
  9 10  1  0  0  0
  9 34  1  0  0  0
 10 11  2  0  0  0
 10 35  1  0  0  0
 11 12  1  0  0  0
 11 14  1  0  0  0
 12 13  2  0  0  0
 12 36  1  0  0  0
 13 37  1  0  0  0
 14 15  2  0  0  0
 14 16  2  0  0  0
 14 17  1  0  0  0
 15 38  1  0  0  0
 17 18  1  0  0  0
 17 19  1  0  0  0
 17 39  1  0  0  0
 18 19  1  0  0  0
 18 40  1  0  0  0
 18 41  1  0  0  0
 19 42  1  0  0  0
 19 43  1  0  0  0
 20 21  1  0  0  0
 21 22  2  0  0  0
 21 44  1  0  0  0
 22 23  1  0  0  0
 24 25  1  0  0  0
 24 26  1  0  0  0
 24 27  1  0  0  0
 25 45  1  0  0  0
 25 46  1  0  0  0
 25 47  1  0  0  0
 26 48  1  0  0  0
 26 49  1  0  0  0
 26 50  1  0  0  0
 27 51  1  0  0  0
M  END
> <s_m_entry_id>
32949

> <s_m_entry_name>
dock_pv.350

> <s_m_Source_Path>
/home/csk/Desktop/cluster/DUD-E-result/cdk2

> <s_m_Source_File>
dock_pv.maegz

> <i_m_Source_File_Index>
350

> <chembl_id>
CHEMBL3648074

> <chembl_pref_name>
None

> <i_lp_mmshare_version>
53161

> <i_f3d_flags>
0

> <r_lp_tautomer_probability>
0.999999624730965

> <s_lp_Force_Field>
OPLS_2005

> <r_lp_Energy>
15.184911

> <b_lp_Chiralities_Consistent>
1

> <s_lp_Variant>
CHEMBL301_lig1400-1

> <s_i_glide_gridfile>
glide-grid_1h00

> <i_i_glide_lignum>
1901

> <i_i_glide_rotatable_bonds>
8

> <r_i_docking_score>
-7.39730041308177

> <r_i_glide_ligand_efficiency>
-0.273974089373399

> <r_i_glide_ligand_efficiency_sa>
-0.821922267217223

> <r_i_glide_ligand_efficiency_ln>
-1.7219695821369

> <r_i_glide_gscore>
-7.39730041308177

> <r_i_glide_lipo>
-2.63359888998394

> <r_i_glide_hbond>
-0.613318269826547

> <r_i_glide_metal>
0

> <r_i_glide_rewards>
-1.19627913209249

> <r_i_glide_evdw>
-38.8261604309082

> <r_i_glide_ecoul>
-11.2907276153564

> <r_i_glide_erotb>
0.680813042670079

> <r_i_glide_esite>
0

> <r_i_glide_emodel>
-70.3228350705005

> <r_i_glide_energy>
-50.1168880462646

> <r_i_glide_einternal>
4.19741344451904

> <i_i_glide_confnum>
148

> <i_i_glide_posenum>
44

> <r_i_glide_eff_state_penalty>
0

> <s_user_duplicate_titles>
CHEMBL301_lig1400

> <s_m_subgroup_title>
dock_pv

> <s_m_subgroupid>
dock_pv

> <b_m_subgroup_collapsed>
1

$$$$
CHEMBL301_lig1355
                    3D
 Schrodinger Suite 2021-1.
 49 50  0  0  1  0            999 V2000
    2.2570   27.0255   10.9758 C   0  0  0  0  0  0
    1.2165   28.1425   11.1662 C   0  0  0  0  0  0
   -0.2435   27.7975   10.7797 C   0  0  2  0  0  0
   -1.1977   29.3247   10.4064 S   0  0  0  0  0  0
   -0.3766   30.3695    9.2122 C   0  0  0  0  0  0
    0.6470   29.8521    8.4761 N   0  0  0  0  0  0
    1.2937   30.6936    7.6220 C   0  0  0  0  0  0
    2.3930   30.2472    6.8790 N   0  0  0  0  0  0
    3.2585   29.1552    7.0296 C   0  0  0  0  0  0
    3.8769   28.6333    5.8928 C   0  0  0  0  0  0
    4.7848   27.5809    5.9984 C   0  0  0  0  0  0
    5.0905   27.0569    7.2553 C   0  0  0  0  0  0
    4.4958   27.6033    8.3932 C   0  0  0  0  0  0
    3.5912   28.6518    8.2823 C   0  0  0  0  0  0
    6.1916   25.6458    7.4175 S   0  0  1  0  0  0
    7.1161   26.0268    8.5759 N   0  0  0  0  0  0
    5.3936   24.4174    7.3764 O   0  0  0  0  0  0
    7.3849   25.6826    5.9656 C   0  0  0  0  0  0
    0.9729   31.9953    7.4187 N   0  0  0  0  0  0
   -0.0372   32.4952    8.1760 C   0  0  0  0  0  0
   -0.7534   31.7166    9.0855 C   0  0  0  0  0  0
   -2.1564   32.5148   10.1048 Br  0  0  0  0  0  0
   -0.9542   26.8647   11.8290 C   0  0  0  0  0  0
   -1.0421   27.4748   13.2459 C   0  0  0  0  0  0
   -2.3493   26.4075   11.3764 C   0  0  0  0  0  0
   -0.2357   25.6568   11.9695 O   0  0  0  0  0  0
    3.2580   27.4361   11.0936 H   0  0  0  0  0  0
    2.1767   26.2322   11.7144 H   0  0  0  0  0  0
    2.1931   26.5781    9.9832 H   0  0  0  0  0  0
    1.5457   28.9752   10.5663 H   0  0  0  0  0  0
    1.2580   28.5403   12.1761 H   0  0  0  0  0  0
   -0.2097   27.2594    9.8308 H   0  0  0  0  0  0
    2.7781   30.9552    6.2693 H   0  0  0  0  0  0
    3.6583   29.0468    4.9240 H   0  0  0  0  0  0
    5.2377   27.1809    5.1040 H   0  0  0  0  0  0
    4.7322   27.2235    9.3714 H   0  0  0  0  0  0
    3.1681   29.0833    9.1718 H   0  0  0  0  0  0
    6.6168   26.0136    9.4668 H   0  0  0  0  0  0
    7.8768   26.6519    5.9323 H   0  0  0  0  0  0
    8.1272   24.9000    6.1119 H   0  0  0  0  0  0
    6.8365   25.5016    5.0432 H   0  0  0  0  0  0
   -0.2780   33.5387    8.0317 H   0  0  0  0  0  0
   -1.5414   28.4443   13.2335 H   0  0  0  0  0  0
   -0.0598   27.6112   13.6977 H   0  0  0  0  0  0
   -1.6087   26.8337   13.9220 H   0  0  0  0  0  0
   -3.0602   27.2340   11.3762 H   0  0  0  0  0  0
   -2.3297   25.9611   10.3810 H   0  0  0  0  0  0
   -2.7425   25.6524   12.0574 H   0  0  0  0  0  0
    0.6545   25.8851   12.2481 H   0  0  0  0  0  0
  1  2  1  0  0  0
  1 27  1  0  0  0
  1 28  1  0  0  0
  1 29  1  0  0  0
  2  3  1  0  0  0
  2 30  1  0  0  0
  2 31  1  0  0  0
  3  4  1  0  0  0
  3 23  1  0  0  0
  3 32  1  0  0  0
  4  5  1  0  0  0
  5  6  2  0  0  0
  5 21  1  0  0  0
  6  7  1  0  0  0
  7  8  1  0  0  0
  7 19  2  0  0  0
  8  9  1  0  0  0
  8 33  1  0  0  0
  9 10  2  0  0  0
  9 14  1  0  0  0
 10 11  1  0  0  0
 10 34  1  0  0  0
 11 12  2  0  0  0
 11 35  1  0  0  0
 12 13  1  0  0  0
 12 15  1  0  0  0
 13 14  2  0  0  0
 13 36  1  0  0  0
 14 37  1  0  0  0
 15 16  2  0  0  0
 15 17  2  0  0  0
 15 18  1  0  0  0
 16 38  1  0  0  0
 18 39  1  0  0  0
 18 40  1  0  0  0
 18 41  1  0  0  0
 19 20  1  0  0  0
 20 21  2  0  0  0
 20 42  1  0  0  0
 21 22  1  0  0  0
 23 24  1  0  0  0
 23 25  1  0  0  0
 23 26  1  0  0  0
 24 43  1  0  0  0
 24 44  1  0  0  0
 24 45  1  0  0  0
 25 46  1  0  0  0
 25 47  1  0  0  0
 25 48  1  0  0  0
 26 49  1  0  0  0
M  END
> <s_m_entry_id>
32950

> <s_m_entry_name>
dock_pv.351

> <s_m_Source_Path>
/home/csk/Desktop/cluster/DUD-E-result/cdk2

> <s_m_Source_File>
dock_pv.maegz

> <i_m_Source_File_Index>
351

> <chembl_id>
CHEMBL3648105

> <chembl_pref_name>
None

> <i_lp_mmshare_version>
53161

> <i_f3d_flags>
0

> <r_lp_tautomer_probability>
0.999999987636

> <s_lp_Force_Field>
OPLS_2005

> <r_lp_Energy>
4.543278

> <b_lp_Chiralities_Consistent>
1

> <s_lp_Variant>
CHEMBL301_lig1355-3

> <s_i_glide_gridfile>
glide-grid_1h00

> <i_i_glide_lignum>
1808

> <i_i_glide_rotatable_bonds>
8

> <r_i_docking_score>
-7.39559990567856

> <r_i_glide_ligand_efficiency>
-0.284446150218406

> <r_i_glide_ligand_efficiency_sa>
-0.842670600780473

> <r_i_glide_ligand_efficiency_ln>
-1.73683237090602

> <r_i_glide_gscore>
-7.39559990567856

> <r_i_glide_lipo>
-2.74512414595947

> <r_i_glide_hbond>
-0.354894541752436

> <r_i_glide_metal>
0

> <r_i_glide_rewards>
-1.28245065944413

> <r_i_glide_evdw>
-40.5777053833008

> <r_i_glide_ecoul>
-9.7391414642334

> <r_i_glide_erotb>
0.476625930277535

> <r_i_glide_esite>
0

> <r_i_glide_emodel>
-71.8020732916501

> <r_i_glide_energy>
-50.3168468475342

> <r_i_glide_einternal>
5.03323888778687

> <i_i_glide_confnum>
37

> <i_i_glide_posenum>
112

> <r_i_glide_eff_state_penalty>
0

> <s_user_duplicate_titles>
CHEMBL301_lig1355

> <s_m_subgroup_title>
dock_pv

> <s_m_subgroupid>
dock_pv

> <b_m_subgroup_collapsed>
1

$$$$
CHEMBL301_lig270
                    3D
 Schrodinger Suite 2021-1.
 51 53  0  0  1  0            999 V2000
   -0.2605   30.7029    8.7830 C   0  0  0  0  0  0
   -0.2277   29.4715    9.4555 C   0  0  0  0  0  0
   -1.3263   29.0025   10.1824 C   0  0  0  0  0  0
    0.8861   31.0821    7.9105 C   0  0  0  0  0  0
    1.9740   29.0520    8.7221 C   0  0  0  0  0  0
    1.9778   30.1317    7.9154 C   0  0  0  0  0  0
    0.9172   28.7062    9.4894 O   0  0  0  0  0  0
   -1.3478   31.5562    9.0109 C   0  0  0  0  0  0
   -2.4392   29.8434   10.2863 C   0  0  0  0  0  0
   -1.2863   27.6678   10.9644 C   0  0  2  0  0  0
   -2.4371   31.1160    9.7419 C   0  0  0  0  0  0
   -0.4119   27.7465   12.2316 C   0  0  2  0  0  0
   -0.2658   25.2321   12.2840 N   0  0  2  0  0  0
    3.1751   27.7492    8.9760 S   0  0  0  0  0  0
   -0.8841   26.4195   10.1526 C   0  0  0  0  0  0
   -0.5393   26.4511   13.0655 C   0  0  0  0  0  0
    0.9515   32.1646    7.3332 O   0  0  0  0  0  0
    4.5363   27.9993    7.7946 C   0  0  0  0  0  0
   -1.0102   25.1454   11.0174 C   0  0  0  0  0  0
   -1.3642   32.8515    8.5760 O   0  0  0  0  0  0
   -3.5420   29.4520   10.9760 O   0  0  0  0  0  0
   -0.7420   28.8890   12.9972 O   0  0  0  0  0  0
   -0.5069   24.0407   13.0928 C   0  0  0  0  0  0
    5.5555   26.8529    7.9704 C   0  0  0  0  0  0
    5.2518   29.2973    8.1682 C   0  0  0  0  0  0
    4.1050   28.0016    6.3056 C   0  0  0  0  0  0
    2.8133   30.3518    7.2803 H   0  0  0  0  0  0
   -2.3029   27.4558   11.2977 H   0  0  0  0  0  0
   -3.2805   31.7737    9.8938 H   0  0  0  0  0  0
    0.6292   27.8734   11.9276 H   0  0  0  0  0  0
   -1.5419   26.3049    9.2913 H   0  0  0  0  0  0
    0.1363   26.4663    9.7760 H   0  0  0  0  0  0
    0.1319   26.4921   13.9248 H   0  0  0  0  0  0
   -1.5511   26.3857   13.4710 H   0  0  0  0  0  0
   -0.6586   24.2753   10.4622 H   0  0  0  0  0  0
   -2.0645   24.9634   11.2341 H   0  0  0  0  0  0
   -0.5638   33.0630    8.0794 H   0  0  0  0  0  0
   -3.8116   30.1283   11.6266 H   0  0  0  0  0  0
   -1.6881   29.0517   12.9159 H   0  0  0  0  0  0
   -0.1974   23.1419   12.5577 H   0  0  0  0  0  0
    0.0580   24.0782   14.0243 H   0  0  0  0  0  0
   -1.5634   23.9373   13.3470 H   0  0  0  0  0  0
    6.3831   26.9355    7.2638 H   0  0  0  0  0  0
    5.0932   25.8766    7.8188 H   0  0  0  0  0  0
    5.9914   26.8557    8.9704 H   0  0  0  0  0  0
    4.6477   30.1971    8.1580 H   0  0  0  0  0  0
    5.6580   29.2212    9.1724 H   0  0  0  0  0  0
    6.0580   29.4520    7.4726 H   0  0  0  0  0  0
    3.2974   28.6906    6.0778 H   0  0  0  0  0  0
    4.9396   28.2730    5.6569 H   0  0  0  0  0  0
    3.7745   27.0154    5.9803 H   0  0  0  0  0  0
  1  2  2  0  0  0
  1  4  1  0  0  0
  1  8  1  0  0  0
  2  3  1  0  0  0
  2  7  1  0  0  0
  3 10  1  0  0  0
  3  9  2  0  0  0
  4  6  1  0  0  0
  4 17  2  0  0  0
  5  6  2  0  0  0
  5 14  1  0  0  0
  5  7  1  0  0  0
  6 27  1  0  0  0
  8 11  2  0  0  0
  8 20  1  0  0  0
  9 11  1  0  0  0
  9 21  1  0  0  0
 10 12  1  0  0  0
 10 15  1  0  0  0
 10 28  1  0  0  0
 11 29  1  0  0  0
 12 16  1  0  0  0
 12 22  1  0  0  0
 12 30  1  0  0  0
 13 19  1  0  0  0
 13 23  1  0  0  0
 13 16  1  0  0  0
 14 18  1  0  0  0
 15 19  1  0  0  0
 15 31  1  0  0  0
 15 32  1  0  0  0
 16 33  1  0  0  0
 16 34  1  0  0  0
 18 24  1  0  0  0
 18 25  1  0  0  0
 18 26  1  0  0  0
 19 35  1  0  0  0
 19 36  1  0  0  0
 20 37  1  0  0  0
 21 38  1  0  0  0
 22 39  1  0  0  0
 23 40  1  0  0  0
 23 41  1  0  0  0
 23 42  1  0  0  0
 24 43  1  0  0  0
 24 44  1  0  0  0
 24 45  1  0  0  0
 25 46  1  0  0  0
 25 47  1  0  0  0
 25 48  1  0  0  0
 26 49  1  0  0  0
 26 50  1  0  0  0
 26 51  1  0  0  0
M  END
> <s_m_entry_id>
32951

> <s_m_entry_name>
dock_pv.352

> <s_m_Source_Path>
/home/csk/Desktop/cluster/DUD-E-result/cdk2

> <s_m_Source_File>
dock_pv.maegz

> <i_m_Source_File_Index>
352

> <chembl_id>
CHEMBL112582

> <chembl_pref_name>
None

> <i_lp_mmshare_version>
53161

> <i_f3d_flags>
0

> <r_lp_tautomer_probability>
1

> <s_lp_Force_Field>
OPLS_2005

> <r_lp_Energy>
29.823596

> <b_lp_Chiralities_Consistent>
1

> <s_lp_Variant>
CHEMBL301_lig270-1

> <s_i_glide_gridfile>
glide-grid_1h00

> <i_i_glide_lignum>
419

> <i_i_glide_rotatable_bonds>
6

> <r_i_docking_score>
-7.39468549931767

> <r_i_glide_ligand_efficiency>
-0.284410980742987

> <r_i_glide_ligand_efficiency_sa>
-0.84256641134793

> <r_i_glide_ligand_efficiency_ln>
-1.73661762557258

> <r_i_glide_gscore>
-7.39468549931767

> <r_i_glide_lipo>
-3.80958291433623

> <r_i_glide_hbond>
0

> <r_i_glide_metal>
0

> <r_i_glide_rewards>
-1.0304592095548

> <r_i_glide_evdw>
-31.9084796905518

> <r_i_glide_ecoul>
-8.1902027130127

> <r_i_glide_erotb>
0.269311016052853

> <r_i_glide_esite>
0

> <r_i_glide_emodel>
-53.8376675802821

> <r_i_glide_energy>
-40.0986824035645

> <r_i_glide_einternal>
5.50104856491089

> <i_i_glide_confnum>
3

> <i_i_glide_posenum>
382

> <r_i_glide_eff_state_penalty>
0

> <s_user_duplicate_titles>
CHEMBL301_lig270

> <s_m_subgroup_title>
dock_pv

> <s_m_subgroupid>
dock_pv

> <b_m_subgroup_collapsed>
1

$$$$
CHEMBL301_lig578
                    3D
 Schrodinger Suite 2021-1.
 50 52  0  0  1  0            999 V2000
   -0.5525   28.3377   12.5114 C   0  0  0  0  0  0
   -1.0504   29.4992   12.1369 N   0  0  0  0  0  0
   -1.6237   29.2262   10.9897 C   0  0  0  0  0  0
   -1.5425   27.9227   10.6158 O   0  0  0  0  0  0
   -0.8707   27.3263   11.6274 C   0  0  0  0  0  0
   -0.5984   25.8330   11.5305 C   0  0  0  0  0  0
   -1.9404   25.0902   11.6119 C   0  0  0  0  0  0
    0.3238   25.3735   12.6762 C   0  0  0  0  0  0
    0.0864   25.5127   10.1898 C   0  0  0  0  0  0
   -2.2612   30.1964   10.0290 C   0  0  0  0  0  0
   -1.1398   31.1988    8.9753 S   0  0  0  0  0  0
    0.3558   30.2869    8.6627 C   0  0  0  0  0  0
    0.9945   29.2757    9.3783 C   0  0  0  0  0  0
    2.1755   28.8855    8.9761 N   0  0  0  0  0  0
    2.5779   29.5597    7.9433 C   0  0  0  0  0  0
    1.4453   30.7444    7.3761 S   0  0  0  0  0  0
    3.8170   29.4516    7.3760 N   0  0  0  0  0  0
    4.6153   28.2576    7.0835 C   0  0  2  0  0  0
    4.3400   27.8156    5.6354 C   0  0  0  0  0  0
    5.2266   26.6092    5.2814 C   0  0  0  0  0  0
    5.0536   25.4460    6.2822 C   0  0  0  0  0  0
    5.2059   25.8199    7.7816 C   0  0  2  0  0  0
    4.3941   27.0983    8.0913 C   0  0  0  0  0  0
    6.5898   26.0035    8.1753 N   0  0  0  0  0  0
    0.0593   28.2208   13.3784 H   0  0  0  0  0  0
   -1.8160   24.0163   11.4734 H   0  0  0  0  0  0
   -2.6251   25.4520   10.8410 H   0  0  0  0  0  0
   -2.4283   25.2527   12.5747 H   0  0  0  0  0  0
    1.2996   25.8515   12.5935 H   0  0  0  0  0  0
   -0.0845   25.6323   13.6541 H   0  0  0  0  0  0
    0.4821   24.2944   12.6603 H   0  0  0  0  0  0
    0.9854   26.1142   10.0403 H   0  0  0  0  0  0
    0.3795   24.4653   10.1218 H   0  0  0  0  0  0
   -0.5928   25.7222    9.3670 H   0  0  0  0  0  0
   -2.9560   29.6747    9.3749 H   0  0  0  0  0  0
   -2.8776   30.9001   10.5884 H   0  0  0  0  0  0
    0.6768   28.8083   10.2812 H   0  0  0  0  0  0
    4.1242   30.2198    6.7822 H   0  0  0  0  0  0
    5.6583   28.5727    7.1642 H   0  0  0  0  0  0
    3.2819   27.5800    5.4853 H   0  0  0  0  0  0
    4.5642   28.6335    4.9492 H   0  0  0  0  0  0
    6.2722   26.9215    5.2721 H   0  0  0  0  0  0
    5.0045   26.2670    4.2692 H   0  0  0  0  0  0
    5.7689   24.6611    6.0340 H   0  0  0  0  0  0
    4.0870   24.9608    6.1376 H   0  0  0  0  0  0
    4.7178   25.0175    8.3376 H   0  0  0  0  0  0
    4.6402   27.4513    9.0934 H   0  0  0  0  0  0
    3.3496   26.8040    8.1762 H   0  0  0  0  0  0
    6.5701   26.0911    9.1882 H   0  0  0  0  0  0
    7.1169   25.1686    7.9648 H   0  0  0  0  0  0
  1  5  2  0  0  0
  1  2  1  0  0  0
  1 25  1  0  0  0
  2  3  2  0  0  0
  3  4  1  0  0  0
  3 10  1  0  0  0
  4  5  1  0  0  0
  5  6  1  0  0  0
  6  7  1  0  0  0
  6  8  1  0  0  0
  6  9  1  0  0  0
  7 26  1  0  0  0
  7 27  1  0  0  0
  7 28  1  0  0  0
  8 29  1  0  0  0
  8 30  1  0  0  0
  8 31  1  0  0  0
  9 32  1  0  0  0
  9 33  1  0  0  0
  9 34  1  0  0  0
 10 11  1  0  0  0
 10 35  1  0  0  0
 10 36  1  0  0  0
 11 12  1  0  0  0
 12 13  2  0  0  0
 12 16  1  0  0  0
 13 14  1  0  0  0
 13 37  1  0  0  0
 14 15  2  0  0  0
 15 16  1  0  0  0
 15 17  1  0  0  0
 17 18  1  0  0  0
 17 38  1  0  0  0
 18 19  1  0  0  0
 18 23  1  0  0  0
 18 39  1  0  0  0
 19 20  1  0  0  0
 19 40  1  0  0  0
 19 41  1  0  0  0
 20 21  1  0  0  0
 20 42  1  0  0  0
 20 43  1  0  0  0
 21 22  1  0  0  0
 21 44  1  0  0  0
 21 45  1  0  0  0
 22 23  1  0  0  0
 22 24  1  0  0  0
 22 46  1  0  0  0
 23 47  1  0  0  0
 23 48  1  0  0  0
 24 49  1  0  0  0
 24 50  1  0  0  0
M  END
> <s_m_entry_id>
32952

> <s_m_entry_name>
dock_pv.353

> <s_m_Source_Path>
/home/csk/Desktop/cluster/DUD-E-result/cdk2

> <s_m_Source_File>
dock_pv.maegz

> <i_m_Source_File_Index>
353

> <chembl_id>
CHEMBL505474

> <chembl_pref_name>
None

> <i_lp_mmshare_version>
53161

> <i_f3d_flags>
0

> <r_lp_tautomer_probability>
1

> <s_lp_Force_Field>
OPLS_2005

> <r_lp_Energy>
7.081027

> <b_lp_Chiralities_Consistent>
1

> <s_lp_Variant>
CHEMBL301_lig578-1

> <s_i_glide_gridfile>
glide-grid_1h00

> <i_i_glide_lignum>
809

> <i_i_glide_rotatable_bonds>
6

> <r_i_docking_score>
-7.39424475082153

> <r_i_glide_ligand_efficiency>
-0.30809353128423

> <r_i_glide_ligand_efficiency_sa>
-0.888695525276906

> <r_i_glide_ligand_efficiency_ln>
-1.76978206865414

> <r_i_glide_gscore>
-7.39424475082153

> <r_i_glide_lipo>
-3.08181953448286

> <r_i_glide_hbond>
-0.448134646078714

> <r_i_glide_metal>
0

> <r_i_glide_rewards>
-1.84564994217022

> <r_i_glide_evdw>
-37.3278770446777

> <r_i_glide_ecoul>
-5.79049921035767

> <r_i_glide_erotb>
0.716328105697801

> <r_i_glide_esite>
0

> <r_i_glide_emodel>
-57.0838153263558

> <r_i_glide_energy>
-43.1183762550354

> <r_i_glide_einternal>
7.7422661781311

> <i_i_glide_confnum>
71

> <i_i_glide_posenum>
60

> <r_i_glide_eff_state_penalty>
0

> <s_user_duplicate_titles>
CHEMBL301_lig578

> <s_m_subgroup_title>
dock_pv

> <s_m_subgroupid>
dock_pv

> <b_m_subgroup_collapsed>
1

$$$$
CHEMBL301_lig1367
                    3D
 Schrodinger Suite 2021-1.
 60 62  0  0  1  0            999 V2000
   -1.5617   25.2138    9.9317 C   0  0  0  0  0  0
   -1.6439   26.3405   10.9740 C   0  0  0  0  0  0
   -0.3404   26.6036   11.7839 C   0  0  2  0  0  0
    0.8130   26.9825   10.9503 N   0  0  0  0  0  0
    0.8655   28.1398   10.1609 C   0  0  0  0  0  0
    1.9962   28.2651    9.4208 N   0  0  0  0  0  0
    2.0953   29.3295    8.5766 C   0  0  0  0  0  0
    3.2583   29.5269    7.8115 N   0  0  0  0  0  0
    4.4741   28.7431    8.0113 C   0  0  0  0  0  0
    4.4581   27.4790    7.1682 C   0  0  0  0  0  0
    4.4603   27.5425    5.7691 C   0  0  0  0  0  0
    4.4584   26.3621    5.0248 C   0  0  0  0  0  0
    4.4575   25.1443    5.7072 C   0  0  0  0  0  0
    4.4581   25.0586    7.0634 N   0  0  0  0  0  0
    4.4622   26.2177    7.7715 C   0  0  0  0  0  0
    1.0385   30.2520    8.4868 C   0  0  0  0  0  0
    0.8580   31.3937    7.7468 N   0  0  0  0  0  0
   -0.2717   31.8851    8.1894 C   0  0  0  0  0  0
   -0.8777   31.1337    9.1838 N   0  0  0  0  0  0
   -2.1197   31.4336    9.9138 C   0  0  0  0  0  0
   -3.3359   30.9291    9.1198 C   0  0  0  0  0  0
   -2.2252   32.9312   10.2646 C   0  0  0  0  0  0
   -0.0522   30.0371    9.3558 C   0  0  0  0  0  0
   -0.1812   29.0083   10.1943 N   0  0  0  0  0  0
    0.0162   25.4765   12.8049 C   0  0  2  0  0  0
    0.5086   24.3353   12.1170 O   0  0  0  0  0  0
   -1.1213   25.0528   13.7911 C   0  0  0  0  0  0
   -1.6347   26.2382   14.6359 C   0  0  0  0  0  0
   -0.7292   23.8922   14.7328 C   0  0  0  0  0  0
   -2.4956   25.1246    9.3776 H   0  0  0  0  0  0
   -0.7604   25.3860    9.2133 H   0  0  0  0  0  0
   -1.3922   24.2528   10.4113 H   0  0  0  0  0  0
   -2.4771   26.1360   11.6456 H   0  0  0  0  0  0
   -1.9409   27.2557   10.4729 H   0  0  0  0  0  0
   -0.5513   27.4910   12.3847 H   0  0  0  0  0  0
    1.6853   26.4882   11.0507 H   0  0  0  0  0  0
    3.3301   30.3718    7.2593 H   0  0  0  0  0  0
    5.3224   29.3590    7.7092 H   0  0  0  0  0  0
    4.6186   28.5056    9.0661 H   0  0  0  0  0  0
    4.4690   28.5010    5.2666 H   0  0  0  0  0  0
    4.4590   26.3870    3.9439 H   0  0  0  0  0  0
    4.4499   24.2098    5.1665 H   0  0  0  0  0  0
    4.4569   26.1180    8.8490 H   0  0  0  0  0  0
   -0.7209   32.8100    7.8582 H   0  0  0  0  0  0
   -2.0765   30.8869   10.8608 H   0  0  0  0  0  0
   -4.2627   31.1397    9.6541 H   0  0  0  0  0  0
   -3.4049   31.4018    8.1405 H   0  0  0  0  0  0
   -3.2882   29.8515    8.9761 H   0  0  0  0  0  0
   -3.0920   33.1180   10.8991 H   0  0  0  0  0  0
   -1.3444   33.2876   10.7983 H   0  0  0  0  0  0
   -2.3420   33.5423    9.3761 H   0  0  0  0  0  0
    0.8579   25.8534   13.3769 H   0  0  0  0  0  0
    0.9012   24.6378   11.2950 H   0  0  0  0  0  0
   -1.9556   24.6784   13.1991 H   0  0  0  0  0  0
   -0.8378   26.6525   15.2560 H   0  0  0  0  0  0
   -2.4445   25.9320   15.2994 H   0  0  0  0  0  0
   -2.0291   27.0442   14.0163 H   0  0  0  0  0  0
    0.0582   24.1868   15.4272 H   0  0  0  0  0  0
   -1.5834   23.5630   15.3269 H   0  0  0  0  0  0
   -0.3767   23.0200   14.1787 H   0  0  0  0  0  0
  1  2  1  0  0  0
  1 30  1  0  0  0
  1 31  1  0  0  0
  1 32  1  0  0  0
  2  3  1  0  0  0
  2 33  1  0  0  0
  2 34  1  0  0  0
  3  4  1  0  0  0
  3 25  1  0  0  0
  3 35  1  0  0  0
  4  5  1  0  0  0
  4 36  1  0  0  0
  5  6  2  0  0  0
  5 24  1  0  0  0
  6  7  1  0  0  0
  7  8  1  0  0  0
  7 16  2  0  0  0
  8  9  1  0  0  0
  8 37  1  0  0  0
  9 10  1  0  0  0
  9 38  1  0  0  0
  9 39  1  0  0  0
 10 11  2  0  0  0
 10 15  1  0  0  0
 11 12  1  0  0  0
 11 40  1  0  0  0
 12 13  2  0  0  0
 12 41  1  0  0  0
 13 14  1  0  0  0
 13 42  1  0  0  0
 14 15  2  0  0  0
 15 43  1  0  0  0
 16 17  1  0  0  0
 16 23  1  0  0  0
 17 18  2  0  0  0
 18 19  1  0  0  0
 18 44  1  0  0  0
 19 20  1  0  0  0
 19 23  1  0  0  0
 20 21  1  0  0  0
 20 22  1  0  0  0
 20 45  1  0  0  0
 21 46  1  0  0  0
 21 47  1  0  0  0
 21 48  1  0  0  0
 22 49  1  0  0  0
 22 50  1  0  0  0
 22 51  1  0  0  0
 23 24  2  0  0  0
 25 26  1  0  0  0
 25 27  1  0  0  0
 25 52  1  0  0  0
 26 53  1  0  0  0
 27 28  1  0  0  0
 27 29  1  0  0  0
 27 54  1  0  0  0
 28 55  1  0  0  0
 28 56  1  0  0  0
 28 57  1  0  0  0
 29 58  1  0  0  0
 29 59  1  0  0  0
 29 60  1  0  0  0
M  END
> <s_m_entry_id>
32953

> <s_m_entry_name>
dock_pv.354

> <s_m_Source_Path>
/home/csk/Desktop/cluster/DUD-E-result/cdk2

> <s_m_Source_File>
dock_pv.maegz

> <i_m_Source_File_Index>
354

> <chembl_id>
CHEMBL1922210

> <chembl_pref_name>
None

> <i_lp_mmshare_version>
53161

> <i_f3d_flags>
0

> <r_lp_tautomer_probability>
1

> <s_lp_Force_Field>
OPLS_2005

> <r_lp_Energy>
25.087075

> <b_lp_Chiralities_Consistent>
1

> <s_lp_Variant>
CHEMBL301_lig1367-1

> <s_i_glide_gridfile>
glide-grid_1h00

> <i_i_glide_lignum>
1827

> <i_i_glide_rotatable_bonds>
10

> <r_i_docking_score>
-7.39004961848504

> <r_i_glide_ligand_efficiency>
-0.254829297189139

> <r_i_glide_ligand_efficiency_sa>
-0.782916336553122

> <r_i_glide_ligand_efficiency_ln>
-1.69213396714368

> <r_i_glide_gscore>
-7.39004961848504

> <r_i_glide_lipo>
-3.00172997846688

> <r_i_glide_hbond>
-0.186036911224308

> <r_i_glide_metal>
0

> <r_i_glide_rewards>
-2.09425899497726

> <r_i_glide_evdw>
-46.9573059082031

> <r_i_glide_ecoul>
-3.35626745223999

> <r_i_glide_erotb>
0.74328167942956

> <r_i_glide_esite>
0

> <r_i_glide_emodel>
-69.3081339178118

> <r_i_glide_energy>
-50.3135733604431

> <r_i_glide_einternal>
6.24117136001587

> <i_i_glide_confnum>
64

> <i_i_glide_posenum>
124

> <r_i_glide_eff_state_penalty>
0

> <s_user_duplicate_titles>
CHEMBL301_lig1367

> <s_m_subgroup_title>
dock_pv

> <s_m_subgroupid>
dock_pv

> <b_m_subgroup_collapsed>
1

$$$$
CHEMBL301_lig761
                    3D
 Schrodinger Suite 2021-1.
 45 47  0  0  1  0            999 V2000
   -0.6567   30.5599    9.2469 C   0  0  0  0  0  0
   -1.6447   31.4832    9.6381 C   0  0  0  0  0  0
   -1.5097   32.6517    9.0606 N   0  0  0  0  0  0
   -0.4375   32.5081    8.2778 N   0  0  0  0  0  0
    0.1424   31.2640    8.3337 C   0  0  0  0  0  0
    1.3011   30.9058    7.5491 C   0  0  0  0  0  0
    1.6588   31.5882    6.5869 O   0  0  0  0  0  0
    1.9941   29.8521    8.0227 N   0  0  0  0  0  0
    3.2566   29.3246    7.4958 C   0  0  1  0  0  0
   -0.5031   29.2482    9.6632 N   0  0  0  0  0  0
   -0.6999   28.8199   10.9270 C   0  0  0  0  0  0
   -1.0631   29.5210   11.8729 O   0  0  0  0  0  0
   -0.4114   27.3610   11.1336 C   0  0  0  0  0  0
   -1.4225   26.4839   11.5523 C   0  0  0  0  0  0
   -1.1418   25.1286   11.7343 C   0  0  0  0  0  0
    0.1429   24.6373   11.5099 C   0  0  0  0  0  0
    1.1550   25.5063   11.1076 C   0  0  0  0  0  0
    0.8826   26.8617   10.9263 C   0  0  0  0  0  0
    1.8880   27.6863   10.5563 F   0  0  0  0  0  0
   -2.6830   26.9247   11.7771 F   0  0  0  0  0  0
    3.8679   28.2094    8.3759 C   0  0  0  0  0  0
    5.1505   27.5879    7.7950 C   0  0  0  0  0  0
    4.9349   27.0768    6.3635 C   0  0  1  0  0  0
    4.5140   28.2532    5.4713 C   0  0  0  0  0  0
    3.2580   28.9628    5.9837 C   0  0  0  0  0  0
    6.1005   26.4079    5.8331 N   0  0  0  0  0  0
   -2.4408   31.2974   10.3476 H   0  0  0  0  0  0
   -0.0903   33.2704    7.7086 H   0  0  0  0  0  0
    1.6493   29.4001    8.8557 H   0  0  0  0  0  0
    3.9730   30.1421    7.5857 H   0  0  0  0  0  0
   -0.1272   28.5904    8.9982 H   0  0  0  0  0  0
   -1.9307   24.4633   12.0502 H   0  0  0  0  0  0
    0.3552   23.5890   11.6539 H   0  0  0  0  0  0
    2.1573   25.1397   10.9405 H   0  0  0  0  0  0
    3.1443   27.4003    8.4760 H   0  0  0  0  0  0
    4.0739   28.5877    9.3770 H   0  0  0  0  0  0
    5.4788   26.7741    8.4428 H   0  0  0  0  0  0
    5.9490   28.3300    7.8110 H   0  0  0  0  0  0
    4.1192   26.3517    6.3837 H   0  0  0  0  0  0
    4.3532   27.9119    4.4468 H   0  0  0  0  0  0
    5.3043   28.9979    5.4196 H   0  0  0  0  0  0
    3.0880   29.8507    5.3773 H   0  0  0  0  0  0
    2.4543   28.2688    5.7762 H   0  0  0  0  0  0
    6.8301   27.1014    5.6907 H   0  0  0  0  0  0
    6.4573   25.7440    6.5028 H   0  0  0  0  0  0
  1  5  2  0  0  0
  1  2  1  0  0  0
  1 10  1  0  0  0
  2 27  1  0  0  0
  2  3  2  0  0  0
  3  4  1  0  0  0
  4 28  1  0  0  0
  4  5  1  0  0  0
  5  6  1  0  0  0
  6  7  2  0  0  0
  6  8  1  0  0  0
  8  9  1  0  0  0
  8 29  1  0  0  0
  9 21  1  0  0  0
  9 25  1  0  0  0
  9 30  1  0  0  0
 10 11  1  0  0  0
 10 31  1  0  0  0
 11 13  1  0  0  0
 11 12  2  0  0  0
 13 14  2  0  0  0
 13 18  1  0  0  0
 14 15  1  0  0  0
 14 20  1  0  0  0
 15 16  2  0  0  0
 15 32  1  0  0  0
 16 17  1  0  0  0
 16 33  1  0  0  0
 17 18  2  0  0  0
 17 34  1  0  0  0
 18 19  1  0  0  0
 21 22  1  0  0  0
 21 35  1  0  0  0
 21 36  1  0  0  0
 22 23  1  0  0  0
 22 37  1  0  0  0
 22 38  1  0  0  0
 23 24  1  0  0  0
 23 26  1  0  0  0
 23 39  1  0  0  0
 24 25  1  0  0  0
 24 40  1  0  0  0
 24 41  1  0  0  0
 25 42  1  0  0  0
 25 43  1  0  0  0
 26 44  1  0  0  0
 26 45  1  0  0  0
M  END
> <s_m_entry_id>
32955

> <s_m_entry_name>
dock_pv.356

> <s_m_Source_Path>
/home/csk/Desktop/cluster/DUD-E-result/cdk2

> <s_m_Source_File>
dock_pv.maegz

> <i_m_Source_File_Index>
356

> <chembl_id>
CHEMBL507167

> <chembl_pref_name>
None

> <i_lp_mmshare_version>
53161

> <i_f3d_flags>
0

> <r_lp_tautomer_probability>
0.5

> <s_lp_Force_Field>
OPLS_2005

> <r_lp_Energy>
27.635924

> <b_lp_Chiralities_Consistent>
1

> <s_lp_Variant>
CHEMBL301_lig761-2

> <s_i_glide_gridfile>
glide-grid_1h00

> <i_i_glide_lignum>
1085

> <i_i_glide_rotatable_bonds>
6

> <r_i_docking_score>
-7.3709160266697

> <r_i_glide_ligand_efficiency>
-0.283496770256527

> <r_i_glide_ligand_efficiency_sa>
-0.839858066379036

> <r_i_glide_ligand_efficiency_ln>
-1.7310354429152

> <r_i_glide_gscore>
-7.3709160266697

> <r_i_glide_lipo>
-2.55085955356088

> <r_i_glide_hbond>
-0.472345168165253

> <r_i_glide_metal>
0

> <r_i_glide_rewards>
-2.4947499581992

> <r_i_glide_evdw>
-43.2502403259277

> <r_i_glide_ecoul>
-3.73253464698792

> <r_i_glide_erotb>
0.87308735526692

> <r_i_glide_esite>
-0.0036564886667183

> <r_i_glide_emodel>
-66.1007007855475

> <r_i_glide_energy>
-46.9827749729156

> <r_i_glide_einternal>
2.77016425132751

> <i_i_glide_confnum>
57

> <i_i_glide_posenum>
7

> <r_i_glide_eff_state_penalty>
0

> <s_user_duplicate_titles>
CHEMBL301_lig761,512384

> <s_m_subgroup_title>
dock_pv

> <s_m_subgroupid>
dock_pv

> <b_m_subgroup_collapsed>
1

$$$$
CHEMBL301_lig1353
                    3D
 Schrodinger Suite 2021-1.
 40 41  0  0  1  0            999 V2000
   -0.5145   27.4672   13.1951 C   0  0  0  0  0  0
   -0.2352   26.8480   11.8196 C   0  0  2  0  0  0
    0.8580   25.9619   11.9630 O   0  0  0  0  0  0
    0.1158   27.8887   10.7407 C   0  0  0  0  0  0
   -1.1100   29.2099   10.4513 S   0  0  0  0  0  0
   -0.3855   30.3166    9.2715 C   0  0  0  0  0  0
    0.6824   29.8520    8.5755 N   0  0  0  0  0  0
    1.2693   30.6940    7.6882 C   0  0  0  0  0  0
    2.3665   30.2505    6.9372 N   0  0  0  0  0  0
    3.2159   29.1399    7.0736 C   0  0  0  0  0  0
    3.8685   28.6520    5.9416 C   0  0  0  0  0  0
    4.8080   27.6333    6.0437 C   0  0  0  0  0  0
    5.0748   27.0684    7.2905 C   0  0  0  0  0  0
    4.3559   27.5029    8.4078 C   0  0  0  0  0  0
    3.4526   28.5475    8.3088 C   0  0  0  0  0  0
    6.3224   25.7881    7.4625 S   0  0  2  0  0  0
    5.4844   24.5164    7.3758 N   0  0  0  0  0  0
    7.2189   26.1251    8.5754 O   0  0  0  0  0  0
    7.3113   25.6979    5.8648 C   0  0  0  0  0  0
    0.8726   31.9702    7.4513 N   0  0  0  0  0  0
   -0.1822   32.4240    8.1766 C   0  0  0  0  0  0
   -0.8617   31.6244    9.1008 C   0  0  0  0  0  0
   -2.3378   32.3381   10.0787 Br  0  0  0  0  0  0
   -1.4210   28.0759   13.1831 H   0  0  0  0  0  0
    0.3085   28.1120   13.4987 H   0  0  0  0  0  0
   -0.6471   26.7019   13.9613 H   0  0  0  0  0  0
   -1.1026   26.2692   11.4976 H   0  0  0  0  0  0
    1.5838   26.4520   12.3710 H   0  0  0  0  0  0
    1.0613   28.3707   10.9944 H   0  0  0  0  0  0
    0.2808   27.3773    9.7908 H   0  0  0  0  0  0
    2.7310   30.9469    6.3006 H   0  0  0  0  0  0
    3.6673   29.0766    4.9766 H   0  0  0  0  0  0
    5.3221   27.3056    5.1539 H   0  0  0  0  0  0
    4.4581   27.0553    9.3720 H   0  0  0  0  0  0
    2.9464   28.8854    9.1980 H   0  0  0  0  0  0
    6.0499   23.6905    7.2641 H   0  0  0  0  0  0
    6.6459   25.4686    5.0337 H   0  0  0  0  0  0
    7.8080   26.6518    5.7075 H   0  0  0  0  0  0
    8.0582   24.9137    5.9665 H   0  0  0  0  0  0
   -0.4785   33.4484    8.0153 H   0  0  0  0  0  0
  1  2  1  0  0  0
  1 24  1  0  0  0
  1 25  1  0  0  0
  1 26  1  0  0  0
  2  3  1  0  0  0
  2  4  1  0  0  0
  2 27  1  0  0  0
  3 28  1  0  0  0
  4  5  1  0  0  0
  4 29  1  0  0  0
  4 30  1  0  0  0
  5  6  1  0  0  0
  6  7  2  0  0  0
  6 22  1  0  0  0
  7  8  1  0  0  0
  8  9  1  0  0  0
  8 20  2  0  0  0
  9 10  1  0  0  0
  9 31  1  0  0  0
 10 11  2  0  0  0
 10 15  1  0  0  0
 11 12  1  0  0  0
 11 32  1  0  0  0
 12 13  2  0  0  0
 12 33  1  0  0  0
 13 14  1  0  0  0
 13 16  1  0  0  0
 14 15  2  0  0  0
 14 34  1  0  0  0
 15 35  1  0  0  0
 16 17  2  0  0  0
 16 18  2  0  0  0
 16 19  1  0  0  0
 17 36  1  0  0  0
 19 37  1  0  0  0
 19 38  1  0  0  0
 19 39  1  0  0  0
 20 21  1  0  0  0
 21 22  2  0  0  0
 21 40  1  0  0  0
 22 23  1  0  0  0
M  END
> <s_m_entry_id>
32956

> <s_m_entry_name>
dock_pv.357

> <s_m_Source_Path>
/home/csk/Desktop/cluster/DUD-E-result/cdk2

> <s_m_Source_File>
dock_pv.maegz

> <i_m_Source_File_Index>
357

> <chembl_id>
CHEMBL3648101

> <chembl_pref_name>
None

> <i_lp_mmshare_version>
53161

> <i_f3d_flags>
0

> <r_lp_tautomer_probability>
0.999999987636

> <s_lp_Force_Field>
OPLS_2005

> <r_lp_Energy>
2.180263

> <b_lp_Chiralities_Consistent>
1

> <s_lp_Variant>
CHEMBL301_lig1353-1

> <s_i_glide_gridfile>
glide-grid_1h00

> <i_i_glide_lignum>
1801

> <i_i_glide_rotatable_bonds>
7

> <r_i_docking_score>
-7.37008617653674

> <r_i_glide_ligand_efficiency>
-0.320438529414641

> <r_i_glide_ligand_efficiency_sa>
-0.911284551922049

> <r_i_glide_ligand_efficiency_ln>
-1.78215366573324

> <r_i_glide_gscore>
-7.37008617653674

> <r_i_glide_lipo>
-2.49042018938036

> <r_i_glide_hbond>
-0.549107563238883

> <r_i_glide_metal>
0

> <r_i_glide_rewards>
-1.59230614967989

> <r_i_glide_evdw>
-36.5166015625

> <r_i_glide_ecoul>
-9.86520862579346

> <r_i_glide_erotb>
0.567359097756403

> <r_i_glide_esite>
0

> <r_i_glide_emodel>
-66.5100030267908

> <r_i_glide_energy>
-46.3818101882935

> <r_i_glide_einternal>
3.93869662284851

> <i_i_glide_confnum>
47

> <i_i_glide_posenum>
104

> <r_i_glide_eff_state_penalty>
0

> <s_user_duplicate_titles>
CHEMBL301_lig1353

> <s_m_subgroup_title>
dock_pv

> <s_m_subgroupid>
dock_pv

> <b_m_subgroup_collapsed>
1

$$$$
CHEMBL301_lig182
                    3D
 Schrodinger Suite 2021-1.
 37 40  0  0  1  0            999 V2000
   -0.0893   28.3026   10.7170 C   0  0  0  0  0  0
   -1.2999   28.3015   11.6083 C   0  0  0  0  0  0
   -0.1530   29.4523    9.9592 C   0  0  0  0  0  0
    0.9852   27.4218   10.5259 C   0  0  0  0  0  0
   -1.9419   29.4526   11.2967 N   0  0  0  0  0  0
   -1.3004   30.1434   10.2730 C   0  0  0  0  0  0
    0.7960   29.8519    8.9958 C   0  0  0  0  0  0
    1.9564   29.0074    8.9327 C   0  0  0  0  0  0
    2.0318   27.8249    9.6804 C   0  0  0  0  0  0
    1.0336   26.0420   11.0898 C   0  0  0  0  0  0
    2.2080   25.4134   11.4310 N   0  0  0  0  0  0
    0.4575   31.0401    8.2569 C   0  0  0  0  0  0
   -1.6484   27.4776   12.4499 O   0  0  0  0  0  0
   -1.5929   31.3162    9.5823 C   0  0  0  0  0  0
    0.0192   25.1138   11.3238 C   0  0  0  0  0  0
    1.9534   24.1410   11.8757 C   0  0  0  0  0  0
    0.5870   23.9361   11.8186 C   0  0  0  0  0  0
    3.2253   29.4542    7.7759 S   0  0  0  0  0  0
   -0.7163   31.7475    8.5760 C   0  0  0  0  0  0
    1.2579   31.5352    7.2841 F   0  0  0  0  0  0
    5.2577   27.3575    6.2154 N   0  0  0  0  0  0
    4.7977   28.6726    8.2571 C   0  0  0  0  0  0
    5.0955   27.2863    7.6579 C   0  0  0  0  0  0
   -2.7667   29.7741   11.7924 H   0  0  0  0  0  0
    2.8796   27.1720    9.5391 H   0  0  0  0  0  0
    3.1224   25.8481   11.3841 H   0  0  0  0  0  0
   -2.4787   31.8893    9.8083 H   0  0  0  0  0  0
   -1.0344   25.2778   11.1484 H   0  0  0  0  0  0
    2.7543   23.5097   12.2214 H   0  0  0  0  0  0
    0.0561   23.0396   12.1028 H   0  0  0  0  0  0
   -0.9381   32.6636    8.0473 H   0  0  0  0  0  0
    6.0363   27.9584    5.9651 H   0  0  0  0  0  0
    5.4739   26.4463    5.8356 H   0  0  0  0  0  0
    5.5928   29.3631    7.9744 H   0  0  0  0  0  0
    4.8313   28.6174    9.3438 H   0  0  0  0  0  0
    6.0086   26.8819    8.0965 H   0  0  0  0  0  0
    4.2951   26.5841    7.8907 H   0  0  0  0  0  0
  1  2  1  0  0  0
  1  3  1  0  0  0
  1  4  2  0  0  0
  2  5  1  0  0  0
  2 13  2  0  0  0
  3  6  1  0  0  0
  3  7  2  0  0  0
  4  9  1  0  0  0
  4 10  1  0  0  0
  5  6  1  0  0  0
  5 24  1  0  0  0
  6 14  2  0  0  0
  7 12  1  0  0  0
  7  8  1  0  0  0
  8  9  2  0  0  0
  8 18  1  0  0  0
  9 25  1  0  0  0
 10 11  1  0  0  0
 10 15  2  0  0  0
 11 16  1  0  0  0
 11 26  1  0  0  0
 12 19  2  0  0  0
 12 20  1  0  0  0
 14 19  1  0  0  0
 14 27  1  0  0  0
 15 17  1  0  0  0
 15 28  1  0  0  0
 16 17  2  0  0  0
 16 29  1  0  0  0
 17 30  1  0  0  0
 18 22  1  0  0  0
 19 31  1  0  0  0
 21 23  1  0  0  0
 21 32  1  0  0  0
 21 33  1  0  0  0
 22 23  1  0  0  0
 22 34  1  0  0  0
 22 35  1  0  0  0
 23 36  1  0  0  0
 23 37  1  0  0  0
M  END
> <s_m_entry_id>
32957

> <s_m_entry_name>
dock_pv.358

> <s_m_Source_Path>
/home/csk/Desktop/cluster/DUD-E-result/cdk2

> <s_m_Source_File>
dock_pv.maegz

> <i_m_Source_File_Index>
358

> <chembl_id>
CHEMBL311464

> <chembl_pref_name>
None

> <i_lp_mmshare_version>
53161

> <i_f3d_flags>
0

> <r_lp_tautomer_probability>
1

> <s_lp_Force_Field>
OPLS_2005

> <r_lp_Energy>
54.1456

> <b_lp_Chiralities_Consistent>
1

> <s_lp_Variant>
CHEMBL301_lig182-1

> <s_i_glide_gridfile>
glide-grid_1h00

> <i_i_glide_lignum>
323

> <i_i_glide_rotatable_bonds>
4

> <r_i_docking_score>
-7.35217424199982

> <r_i_glide_ligand_efficiency>
-0.319659749652166

> <r_i_glide_ligand_efficiency_sa>
-0.909069805873285

> <r_i_glide_ligand_efficiency_ln>
-1.77782239754577

> <r_i_glide_gscore>
-7.35217424199982

> <r_i_glide_lipo>
-3.1281820988934

> <r_i_glide_hbond>
-0.451067321052698

> <r_i_glide_metal>
0

> <r_i_glide_rewards>
-1.79427538487858

> <r_i_glide_evdw>
-37.9652366638184

> <r_i_glide_ecoul>
-3.39017391204834

> <r_i_glide_erotb>
0.525325055372868

> <r_i_glide_esite>
-0.0971865725498373

> <r_i_glide_emodel>
-59.262825317855

> <r_i_glide_energy>
-41.3554105758667

> <r_i_glide_einternal>
1.17139053344727

> <i_i_glide_confnum>
1

> <i_i_glide_posenum>
256

> <r_i_glide_eff_state_penalty>
0

> <s_user_duplicate_titles>
CHEMBL301_lig182,130745

> <s_m_subgroup_title>
dock_pv

> <s_m_subgroupid>
dock_pv

> <b_m_subgroup_collapsed>
1

$$$$
CHEMBL301_lig128
                    3D
 Schrodinger Suite 2021-1.
 57 59  0  0  1  0            999 V2000
   -0.3603   30.7214    9.2934 C   0  0  0  0  0  0
   -0.9152   28.7689   10.8672 C   0  0  0  0  0  0
   -1.0475   30.0726   10.3439 N   0  0  0  0  0  0
    0.6462   30.0632    8.5899 C   0  0  0  0  0  0
    1.3704   30.7927    7.6469 C   0  0  0  0  0  0
   -0.6862   32.0163    9.0007 N   0  0  0  0  0  0
    1.0900   32.0932    7.3760 N   0  0  0  0  0  0
   -3.9420   30.6520    8.7179 N   0  0  0  0  0  0
   -0.9853   27.6678   10.0155 C   0  0  0  0  0  0
    0.0632   32.6457    8.0702 C   0  0  0  0  0  0
   -3.2348   30.6730    9.6209 C   0  0  0  0  0  0
   -0.7522   28.5465   12.2477 C   0  0  0  0  0  0
    2.4580   30.2520    6.9601 N   0  0  0  0  0  0
   -0.6515   27.2467   12.7464 C   0  0  0  0  0  0
   -0.9290   26.3748   10.5217 C   0  0  0  0  0  0
    3.2580   29.1206    7.1874 C   0  0  0  0  0  0
    5.6353   25.7321    7.7477 O   0  0  0  0  0  0
   -2.3006   30.6982   10.7424 C   0  0  0  0  0  0
    4.4013   24.0838    6.3763 C   0  0  2  0  0  0
    5.4466   22.5401    4.6090 N   0  0  0  0  0  0
    4.3313   23.4274    4.9714 C   0  0  0  0  0  0
    4.8682   26.8575    7.5199 C   0  0  0  0  0  0
   -0.7420   29.8520   13.3760 Cl  0  0  0  0  0  0
    5.7553   24.7630    6.7004 C   0  0  0  0  0  0
   -0.7440   26.1577   11.8841 C   0  0  0  0  0  0
   -1.1420   25.0520    9.4534 Cl  0  0  0  0  0  0
    4.0367   28.6520    6.1280 C   0  0  0  0  0  0
    3.3417   28.4928    8.4314 C   0  0  0  0  0  0
    4.8529   27.5364    6.2947 C   0  0  0  0  0  0
    4.0980   27.3418    8.5760 C   0  0  0  0  0  0
    4.0580   23.1754    7.4116 O   0  0  0  0  0  0
    5.4820   21.3100    5.3970 C   0  0  0  0  0  0
    5.3575   22.2068    3.1885 C   0  0  0  0  0  0
    0.8607   29.0307    8.7846 H   0  0  0  0  0  0
   -1.1420   27.8124    8.9599 H   0  0  0  0  0  0
   -0.1907   33.6726    7.8540 H   0  0  0  0  0  0
    2.9390   30.9272    6.3766 H   0  0  0  0  0  0
   -0.5276   27.0826   13.8063 H   0  0  0  0  0  0
   -2.7420   30.1587   11.5701 H   0  0  0  0  0  0
   -2.1640   31.7320   11.0609 H   0  0  0  0  0  0
    3.6216   24.8453    6.3871 H   0  0  0  0  0  0
    3.3847   22.8928    4.8664 H   0  0  0  0  0  0
    4.2734   24.2379    4.2415 H   0  0  0  0  0  0
    6.1882   25.2154    5.8082 H   0  0  0  0  0  0
    6.4846   24.0117    7.0063 H   0  0  0  0  0  0
   -0.6956   25.1517   12.2739 H   0  0  0  0  0  0
    4.0247   29.1604    5.1749 H   0  0  0  0  0  0
    2.8332   28.8692    9.3030 H   0  0  0  0  0  0
    5.4665   27.2158    5.4673 H   0  0  0  0  0  0
    4.0580   26.8257    9.5192 H   0  0  0  0  0  0
    3.0989   23.0520    7.3760 H   0  0  0  0  0  0
    6.2820   20.6530    5.0523 H   0  0  0  0  0  0
    5.6848   21.5213    6.4463 H   0  0  0  0  0  0
    4.5407   20.7619    5.3316 H   0  0  0  0  0  0
    6.2006   21.5868    2.8803 H   0  0  0  0  0  0
    4.4363   21.6702    2.9541 H   0  0  0  0  0  0
    5.3841   23.1097    2.5760 H   0  0  0  0  0  0
  1  3  1  0  0  0
  1  4  2  0  0  0
  1  6  1  0  0  0
  2  3  1  0  0  0
  2  9  2  0  0  0
  2 12  1  0  0  0
  3 18  1  0  0  0
  4  5  1  0  0  0
  4 34  1  0  0  0
  5 13  1  0  0  0
  5  7  2  0  0  0
  6 10  2  0  0  0
  7 10  1  0  0  0
  8 11  3  0  0  0
  9 15  1  0  0  0
  9 35  1  0  0  0
 10 36  1  0  0  0
 11 18  1  0  0  0
 12 14  2  0  0  0
 12 23  1  0  0  0
 13 16  1  0  0  0
 13 37  1  0  0  0
 14 25  1  0  0  0
 14 38  1  0  0  0
 15 26  1  0  0  0
 15 25  2  0  0  0
 16 27  1  0  0  0
 16 28  2  0  0  0
 17 22  1  0  0  0
 17 24  1  0  0  0
 18 39  1  0  0  0
 18 40  1  0  0  0
 19 24  1  0  0  0
 19 21  1  0  0  0
 19 31  1  0  0  0
 19 41  1  0  0  0
 20 21  1  0  0  0
 20 32  1  0  0  0
 20 33  1  0  0  0
 21 42  1  0  0  0
 21 43  1  0  0  0
 22 30  2  0  0  0
 22 29  1  0  0  0
 24 44  1  0  0  0
 24 45  1  0  0  0
 25 46  1  0  0  0
 27 29  2  0  0  0
 27 47  1  0  0  0
 28 30  1  0  0  0
 28 48  1  0  0  0
 29 49  1  0  0  0
 30 50  1  0  0  0
 31 51  1  0  0  0
 32 52  1  0  0  0
 32 53  1  0  0  0
 32 54  1  0  0  0
 33 55  1  0  0  0
 33 56  1  0  0  0
 33 57  1  0  0  0
M  END
> <s_m_entry_id>
32958

> <s_m_entry_name>
dock_pv.359

> <s_m_Source_Path>
/home/csk/Desktop/cluster/DUD-E-result/cdk2

> <s_m_Source_File>
dock_pv.maegz

> <i_m_Source_File_Index>
359

> <chembl_id>
CHEMBL101119

> <chembl_pref_name>
None

> <i_lp_mmshare_version>
53161

> <i_f3d_flags>
0

> <r_lp_tautomer_probability>
0.999999968260001

> <s_lp_Force_Field>
OPLS_2005

> <r_lp_Energy>
30.144349

> <b_lp_Chiralities_Consistent>
1

> <s_lp_Variant>
CHEMBL301_lig128-2

> <s_i_glide_gridfile>
glide-grid_1h00

> <i_i_glide_lignum>
266

> <i_i_glide_rotatable_bonds>
11

> <r_i_docking_score>
-7.34883139940549

> <r_i_glide_ligand_efficiency>
-0.222691860588045

> <r_i_glide_ligand_efficiency_sa>
-0.714291787014291

> <r_i_glide_ligand_efficiency_ln>
-1.6343420530152

> <r_i_glide_gscore>
-7.34883139940549

> <r_i_glide_lipo>
-3.12834417815277

> <r_i_glide_hbond>
-0.242923002087628

> <r_i_glide_metal>
0

> <r_i_glide_rewards>
-0.997177813062987

> <r_i_glide_evdw>
-39.7931442260742

> <r_i_glide_ecoul>
-11.1691827774048

> <r_i_glide_erotb>
0.684648221812324

> <r_i_glide_esite>
0

> <r_i_glide_emodel>
-65.4272554165582

> <r_i_glide_energy>
-50.962327003479

> <r_i_glide_einternal>
12.030722618103

> <i_i_glide_confnum>
5

> <i_i_glide_posenum>
13

> <r_i_glide_eff_state_penalty>
0

> <s_user_duplicate_titles>
CHEMBL301_lig128

> <s_m_subgroup_title>
dock_pv

> <s_m_subgroupid>
dock_pv

> <b_m_subgroup_collapsed>
1

$$$$
CHEMBL301_lig1355
                    3D
 Schrodinger Suite 2021-1.
 49 50  0  0  1  0            999 V2000
    1.2685   26.1612   10.2505 C   0  0  0  0  0  0
    0.1277   27.1192    9.8567 C   0  0  0  0  0  0
   -0.2908   28.1831   10.9092 C   0  0  1  0  0  0
   -1.4129   29.4378   10.1758 S   0  0  0  0  0  0
   -0.4972   30.5458    9.1466 C   0  0  0  0  0  0
    0.5839   30.0476    8.4988 N   0  0  0  0  0  0
    1.2575   30.8859    7.6751 C   0  0  0  0  0  0
    2.3630   30.4052    6.9714 N   0  0  0  0  0  0
    3.1398   29.2475    7.0918 C   0  0  0  0  0  0
    3.4104   28.6506    8.3232 C   0  0  0  0  0  0
    4.2216   27.5205    8.3723 C   0  0  0  0  0  0
    4.7472   26.9869    7.1914 C   0  0  0  0  0  0
    4.5038   27.6009    5.9672 C   0  0  0  0  0  0
    3.6989   28.7276    5.9245 C   0  0  0  0  0  0
    5.6464   25.4502    7.2198 S   0  0  2  0  0  0
    6.8039   25.7432    8.1756 N   0  0  0  0  0  0
    5.8172   24.9617    5.8489 O   0  0  0  0  0  0
    4.5012   24.3039    8.1757 C   0  0  0  0  0  0
    0.9446   32.1896    7.4626 N   0  0  0  0  0  0
   -0.1027   32.6825    8.1761 C   0  0  0  0  0  0
   -0.8736   31.8903    9.0267 C   0  0  0  0  0  0
   -2.3410   32.6512    9.9782 Br  0  0  0  0  0  0
   -0.8767   27.6185   12.2476 C   0  0  0  0  0  0
   -1.1635   28.7582   13.2421 C   0  0  0  0  0  0
   -2.1446   26.7606   12.0456 C   0  0  0  0  0  0
    0.0580   26.7855   12.9092 O   0  0  0  0  0  0
    1.6582   25.6359    9.3773 H   0  0  0  0  0  0
    2.1042   26.6985   10.7022 H   0  0  0  0  0  0
    0.9340   25.3982   10.9530 H   0  0  0  0  0  0
   -0.7405   26.5505    9.5201 H   0  0  0  0  0  0
    0.4729   27.6486    8.9763 H   0  0  0  0  0  0
    0.6141   28.7381   11.1635 H   0  0  0  0  0  0
    2.7845   31.0825    6.3528 H   0  0  0  0  0  0
    2.9995   29.0533    9.2366 H   0  0  0  0  0  0
    4.4258   27.0535    9.3246 H   0  0  0  0  0  0
    4.9195   27.2029    5.0521 H   0  0  0  0  0  0
    3.5263   29.2068    4.9760 H   0  0  0  0  0  0
    7.3687   24.9299    8.3562 H   0  0  0  0  0  0
    4.4574   24.6367    9.2115 H   0  0  0  0  0  0
    3.5118   24.3725    7.7276 H   0  0  0  0  0  0
    4.8576   23.2805    8.0910 H   0  0  0  0  0  0
   -0.3337   33.7296    8.0408 H   0  0  0  0  0  0
   -1.9417   29.4253   12.8734 H   0  0  0  0  0  0
   -0.2826   29.3732   13.4167 H   0  0  0  0  0  0
   -1.5422   28.3747   14.1882 H   0  0  0  0  0  0
   -2.9494   27.3383   11.5921 H   0  0  0  0  0  0
   -1.9581   25.8953   11.4088 H   0  0  0  0  0  0
   -2.5236   26.3801   12.9954 H   0  0  0  0  0  0
    0.9111   27.2377   12.9752 H   0  0  0  0  0  0
  1  2  1  0  0  0
  1 27  1  0  0  0
  1 28  1  0  0  0
  1 29  1  0  0  0
  2  3  1  0  0  0
  2 30  1  0  0  0
  2 31  1  0  0  0
  3  4  1  0  0  0
  3 23  1  0  0  0
  3 32  1  0  0  0
  4  5  1  0  0  0
  5  6  2  0  0  0
  5 21  1  0  0  0
  6  7  1  0  0  0
  7  8  1  0  0  0
  7 19  2  0  0  0
  8  9  1  0  0  0
  8 33  1  0  0  0
  9 10  2  0  0  0
  9 14  1  0  0  0
 10 11  1  0  0  0
 10 34  1  0  0  0
 11 12  2  0  0  0
 11 35  1  0  0  0
 12 13  1  0  0  0
 12 15  1  0  0  0
 13 14  2  0  0  0
 13 36  1  0  0  0
 14 37  1  0  0  0
 15 16  2  0  0  0
 15 17  2  0  0  0
 15 18  1  0  0  0
 16 38  1  0  0  0
 18 39  1  0  0  0
 18 40  1  0  0  0
 18 41  1  0  0  0
 19 20  1  0  0  0
 20 21  2  0  0  0
 20 42  1  0  0  0
 21 22  1  0  0  0
 23 24  1  0  0  0
 23 25  1  0  0  0
 23 26  1  0  0  0
 24 43  1  0  0  0
 24 44  1  0  0  0
 24 45  1  0  0  0
 25 46  1  0  0  0
 25 47  1  0  0  0
 25 48  1  0  0  0
 26 49  1  0  0  0
M  END
> <s_m_entry_id>
32959

> <s_m_entry_name>
dock_pv.360

> <s_m_Source_Path>
/home/csk/Desktop/cluster/DUD-E-result/cdk2

> <s_m_Source_File>
dock_pv.maegz

> <i_m_Source_File_Index>
360

> <chembl_id>
CHEMBL3648105

> <chembl_pref_name>
None

> <i_lp_mmshare_version>
53161

> <i_f3d_flags>
0

> <r_lp_tautomer_probability>
0.999999987636

> <s_lp_Force_Field>
OPLS_2005

> <r_lp_Energy>
3.216054

> <b_lp_Chiralities_Consistent>
1

> <s_lp_Variant>
CHEMBL301_lig1355-2

> <s_i_glide_gridfile>
glide-grid_1h00

> <i_i_glide_lignum>
1807

> <i_i_glide_rotatable_bonds>
8

> <r_i_docking_score>
-7.34854256099273

> <r_i_glide_ligand_efficiency>
-0.282636252345874

> <r_i_glide_ligand_efficiency_sa>
-0.837308785454701

> <r_i_glide_ligand_efficiency_ln>
-1.72578110791429

> <r_i_glide_gscore>
-7.34854256099273

> <r_i_glide_lipo>
-3.01197368578714

> <r_i_glide_hbond>
-0.501968690599183

> <r_i_glide_metal>
0

> <r_i_glide_rewards>
-1.23700450386099

> <r_i_glide_evdw>
-39.2434692382812

> <r_i_glide_ecoul>
-7.41365432739258

> <r_i_glide_erotb>
0.476625930277535

> <r_i_glide_esite>
0

> <r_i_glide_emodel>
-66.2568043233387

> <r_i_glide_energy>
-46.6571235656738

> <r_i_glide_einternal>
1.54728996753693

> <i_i_glide_confnum>
24

> <i_i_glide_posenum>
4

> <r_i_glide_eff_state_penalty>
0

> <s_user_duplicate_titles>
CHEMBL301_lig1355

> <s_m_subgroup_title>
dock_pv

> <s_m_subgroupid>
dock_pv

> <b_m_subgroup_collapsed>
1

$$$$
CHEMBL301_lig733
                    3D
 Schrodinger Suite 2021-1.
 46 49  0  0  1  0            999 V2000
    1.3563   30.4422    7.7993 C   0  0  0  0  0  0
    6.2500   26.0901    6.9622 O   0  0  0  0  0  0
   -1.9487   32.7452    9.4850 C   0  0  0  0  0  0
   -1.2786   28.5583   11.1377 C   0  0  0  0  0  0
   -0.2127   27.7897   11.9598 C   0  0  0  0  0  0
   -0.7684   27.3390   13.3267 C   0  0  0  0  0  0
   -1.7649   26.1624   13.2242 C   0  0  0  0  0  0
   -1.1778   24.9772   12.4301 C   0  0  0  0  0  0
   -0.6076   25.4133   11.0661 C   0  0  0  0  0  0
    0.4077   26.5600   11.2416 C   0  0  0  0  0  0
    4.8587   27.6281    5.7746 C   0  0  0  0  0  0
    5.2773   27.0527    6.9686 C   0  0  0  0  0  0
    4.7358   27.4778    8.1759 C   0  0  0  0  0  0
    3.7679   28.4757    8.2036 C   0  0  0  0  0  0
    0.8555   29.4520    8.5764 N   0  0  0  0  0  0
   -0.2713   29.6934    9.2756 C   0  0  0  0  0  0
   -0.8963   28.5797    9.7735 O   0  0  0  0  0  0
   -0.8606   30.9638    9.2697 C   0  0  0  0  0  0
   -1.9636   31.4978    9.8764 N   0  0  0  0  0  0
   -0.9494   33.0520    8.5874 N   0  0  0  0  0  0
   -0.2186   31.9095    8.4375 C   0  0  0  0  0  0
    0.8580   31.6987    7.6746 N   0  0  0  0  0  0
    2.4579   30.1501    6.9916 N   0  0  0  0  0  0
    3.3570   29.0695    7.0107 C   0  0  0  0  0  0
    3.9200   28.6517    5.8041 C   0  0  0  0  0  0
    6.6645   25.9962    6.1009 H   0  0  0  0  0  0
   -2.6631   33.4964    9.7839 H   0  0  0  0  0  0
   -2.2445   28.0564   11.1796 H   0  0  0  0  0  0
   -1.4380   29.5495   11.5652 H   0  0  0  0  0  0
    0.6137   28.4758   12.1561 H   0  0  0  0  0  0
   -1.2640   28.1916   13.7869 H   0  0  0  0  0  0
    0.0563   27.0542   13.9818 H   0  0  0  0  0  0
   -2.6900   26.4949   12.7512 H   0  0  0  0  0  0
   -2.0492   25.8318   14.2239 H   0  0  0  0  0  0
   -1.9410   24.2136   12.2874 H   0  0  0  0  0  0
   -0.3874   24.5080   13.0176 H   0  0  0  0  0  0
   -1.4184   25.7310   10.4084 H   0  0  0  0  0  0
   -0.1315   24.5670   10.5714 H   0  0  0  0  0  0
    1.2665   26.1984   11.8099 H   0  0  0  0  0  0
    0.7979   26.8429   10.2632 H   0  0  0  0  0  0
    5.2927   27.3210    4.8346 H   0  0  0  0  0  0
    5.0839   27.0534    9.0955 H   0  0  0  0  0  0
    3.3702   28.8031    9.1528 H   0  0  0  0  0  0
   -0.7960   33.9584    8.1647 H   0  0  0  0  0  0
    2.7720   30.9311    6.4339 H   0  0  0  0  0  0
    3.6578   29.1378    4.8851 H   0  0  0  0  0  0
  1 15  2  0  0  0
  1 22  1  0  0  0
  1 23  1  0  0  0
  2 12  1  0  0  0
  2 26  1  0  0  0
  3 19  2  0  0  0
  3 20  1  0  0  0
  3 27  1  0  0  0
  4  5  1  0  0  0
  4 17  1  0  0  0
  4 28  1  0  0  0
  4 29  1  0  0  0
  5  6  1  0  0  0
  5 10  1  0  0  0
  5 30  1  0  0  0
  6  7  1  0  0  0
  6 31  1  0  0  0
  6 32  1  0  0  0
  7  8  1  0  0  0
  7 33  1  0  0  0
  7 34  1  0  0  0
  8  9  1  0  0  0
  8 35  1  0  0  0
  8 36  1  0  0  0
  9 10  1  0  0  0
  9 37  1  0  0  0
  9 38  1  0  0  0
 10 39  1  0  0  0
 10 40  1  0  0  0
 11 12  2  0  0  0
 11 25  1  0  0  0
 11 41  1  0  0  0
 12 13  1  0  0  0
 13 14  2  0  0  0
 13 42  1  0  0  0
 14 24  1  0  0  0
 14 43  1  0  0  0
 15 16  1  0  0  0
 16 17  1  0  0  0
 16 18  2  0  0  0
 18 19  1  0  0  0
 18 21  1  0  0  0
 20 21  1  0  0  0
 20 44  1  0  0  0
 21 22  2  0  0  0
 23 24  1  0  0  0
 23 45  1  0  0  0
 24 25  2  0  0  0
 25 46  1  0  0  0
M  END
> <s_m_entry_id>
32960

> <s_m_entry_name>
dock_pv.361

> <s_m_Source_Path>
/home/csk/Desktop/cluster/DUD-E-result/cdk2

> <s_m_Source_File>
dock_pv.maegz

> <i_m_Source_File_Index>
361

> <chembl_id>
CHEMBL340813

> <chembl_pref_name>
None

> <i_lp_mmshare_version>
53161

> <i_f3d_flags>
0

> <r_lp_tautomer_probability>
0.990858854461918

> <s_lp_Force_Field>
OPLS_2005

> <r_lp_Energy>
13.881136

> <b_lp_Chiralities_Consistent>
1

> <s_lp_Variant>
CHEMBL301_lig733-1

> <s_i_glide_gridfile>
glide-grid_1h00

> <i_i_glide_lignum>
1049

> <i_i_glide_rotatable_bonds>
6

> <r_i_docking_score>
-7.34015408936248

> <r_i_glide_ligand_efficiency>
-0.293606163574499

> <r_i_glide_ligand_efficiency_sa>
-0.858509629419318

> <r_i_glide_ligand_efficiency_ln>
-1.73983648584674

> <r_i_glide_gscore>
-7.34015408936248

> <r_i_glide_lipo>
-2.27873582756628

> <r_i_glide_hbond>
-0.252840763701788

> <r_i_glide_metal>
0

> <r_i_glide_rewards>
-2.93368149228928

> <r_i_glide_evdw>
-39.3901748657227

> <r_i_glide_ecoul>
-4.8456072807312

> <r_i_glide_erotb>
0.82145382959068

> <r_i_glide_esite>
0

> <r_i_glide_emodel>
-55.9631677191519

> <r_i_glide_energy>
-44.2357821464539

> <r_i_glide_einternal>
12.3033905029297

> <i_i_glide_confnum>
154

> <i_i_glide_posenum>
192

> <r_i_glide_eff_state_penalty>
0

> <s_user_duplicate_titles>
CHEMBL301_lig733

> <s_m_subgroup_title>
dock_pv

> <s_m_subgroupid>
dock_pv

> <b_m_subgroup_collapsed>
1

$$$$
CHEMBL301_lig1400
                    3D
 Schrodinger Suite 2021-1.
 51 53  0  0  1  0            999 V2000
   -0.6096   27.1344    9.9967 C   0  0  0  0  0  0
   -0.6118   28.3996   10.8767 C   0  0  1  0  0  0
   -1.2318   29.5285   10.1698 N   0  0  0  0  0  0
   -0.5189   30.3486    9.2779 C   0  0  0  0  0  0
    0.5726   29.8522    8.6306 N   0  0  0  0  0  0
    1.2308   30.6791    7.7757 C   0  0  0  0  0  0
    2.3851   30.2370    7.1120 N   0  0  0  0  0  0
    3.1907   29.0938    7.2554 C   0  0  0  0  0  0
    3.9534   28.6835    6.1568 C   0  0  0  0  0  0
    4.7852   27.5739    6.2412 C   0  0  0  0  0  0
    4.8183   26.8414    7.4242 C   0  0  0  0  0  0
    4.0530   27.2370    8.5201 C   0  0  0  0  0  0
    3.2598   28.3744    8.4503 C   0  0  0  0  0  0
    5.7916   25.3567    7.5643 S   0  0  1  0  0  0
    6.8617   25.7805    8.5759 N   0  0  0  0  0  0
    4.8680   24.2376    7.7750 O   0  0  0  0  0  0
    6.7377   25.1196    5.9272 C   0  0  0  0  0  0
    7.9982   25.9258    5.6993 C   0  0  0  0  0  0
    8.0891   24.4439    6.0003 C   0  0  0  0  0  0
    0.8645   31.9579    7.5062 N   0  0  0  0  0  0
   -0.1972   32.4501    8.1912 C   0  0  0  0  0  0
   -0.9263   31.6778    9.0950 C   0  0  0  0  0  0
   -2.3801   32.4541   10.0543 Br  0  0  0  0  0  0
   -1.2402   28.1696   12.2943 C   0  0  0  0  0  0
   -0.6109   26.9883   13.0585 C   0  0  0  0  0  0
   -1.1366   29.4468   13.1517 C   0  0  0  0  0  0
   -2.6153   27.8521   12.1730 O   0  0  0  0  0  0
    0.1137   26.4006   10.3513 H   0  0  0  0  0  0
   -1.5849   26.6526    9.9649 H   0  0  0  0  0  0
   -0.3419   27.3861    8.9759 H   0  0  0  0  0  0
    0.4353   28.6628   11.0418 H   0  0  0  0  0  0
   -2.0088   29.9617   10.6490 H   0  0  0  0  0  0
    2.7872   30.9293    6.4958 H   0  0  0  0  0  0
    3.9241   29.2492    5.2372 H   0  0  0  0  0  0
    5.3792   27.2901    5.3855 H   0  0  0  0  0  0
    4.0580   26.6511    9.4210 H   0  0  0  0  0  0
    2.6975   28.6717    9.3219 H   0  0  0  0  0  0
    6.4589   25.8675    9.5141 H   0  0  0  0  0  0
    6.0621   24.8974    5.1008 H   0  0  0  0  0  0
    8.2077   26.2814    4.6897 H   0  0  0  0  0  0
    8.3133   26.6456    6.4554 H   0  0  0  0  0  0
    8.4701   24.1253    6.9710 H   0  0  0  0  0  0
    8.3692   23.7562    5.2012 H   0  0  0  0  0  0
   -0.4584   33.4810    8.0000 H   0  0  0  0  0  0
    0.4578   27.1328   13.1868 H   0  0  0  0  0  0
   -0.7562   26.0408   12.5394 H   0  0  0  0  0  0
   -1.0454   26.8744   14.0522 H   0  0  0  0  0  0
   -0.0981   29.7552   13.2626 H   0  0  0  0  0  0
   -1.6671   30.2830   12.7007 H   0  0  0  0  0  0
   -1.5421   29.3077   14.1531 H   0  0  0  0  0  0
   -3.0824   28.2435   12.9289 H   0  0  0  0  0  0
  1  2  1  0  0  0
  1 28  1  0  0  0
  1 29  1  0  0  0
  1 30  1  0  0  0
  2  3  1  0  0  0
  2 24  1  0  0  0
  2 31  1  0  0  0
  3  4  1  0  0  0
  3 32  1  0  0  0
  4  5  2  0  0  0
  4 22  1  0  0  0
  5  6  1  0  0  0
  6  7  1  0  0  0
  6 20  2  0  0  0
  7  8  1  0  0  0
  7 33  1  0  0  0
  8  9  2  0  0  0
  8 13  1  0  0  0
  9 10  1  0  0  0
  9 34  1  0  0  0
 10 11  2  0  0  0
 10 35  1  0  0  0
 11 12  1  0  0  0
 11 14  1  0  0  0
 12 13  2  0  0  0
 12 36  1  0  0  0
 13 37  1  0  0  0
 14 15  2  0  0  0
 14 16  2  0  0  0
 14 17  1  0  0  0
 15 38  1  0  0  0
 17 18  1  0  0  0
 17 19  1  0  0  0
 17 39  1  0  0  0
 18 19  1  0  0  0
 18 40  1  0  0  0
 18 41  1  0  0  0
 19 42  1  0  0  0
 19 43  1  0  0  0
 20 21  1  0  0  0
 21 22  2  0  0  0
 21 44  1  0  0  0
 22 23  1  0  0  0
 24 25  1  0  0  0
 24 26  1  0  0  0
 24 27  1  0  0  0
 25 45  1  0  0  0
 25 46  1  0  0  0
 25 47  1  0  0  0
 26 48  1  0  0  0
 26 49  1  0  0  0
 26 50  1  0  0  0
 27 51  1  0  0  0
M  END
> <s_m_entry_id>
32961

> <s_m_entry_name>
dock_pv.362

> <s_m_Source_Path>
/home/csk/Desktop/cluster/DUD-E-result/cdk2

> <s_m_Source_File>
dock_pv.maegz

> <i_m_Source_File_Index>
362

> <chembl_id>
CHEMBL3648074

> <chembl_pref_name>
None

> <i_lp_mmshare_version>
53161

> <i_f3d_flags>
0

> <r_lp_tautomer_probability>
0.999999624730965

> <s_lp_Force_Field>
OPLS_2005

> <r_lp_Energy>
16.404247

> <b_lp_Chiralities_Consistent>
1

> <s_lp_Variant>
CHEMBL301_lig1400-2

> <s_i_glide_gridfile>
glide-grid_1h00

> <i_i_glide_lignum>
1902

> <i_i_glide_rotatable_bonds>
8

> <r_i_docking_score>
-7.3386696494997

> <r_i_glide_ligand_efficiency>
-0.2718025796111

> <r_i_glide_ligand_efficiency_sa>
-0.815407737937483

> <r_i_glide_ligand_efficiency_ln>
-1.70832130697868

> <r_i_glide_gscore>
-7.3386696494997

> <r_i_glide_lipo>
-2.68316898413807

> <r_i_glide_hbond>
-0.490956862650955

> <r_i_glide_metal>
0

> <r_i_glide_rewards>
-1.24808516454884

> <r_i_glide_evdw>
-37.4551124572754

> <r_i_glide_ecoul>
-11.4967737197876

> <r_i_glide_erotb>
0.680813042670079

> <r_i_glide_esite>
0

> <r_i_glide_emodel>
-69.1686316472641

> <r_i_glide_energy>
-48.951886177063

> <r_i_glide_einternal>
5.67164850234985

> <i_i_glide_confnum>
25

> <i_i_glide_posenum>
9

> <r_i_glide_eff_state_penalty>
0

> <s_user_duplicate_titles>
CHEMBL301_lig1400

> <s_m_subgroup_title>
dock_pv

> <s_m_subgroupid>
dock_pv

> <b_m_subgroup_collapsed>
1

$$$$
CHEMBL301_lig667
                    3D
 Schrodinger Suite 2021-1.
 34 36  0  0  1  0            999 V2000
    0.0938   30.7041    8.4175 C   0  0  0  0  0  0
   -0.6294   31.8769    8.5760 C   0  0  0  0  0  0
    0.1398   32.8099    7.9290 N   0  0  0  0  0  0
    1.2554   32.3171    7.3759 N   0  0  0  0  0  0
    1.2603   31.0493    7.7107 C   0  0  0  0  0  0
    2.3378   30.2515    7.3535 N   0  0  0  0  0  0
    2.7733   29.1889    8.0636 C   0  0  0  0  0  0
    3.8784   28.3639    7.4434 C   0  0  0  0  0  0
    2.3043   28.8562    9.1534 O   0  0  0  0  0  0
   -1.9422   32.2083    9.2506 C   0  0  0  0  0  0
    4.0757   28.3303    6.0550 C   0  0  0  0  0  0
    5.0031   27.4540    5.4989 C   0  0  0  0  0  0
    5.7669   26.6128    6.3217 C   0  0  0  0  0  0
    5.5790   26.6590    7.7016 C   0  0  0  0  0  0
    4.6428   27.5224    8.2560 C   0  0  0  0  0  0
   -3.0220   31.1587    9.3683 C   0  0  0  0  0  0
   -2.2610   31.6099   10.5957 C   0  0  0  0  0  0
    6.7165   25.7194    5.8614 O   0  0  0  0  0  0
    7.0125   25.6831    4.4691 C   0  0  0  0  0  0
   -0.1667   29.7280    8.7999 H   0  0  0  0  0  0
   -0.1052   33.7864    7.8238 H   0  0  0  0  0  0
    2.9813   30.6333    6.6727 H   0  0  0  0  0  0
   -2.2756   33.2338    9.0937 H   0  0  0  0  0  0
    3.4948   28.9487    5.3861 H   0  0  0  0  0  0
    5.1215   27.4416    4.4265 H   0  0  0  0  0  0
    6.1531   26.0137    8.3496 H   0  0  0  0  0  0
    4.5009   27.5082    9.3290 H   0  0  0  0  0  0
   -4.0655   31.4521    9.2590 H   0  0  0  0  0  0
   -2.8342   30.1607    8.9760 H   0  0  0  0  0  0
   -1.5470   30.9240   11.0540 H   0  0  0  0  0  0
   -2.7594   32.2376   11.3364 H   0  0  0  0  0  0
    7.7986   24.9508    4.2866 H   0  0  0  0  0  0
    7.3769   26.6491    4.1144 H   0  0  0  0  0  0
    6.1415   25.3875    3.8815 H   0  0  0  0  0  0
  1  5  1  0  0  0
  1  2  2  0  0  0
  1 20  1  0  0  0
  2 10  1  0  0  0
  2  3  1  0  0  0
  3  4  1  0  0  0
  3 21  1  0  0  0
  4  5  2  0  0  0
  5  6  1  0  0  0
  6  7  1  0  0  0
  6 22  1  0  0  0
  7  8  1  0  0  0
  7  9  2  0  0  0
  8 11  2  0  0  0
  8 15  1  0  0  0
 10 16  1  0  0  0
 10 17  1  0  0  0
 10 23  1  0  0  0
 11 12  1  0  0  0
 11 24  1  0  0  0
 12 13  2  0  0  0
 12 25  1  0  0  0
 13 14  1  0  0  0
 13 18  1  0  0  0
 14 15  2  0  0  0
 14 26  1  0  0  0
 15 27  1  0  0  0
 16 17  1  0  0  0
 16 28  1  0  0  0
 16 29  1  0  0  0
 17 30  1  0  0  0
 17 31  1  0  0  0
 18 19  1  0  0  0
 19 32  1  0  0  0
 19 33  1  0  0  0
 19 34  1  0  0  0
M  END
> <s_m_entry_id>
32962

> <s_m_entry_name>
dock_pv.363

> <s_m_Source_Path>
/home/csk/Desktop/cluster/DUD-E-result/cdk2

> <s_m_Source_File>
dock_pv.maegz

> <i_m_Source_File_Index>
363

> <chembl_id>
CHEMBL111897

> <chembl_pref_name>
None

> <i_lp_mmshare_version>
53161

> <i_f3d_flags>
0

> <r_lp_tautomer_probability>
0.5

> <s_lp_Force_Field>
OPLS_2005

> <r_lp_Energy>
20.290956

> <b_lp_Chiralities_Consistent>
1

> <s_lp_Variant>
CHEMBL301_lig667-1

> <s_i_glide_gridfile>
glide-grid_1h00

> <i_i_glide_lignum>
918

> <i_i_glide_rotatable_bonds>
5

> <r_i_docking_score>
-7.33664361159637

> <r_i_glide_ligand_efficiency>
-0.386139137452441

> <r_i_glide_ligand_efficiency_sa>
-1.03037431000287

> <r_i_glide_ligand_efficiency_ln>
-1.85999673219607

> <r_i_glide_gscore>
-7.33664361159637

> <r_i_glide_lipo>
-2.13060613848615

> <r_i_glide_hbond>
-0.602652312439207

> <r_i_glide_metal>
0

> <r_i_glide_rewards>
-3.11737258105653

> <r_i_glide_evdw>
-29.3561916351318

> <r_i_glide_ecoul>
-5.09638071060181

> <r_i_glide_erotb>
0.746254108732378

> <r_i_glide_esite>
0

> <r_i_glide_emodel>
-46.9107208083399

> <r_i_glide_energy>
-34.4525723457336

> <r_i_glide_einternal>
2.97443819046021

> <i_i_glide_confnum>
4

> <i_i_glide_posenum>
282

> <r_i_glide_eff_state_penalty>
0

> <s_user_duplicate_titles>
CHEMBL301_lig667,186824

> <s_m_subgroup_title>
dock_pv

> <s_m_subgroupid>
dock_pv

> <b_m_subgroup_collapsed>
1

$$$$
CHEMBL301_lig1378
                    3D
 Schrodinger Suite 2021-1.
 44 45  0  0  1  0            999 V2000
   -2.2795   27.2370   12.5768 C   0  0  0  0  0  0
   -0.8632   27.8316   12.4511 C   0  0  1  0  0  0
    0.0578   26.8763   12.9518 O   0  0  0  0  0  0
   -0.4756   28.2629   11.0101 C   0  0  1  0  0  0
   -0.5653   27.1101    9.9841 C   0  0  0  0  0  0
   -1.2232   29.4477   10.5638 N   0  0  0  0  0  0
   -0.6916   30.3378    9.6104 C   0  0  0  0  0  0
    0.3482   29.9256    8.8359 N   0  0  0  0  0  0
    0.8937   30.8133    7.9698 C   0  0  0  0  0  0
    2.0337   30.4489    7.2435 N   0  0  0  0  0  0
    2.9193   29.3674    7.3742 C   0  0  0  0  0  0
    3.0940   28.6643    8.5693 C   0  0  0  0  0  0
    3.9695   27.5855    8.6207 C   0  0  0  0  0  0
    4.7055   27.2201    7.4938 C   0  0  0  0  0  0
    4.5562   27.9356    6.3061 C   0  0  0  0  0  0
    3.6580   28.9954    6.2516 C   0  0  0  0  0  0
    5.7863   25.7957    7.5816 S   0  0  1  0  0  0
    6.8579   26.2311    8.5760 N   0  0  0  0  0  0
    4.9657   24.5921    7.7426 O   0  0  0  0  0  0
    6.7648   25.7055    5.9784 C   0  0  0  0  0  0
    0.4579   32.0828    7.7840 N   0  0  0  0  0  0
   -0.5756   32.4858    8.5754 C   0  0  0  0  0  0
   -1.1905   31.6435    9.5051 C   0  0  0  0  0  0
   -2.6299   32.2931   10.5759 Br  0  0  0  0  0  0
   -3.0296   27.9197   12.1757 H   0  0  0  0  0  0
   -2.5339   27.0521   13.6205 H   0  0  0  0  0  0
   -2.3799   26.2894   12.0472 H   0  0  0  0  0  0
   -0.8086   28.7044   13.1031 H   0  0  0  0  0  0
    0.9506   27.2519   12.9759 H   0  0  0  0  0  0
    0.5755   28.5524   11.0535 H   0  0  0  0  0  0
    0.1385   26.3125   10.2233 H   0  0  0  0  0  0
   -1.5566   26.6687    9.9415 H   0  0  0  0  0  0
   -0.3392   27.4532    8.9764 H   0  0  0  0  0  0
   -1.9332   29.8159   11.1842 H   0  0  0  0  0  0
    2.3429   31.1502    6.5892 H   0  0  0  0  0  0
    2.5569   28.9356    9.4620 H   0  0  0  0  0  0
    4.0577   27.0380    9.5445 H   0  0  0  0  0  0
    5.1152   27.6783    5.4205 H   0  0  0  0  0  0
    3.5516   29.5407    5.3291 H   0  0  0  0  0  0
    6.4693   26.2521    9.5226 H   0  0  0  0  0  0
    7.2839   26.6519    5.8229 H   0  0  0  0  0  0
    7.4903   24.8973    6.0617 H   0  0  0  0  0  0
    6.0821   25.5032    5.1550 H   0  0  0  0  0  0
   -0.9129   33.5036    8.4403 H   0  0  0  0  0  0
  1  2  1  0  0  0
  1 25  1  0  0  0
  1 26  1  0  0  0
  1 27  1  0  0  0
  2  3  1  0  0  0
  2  4  1  0  0  0
  2 28  1  0  0  0
  3 29  1  0  0  0
  4  5  1  0  0  0
  4  6  1  0  0  0
  4 30  1  0  0  0
  5 31  1  0  0  0
  5 32  1  0  0  0
  5 33  1  0  0  0
  6  7  1  0  0  0
  6 34  1  0  0  0
  7  8  2  0  0  0
  7 23  1  0  0  0
  8  9  1  0  0  0
  9 10  1  0  0  0
  9 21  2  0  0  0
 10 11  1  0  0  0
 10 35  1  0  0  0
 11 12  2  0  0  0
 11 16  1  0  0  0
 12 13  1  0  0  0
 12 36  1  0  0  0
 13 14  2  0  0  0
 13 37  1  0  0  0
 14 15  1  0  0  0
 14 17  1  0  0  0
 15 16  2  0  0  0
 15 38  1  0  0  0
 16 39  1  0  0  0
 17 18  2  0  0  0
 17 19  2  0  0  0
 17 20  1  0  0  0
 18 40  1  0  0  0
 20 41  1  0  0  0
 20 42  1  0  0  0
 20 43  1  0  0  0
 21 22  1  0  0  0
 22 23  2  0  0  0
 22 44  1  0  0  0
 23 24  1  0  0  0
M  END
> <s_m_entry_id>
32963

> <s_m_entry_name>
dock_pv.364

> <s_m_Source_Path>
/home/csk/Desktop/cluster/DUD-E-result/cdk2

> <s_m_Source_File>
dock_pv.maegz

> <i_m_Source_File_Index>
364

> <chembl_id>
CHEMBL3648071

> <chembl_pref_name>
None

> <i_lp_mmshare_version>
53161

> <i_f3d_flags>
0

> <r_lp_tautomer_probability>
0.999999624730965

> <s_lp_Force_Field>
OPLS_2005

> <r_lp_Energy>
8.105854

> <b_lp_Chiralities_Consistent>
1

> <s_lp_Variant>
CHEMBL301_lig1378-2

> <s_i_glide_gridfile>
glide-grid_1h00

> <i_i_glide_lignum>
1850

> <i_i_glide_rotatable_bonds>
7

> <r_i_docking_score>
-7.33647470558793

> <r_i_glide_ligand_efficiency>
-0.305686446066164

> <r_i_glide_ligand_efficiency_sa>
-0.881752290041362

> <r_i_glide_ligand_efficiency_ln>
-1.7559550459351

> <r_i_glide_gscore>
-7.33647470558793

> <r_i_glide_lipo>
-2.48809303643986

> <r_i_glide_hbond>
-0.480616224396888

> <r_i_glide_metal>
0

> <r_i_glide_rewards>
-1.35878455283979

> <r_i_glide_evdw>
-37.3592262268066

> <r_i_glide_ecoul>
-11.4392118453979

> <r_i_glide_erotb>
0.574862196238635

> <r_i_glide_esite>
0

> <r_i_glide_emodel>
-68.7959582449425

> <r_i_glide_energy>
-48.7984380722046

> <r_i_glide_einternal>
4.94259119033813

> <i_i_glide_confnum>
83

> <i_i_glide_posenum>
205

> <r_i_glide_eff_state_penalty>
0

> <s_user_duplicate_titles>
CHEMBL301_lig1378

> <s_m_subgroup_title>
dock_pv

> <s_m_subgroupid>
dock_pv

> <b_m_subgroup_collapsed>
1

$$$$
CHEMBL301_lig1249
                    3D
 Schrodinger Suite 2021-1.
 57 60  0  0  1  0            999 V2000
    2.0557   29.0489    8.9760 C   0  0  0  0  0  0
    3.0374   29.5953    8.1416 C   0  0  0  0  0  0
    4.1031   28.8307    7.6721 C   0  0  0  0  0  0
    2.2214   27.7378    9.4223 C   0  0  0  0  0  0
    3.2335   26.8944    8.8963 C   0  0  0  0  0  0
    4.1791   27.4552    7.9876 C   0  0  0  0  0  0
    5.1069   26.6906    7.3517 N   0  0  0  0  0  0
    5.0785   25.3373    7.5127 C   0  0  0  0  0  0
    4.1506   24.7122    8.3581 C   0  0  0  0  0  0
    3.2580   25.4829    9.1062 C   0  0  0  0  0  0
    0.8157   29.7954    9.3489 C   0  0  0  0  0  0
    2.3939   24.8405   10.1555 C   0  0  0  0  0  0
    1.3696   24.2196    9.9000 O   0  0  0  0  0  0
    2.8579   25.0527   11.4167 O   0  0  0  0  0  0
    6.1273   24.5121    6.7918 C   0  0  0  0  0  0
    6.9883   25.1702    5.9877 N   0  0  0  0  0  0
    6.1995   23.2950    6.9761 O   0  0  0  0  0  0
    8.1506   24.5838    5.2917 C   0  0  2  0  0  0
    9.3978   25.3413    5.7425 C   0  0  0  0  0  0
    7.9440   24.5782    3.7501 C   0  0  0  0  0  0
    7.6580   25.9046    3.0544 C   0  0  0  0  0  0
   10.5057   24.8649    5.1327 O   0  0  0  0  0  0
    9.3957   26.2520    6.5759 O   0  0  0  0  0  0
   11.7735   25.4546    5.3753 C   0  0  0  0  0  0
    6.3527   26.1914    2.6053 C   0  0  0  0  0  0
    6.0874   27.3812    1.9030 C   0  0  0  0  0  0
    7.1234   28.3018    1.6601 C   0  0  0  0  0  0
    8.4277   28.0303    2.1177 C   0  0  0  0  0  0
    8.6966   26.8285    2.8020 C   0  0  0  0  0  0
    6.8580   29.4520    0.9761 O   0  0  0  0  0  0
    0.1794   29.5720   10.5825 C   0  0  0  0  0  0
   -0.9508   30.2968   10.9431 C   0  0  0  0  0  0
   -1.4374   31.2747   10.0817 C   0  0  0  0  0  0
   -0.8530   31.4790    8.8376 C   0  0  0  0  0  0
    0.2539   30.7246    8.4628 C   0  0  0  0  0  0
   -2.7420   32.2796   10.5757 Cl  0  0  0  0  0  0
    2.9647   30.6210    7.8098 H   0  0  0  0  0  0
    4.8238   29.2665    6.9928 H   0  0  0  0  0  0
    1.4666   27.2984   10.0561 H   0  0  0  0  0  0
    4.1580   23.6375    8.4774 H   0  0  0  0  0  0
    3.7027   25.5331   11.3763 H   0  0  0  0  0  0
    6.8320   26.1535    5.8115 H   0  0  0  0  0  0
    8.2904   23.5471    5.6063 H   0  0  0  0  0  0
    7.1215   23.8987    3.5203 H   0  0  0  0  0  0
    8.8085   24.1293    3.2580 H   0  0  0  0  0  0
   12.5402   24.9209    4.8152 H   0  0  0  0  0  0
   11.7850   26.4975    5.0545 H   0  0  0  0  0  0
   12.0345   25.4160    6.4337 H   0  0  0  0  0  0
    5.5506   25.4854    2.7688 H   0  0  0  0  0  0
    5.0859   27.5719    1.5474 H   0  0  0  0  0  0
    9.2330   28.7262    1.9326 H   0  0  0  0  0  0
    9.7075   26.6179    3.1197 H   0  0  0  0  0  0
    7.5818   30.0908    1.0470 H   0  0  0  0  0  0
    0.5769   28.8618   11.2925 H   0  0  0  0  0  0
   -1.4183   30.1405   11.9054 H   0  0  0  0  0  0
   -1.2457   32.2361    8.1758 H   0  0  0  0  0  0
    0.6970   30.8999    7.4938 H   0  0  0  0  0  0
  1  2  2  0  0  0
  1  4  1  0  0  0
  1 11  1  0  0  0
  2  3  1  0  0  0
  2 37  1  0  0  0
  3  6  2  0  0  0
  3 38  1  0  0  0
  4  5  2  0  0  0
  4 39  1  0  0  0
  5  6  1  0  0  0
  5 10  1  0  0  0
  6  7  1  0  0  0
  7  8  2  0  0  0
  8  9  1  0  0  0
  8 15  1  0  0  0
  9 10  2  0  0  0
  9 40  1  0  0  0
 10 12  1  0  0  0
 11 31  2  0  0  0
 11 35  1  0  0  0
 12 13  2  0  0  0
 12 14  1  0  0  0
 14 41  1  0  0  0
 15 16  1  0  0  0
 15 17  2  0  0  0
 16 18  1  0  0  0
 16 42  1  0  0  0
 18 19  1  0  0  0
 18 20  1  0  0  0
 18 43  1  0  0  0
 19 22  1  0  0  0
 19 23  2  0  0  0
 20 21  1  0  0  0
 20 44  1  0  0  0
 20 45  1  0  0  0
 21 25  2  0  0  0
 21 29  1  0  0  0
 22 24  1  0  0  0
 24 46  1  0  0  0
 24 47  1  0  0  0
 24 48  1  0  0  0
 25 26  1  0  0  0
 25 49  1  0  0  0
 26 27  2  0  0  0
 26 50  1  0  0  0
 27 28  1  0  0  0
 27 30  1  0  0  0
 28 29  2  0  0  0
 28 51  1  0  0  0
 29 52  1  0  0  0
 30 53  1  0  0  0
 31 32  1  0  0  0
 31 54  1  0  0  0
 32 33  2  0  0  0
 32 55  1  0  0  0
 33 34  1  0  0  0
 33 36  1  0  0  0
 34 35  2  0  0  0
 34 56  1  0  0  0
 35 57  1  0  0  0
M  END
> <s_m_entry_id>
32964

> <s_m_entry_name>
dock_pv.365

> <s_m_Source_Path>
/home/csk/Desktop/cluster/DUD-E-result/cdk2

> <s_m_Source_File>
dock_pv.maegz

> <i_m_Source_File_Index>
365

> <chembl_id>
CHEMBL3099757

> <chembl_pref_name>
None

> <i_lp_mmshare_version>
53161

> <i_f3d_flags>
0

> <r_lp_tautomer_probability>
0.999999999997365

> <s_lp_Force_Field>
OPLS_2005

> <r_lp_Energy>
26.858729

> <b_lp_Chiralities_Consistent>
1

> <s_lp_Variant>
CHEMBL301_lig1249-1

> <s_i_glide_gridfile>
glide-grid_1h00

> <i_i_glide_lignum>
1663

> <i_i_glide_rotatable_bonds>
11

> <r_i_docking_score>
-7.33527483806819

> <r_i_glide_ligand_efficiency>
-0.203757634390783

> <r_i_glide_ligand_efficiency_sa>
-0.67279288436158

> <r_i_glide_ligand_efficiency_ln>
-1.60035879344244

> <r_i_glide_gscore>
-7.33527483806819

> <r_i_glide_lipo>
-2.97707128189086

> <r_i_glide_hbond>
-0.399176604480258

> <r_i_glide_metal>
0

> <r_i_glide_rewards>
-0.594531990360379

> <r_i_glide_evdw>
-43.9705085754395

> <r_i_glide_ecoul>
-12.0090494155884

> <r_i_glide_erotb>
0.641709530741161

> <r_i_glide_esite>
-0.0063216509676187

> <r_i_glide_emodel>
-72.4004212345977

> <r_i_glide_energy>
-55.9795579910278

> <r_i_glide_einternal>
10.7482118606567

> <i_i_glide_confnum>
4

> <i_i_glide_posenum>
15

> <r_i_glide_eff_state_penalty>
0

> <s_user_duplicate_titles>
CHEMBL301_lig1249

> <s_m_subgroup_title>
dock_pv

> <s_m_subgroupid>
dock_pv

> <b_m_subgroup_collapsed>
1

$$$$
CHEMBL301_lig917
                    3D
 Schrodinger Suite 2021-1.
 51 56  0  0  1  0            999 V2000
   -0.0342   28.1636   10.6895 C   0  0  0  0  0  0
    0.9556   27.2375   10.8693 C   0  0  0  0  0  0
    0.5037   26.3407   11.8367 N   0  0  0  0  0  0
   -0.7365   26.6465   12.2876 C   0  0  0  0  0  0
   -1.1141   27.8612   11.4984 C   0  0  0  0  0  0
   -2.2721   28.6467   11.4290 C   0  0  0  0  0  0
    0.0183   29.2289    9.7765 C   0  0  0  0  0  0
    2.1171   27.3181   10.1011 C   0  0  0  0  0  0
    2.2418   28.3456    9.1066 C   0  0  0  0  0  0
    1.1854   29.3273    8.9760 C   0  0  0  0  0  0
    1.2854   30.3277    7.9809 C   0  0  0  0  0  0
    2.3637   30.3429    7.1218 C   0  0  0  0  0  0
    3.3556   29.3869    7.2172 C   0  0  0  0  0  0
    3.3370   28.3723    8.1792 C   0  0  0  0  0  0
   -1.3783   26.0385   13.1412 O   0  0  0  0  0  0
   -1.1682   30.0203    9.7386 C   0  0  0  0  0  0
   -2.2609   29.7107   10.5195 C   0  0  0  0  0  0
   -3.2904   30.5325   10.1760 O   0  0  0  0  0  0
   -2.7156   31.5521    9.4129 C   0  0  0  0  0  0
   -1.4964   31.0668    8.9320 O   0  0  0  0  0  0
    4.2875   27.3543    8.1951 O   0  0  0  0  0  0
    5.1730   27.2000    7.1028 C   0  0  2  0  0  0
    4.4580   26.9053    5.9225 O   0  0  0  0  0  0
    5.2759   26.8835    4.7425 C   0  0  1  0  0  0
    6.3520   25.7720    4.8463 C   0  0  2  0  0  0
    7.0847   25.8090    6.2066 C   0  0  1  0  0  0
    6.1145   26.0227    7.3981 C   0  0  1  0  0  0
    6.8580   26.2519    8.5760 O   0  0  0  0  0  0
    7.9020   24.6588    6.3840 O   0  0  0  0  0  0
    7.2762   25.8506    3.7714 O   0  0  0  0  0  0
    4.3928   26.7630    3.4758 C   0  0  0  0  0  0
    3.7260   25.5162    3.3760 O   0  0  0  0  0  0
    1.0436   25.5697   12.1944 H   0  0  0  0  0  0
   -3.1423   28.4307   12.0316 H   0  0  0  0  0  0
    2.9057   26.5862   10.2050 H   0  0  0  0  0  0
    0.5261   31.0808    7.8561 H   0  0  0  0  0  0
    2.4348   31.0977    6.3526 H   0  0  0  0  0  0
    4.1451   29.4510    6.4868 H   0  0  0  0  0  0
   -2.5466   32.4274   10.0445 H   0  0  0  0  0  0
   -3.3690   31.8418    8.5907 H   0  0  0  0  0  0
    5.7393   28.1240    6.9581 H   0  0  0  0  0  0
    5.7704   27.8520    4.6677 H   0  0  0  0  0  0
    5.8532   24.8054    4.7552 H   0  0  0  0  0  0
    7.7784   26.6520    6.1975 H   0  0  0  0  0  0
    5.5006   25.1331    7.5511 H   0  0  0  0  0  0
    6.2428   26.2520    9.3277 H   0  0  0  0  0  0
    7.3506   23.8754    6.3292 H   0  0  0  0  0  0
    7.9364   26.5184    3.9795 H   0  0  0  0  0  0
    5.0085   26.8840    2.5833 H   0  0  0  0  0  0
    3.6580   27.5672    3.4497 H   0  0  0  0  0  0
    3.8242   25.1772    2.4639 H   0  0  0  0  0  0
  1  7  2  0  0  0
  1  5  1  0  0  0
  1  2  1  0  0  0
  2  3  1  0  0  0
  2  8  2  0  0  0
  3  4  1  0  0  0
  3 33  1  0  0  0
  4 15  2  0  0  0
  4  5  1  0  0  0
  5  6  2  0  0  0
  6 17  1  0  0  0
  6 34  1  0  0  0
  7 10  1  0  0  0
  7 16  1  0  0  0
  8  9  1  0  0  0
  8 35  1  0  0  0
  9 14  2  0  0  0
  9 10  1  0  0  0
 10 11  2  0  0  0
 11 12  1  0  0  0
 11 36  1  0  0  0
 12 13  2  0  0  0
 12 37  1  0  0  0
 13 14  1  0  0  0
 13 38  1  0  0  0
 14 21  1  0  0  0
 16 17  2  0  0  0
 16 20  1  0  0  0
 17 18  1  0  0  0
 18 19  1  0  0  0
 19 20  1  0  0  0
 19 39  1  0  0  0
 19 40  1  0  0  0
 21 22  1  0  0  0
 22 23  1  0  0  0
 22 27  1  0  0  0
 22 41  1  0  0  0
 23 24  1  0  0  0
 24 25  1  0  0  0
 24 31  1  0  0  0
 24 42  1  0  0  0
 25 26  1  0  0  0
 25 30  1  0  0  0
 25 43  1  0  0  0
 26 27  1  0  0  0
 26 29  1  0  0  0
 26 44  1  0  0  0
 27 28  1  0  0  0
 27 45  1  0  0  0
 28 46  1  0  0  0
 29 47  1  0  0  0
 30 48  1  0  0  0
 31 32  1  0  0  0
 31 49  1  0  0  0
 31 50  1  0  0  0
 32 51  1  0  0  0
M  END
> <s_m_entry_id>
32965

> <s_m_entry_name>
dock_pv.366

> <s_m_Source_Path>
/home/csk/Desktop/cluster/DUD-E-result/cdk2

> <s_m_Source_File>
dock_pv.maegz

> <i_m_Source_File_Index>
366

> <chembl_id>
CHEMBL601640

> <chembl_pref_name>
None

> <i_lp_mmshare_version>
53161

> <i_f3d_flags>
0

> <r_lp_tautomer_probability>
1

> <s_lp_Force_Field>
OPLS_2005

> <r_lp_Energy>
96.871194

> <b_lp_Chiralities_Consistent>
1

> <s_lp_Variant>
CHEMBL301_lig917-1

> <s_i_glide_gridfile>
glide-grid_1h00

> <i_i_glide_lignum>
1291

> <i_i_glide_rotatable_bonds>
7

> <r_i_docking_score>
-7.33421528185695

> <r_i_glide_ligand_efficiency>
-0.22919422755803

> <r_i_glide_ligand_efficiency_sa>
-0.727646315020701

> <r_i_glide_ligand_efficiency_ln>
-1.64233072476563

> <r_i_glide_gscore>
-7.33421528185695

> <r_i_glide_lipo>
-2.20724925482859

> <r_i_glide_hbond>
0

> <r_i_glide_metal>
0

> <r_i_glide_rewards>
-1.65653526277145

> <r_i_glide_evdw>
-38.518310546875

> <r_i_glide_ecoul>
-12.2485227584839

> <r_i_glide_erotb>
0.307580626956127

> <r_i_glide_esite>
-0.0148174500967124

> <r_i_glide_emodel>
-69.4618021010001

> <r_i_glide_energy>
-50.7668333053589

> <r_i_glide_einternal>
6.54540061950684

> <i_i_glide_confnum>
3

> <i_i_glide_posenum>
1

> <r_i_glide_eff_state_penalty>
0

> <s_user_duplicate_titles>
CHEMBL301_lig917

> <s_m_subgroup_title>
dock_pv

> <s_m_subgroupid>
dock_pv

> <b_m_subgroup_collapsed>
1

$$$$
CHEMBL301_lig185
                    3D
 Schrodinger Suite 2021-1.
 50 53  0  0  1  0            999 V2000
   -0.2986   28.6198   10.3779 C   0  0  0  0  0  0
   -1.5392   28.5711   11.2268 C   0  0  0  0  0  0
   -0.3409   29.8054    9.6877 C   0  0  0  0  0  0
    0.7995   27.7703   10.1942 C   0  0  0  0  0  0
   -2.1599   29.7468   10.9760 N   0  0  0  0  0  0
   -1.4667   30.5094   10.0426 C   0  0  0  0  0  0
    0.6395   30.2521    8.7818 C   0  0  0  0  0  0
    1.8058   29.4332    8.6535 C   0  0  0  0  0  0
    1.8524   28.2206    9.3761 C   0  0  0  0  0  0
    0.8867   26.4036   10.7959 C   0  0  0  0  0  0
    2.0579   25.8521   11.2642 N   0  0  0  0  0  0
    0.3849   31.5258    8.1760 C   0  0  0  0  0  0
   -1.9219   27.6985   12.0019 O   0  0  0  0  0  0
   -1.6756   31.7712    9.4944 C   0  0  0  0  0  0
   -0.0931   25.4306   10.9902 C   0  0  0  0  0  0
    1.8274   24.6007   11.7749 C   0  0  0  0  0  0
    2.8743   29.8247    7.8260 N   0  0  0  0  0  0
    0.4868   24.3138   11.6001 C   0  0  0  0  0  0
   -0.7422   32.2708    8.5759 C   0  0  0  0  0  0
    1.2568   32.0683    7.2912 F   0  0  0  0  0  0
    4.5174   27.2517    6.8246 N   0  0  0  0  0  0
    4.2668   29.4595    8.1040 C   0  0  0  0  0  0
    4.9843   28.6341    7.0106 C   0  0  0  0  0  0
    5.0716   26.6614    5.5917 C   0  0  0  0  0  0
    4.9304   26.4342    7.9798 C   0  0  0  0  0  0
    4.2816   25.0377    8.0114 C   0  0  0  0  0  0
    4.7089   27.4134    4.2983 C   0  0  0  0  0  0
   -2.9736   30.0580   11.4967 H   0  0  0  0  0  0
    2.6968   27.5693    9.2369 H   0  0  0  0  0  0
    2.9536   26.3233   11.2732 H   0  0  0  0  0  0
   -2.5324   32.3695    9.7698 H   0  0  0  0  0  0
   -1.1352   25.5276   10.7231 H   0  0  0  0  0  0
    2.6311   24.0387   12.2215 H   0  0  0  0  0  0
    2.7266   30.5961    7.1887 H   0  0  0  0  0  0
   -0.0216   23.4063   11.8916 H   0  0  0  0  0  0
   -0.8928   33.2541    8.1543 H   0  0  0  0  0  0
    4.8042   30.4065    8.1772 H   0  0  0  0  0  0
    4.3997   29.0119    9.0853 H   0  0  0  0  0  0
    4.8516   29.1926    6.0872 H   0  0  0  0  0  0
    6.0577   28.6469    7.1927 H   0  0  0  0  0  0
    6.1574   26.5632    5.6622 H   0  0  0  0  0  0
    4.6725   25.6533    5.4799 H   0  0  0  0  0  0
    6.0180   26.3367    8.0087 H   0  0  0  0  0  0
    4.6673   26.9305    8.9114 H   0  0  0  0  0  0
    4.4581   24.5658    8.9765 H   0  0  0  0  0  0
    3.2034   25.0803    7.8709 H   0  0  0  0  0  0
    4.6943   24.3756    7.2508 H   0  0  0  0  0  0
    4.8990   26.7876    3.4255 H   0  0  0  0  0  0
    3.6579   27.6944    4.2808 H   0  0  0  0  0  0
    5.3067   28.3175    4.1760 H   0  0  0  0  0  0
  1  2  1  0  0  0
  1  3  1  0  0  0
  1  4  2  0  0  0
  2  5  1  0  0  0
  2 13  2  0  0  0
  3  6  1  0  0  0
  3  7  2  0  0  0
  4  9  1  0  0  0
  4 10  1  0  0  0
  5  6  1  0  0  0
  5 28  1  0  0  0
  6 14  2  0  0  0
  7 12  1  0  0  0
  7  8  1  0  0  0
  8  9  2  0  0  0
  8 17  1  0  0  0
  9 29  1  0  0  0
 10 11  1  0  0  0
 10 15  2  0  0  0
 11 16  1  0  0  0
 11 30  1  0  0  0
 12 19  2  0  0  0
 12 20  1  0  0  0
 14 19  1  0  0  0
 14 31  1  0  0  0
 15 18  1  0  0  0
 15 32  1  0  0  0
 16 18  2  0  0  0
 16 33  1  0  0  0
 17 22  1  0  0  0
 17 34  1  0  0  0
 18 35  1  0  0  0
 19 36  1  0  0  0
 21 23  1  0  0  0
 21 24  1  0  0  0
 21 25  1  0  0  0
 22 23  1  0  0  0
 22 37  1  0  0  0
 22 38  1  0  0  0
 23 39  1  0  0  0
 23 40  1  0  0  0
 24 27  1  0  0  0
 24 41  1  0  0  0
 24 42  1  0  0  0
 25 26  1  0  0  0
 25 43  1  0  0  0
 25 44  1  0  0  0
 26 45  1  0  0  0
 26 46  1  0  0  0
 26 47  1  0  0  0
 27 48  1  0  0  0
 27 49  1  0  0  0
 27 50  1  0  0  0
M  END
> <s_m_entry_id>
32966

> <s_m_entry_name>
dock_pv.367

> <s_m_Source_Path>
/home/csk/Desktop/cluster/DUD-E-result/cdk2

> <s_m_Source_File>
dock_pv.maegz

> <i_m_Source_File_Index>
367

> <chembl_id>
CHEMBL84347

> <chembl_pref_name>
None

> <i_lp_mmshare_version>
53161

> <i_f3d_flags>
0

> <r_lp_tautomer_probability>
1

> <s_lp_Force_Field>
OPLS_2005

> <r_lp_Energy>
63.802563

> <b_lp_Chiralities_Consistent>
1

> <s_lp_Variant>
CHEMBL301_lig185-1

> <s_i_glide_gridfile>
glide-grid_1h00

> <i_i_glide_lignum>
326

> <i_i_glide_rotatable_bonds>
7

> <r_i_docking_score>
-7.32854097212089

> <r_i_glide_ligand_efficiency>
-0.271427443411885

> <r_i_glide_ligand_efficiency_sa>
-0.814282329341074

> <r_i_glide_ligand_efficiency_ln>
-1.70596351786919

> <r_i_glide_gscore>
-7.32854097212089

> <r_i_glide_lipo>
-3.47610325155112

> <r_i_glide_hbond>
-0.143906049744228

> <r_i_glide_metal>
0

> <r_i_glide_rewards>
-1.68022987663566

> <r_i_glide_evdw>
-40.9247932434082

> <r_i_glide_ecoul>
-3.9862208366394

> <r_i_glide_erotb>
0.716728246863573

> <r_i_glide_esite>
-0.100857253387131

> <r_i_glide_emodel>
-61.7804809162926

> <r_i_glide_energy>
-44.9110140800476

> <r_i_glide_einternal>
5.89960193634033

> <i_i_glide_confnum>
150

> <i_i_glide_posenum>
30

> <r_i_glide_eff_state_penalty>
0

> <s_user_duplicate_titles>
CHEMBL301_lig185,130934

> <s_m_subgroup_title>
dock_pv

> <s_m_subgroupid>
dock_pv

> <b_m_subgroup_collapsed>
1

$$$$
CHEMBL301_lig1186
                    3D
 Schrodinger Suite 2021-1.
 37 40  0  0  1  0            999 V2000
    0.0510   31.9696    8.0547 C   0  0  0  0  0  0
   -0.7989   31.2149    8.8407 C   0  0  0  0  0  0
   -0.3871   29.9627    9.2769 C   0  0  0  0  0  0
    1.2580   31.4287    7.6475 C   0  0  0  0  0  0
    0.9146   29.4523    9.0406 C   0  0  0  0  0  0
    1.7392   30.2166    8.1571 C   0  0  0  0  0  0
    3.0419   29.8650    7.7757 N   0  0  0  0  0  0
    1.3167   28.1913    9.7911 C   0  0  0  0  0  0
    2.3069   27.3961    9.5895 N   0  0  0  0  0  0
    4.6856   28.3915    7.1085 N   0  0  0  0  0  0
    3.6349   28.6525    7.8498 C   0  0  0  0  0  0
    3.2580   27.5560    8.6281 C   0  0  0  0  0  0
    4.0580   26.5063    8.1799 C   0  0  0  0  0  0
    4.9199   27.0942    7.2957 N   0  0  0  0  0  0
    4.0700   25.0214    8.4464 C   0  0  0  0  0  0
    0.4384   27.8149   10.9387 C   0  0  0  0  0  0
    0.2658   28.7483   11.9764 C   0  0  0  0  0  0
   -0.6841   28.5449   12.9755 C   0  0  0  0  0  0
   -1.4380   27.3777   12.9934 C   0  0  0  0  0  0
   -1.2501   26.4178   12.0046 C   0  0  0  0  0  0
   -0.3289   26.6280   10.9764 C   0  0  0  0  0  0
   -0.2175   25.3898    9.7761 Cl  0  0  0  0  0  0
   -2.0539   31.7086    9.1938 N   0  0  0  0  0  0
   -0.2451   32.9480    7.7038 H   0  0  0  0  0  0
   -1.1085   29.4150    9.8645 H   0  0  0  0  0  0
    1.8805   32.0150    6.9883 H   0  0  0  0  0  0
    3.5151   30.5106    7.1536 H   0  0  0  0  0  0
    5.6549   26.6094    6.8008 H   0  0  0  0  0  0
    3.5088   24.7686    9.3458 H   0  0  0  0  0  0
    3.6355   24.4623    7.6188 H   0  0  0  0  0  0
    5.0857   24.6550    8.5780 H   0  0  0  0  0  0
    0.8281   29.6717   11.9818 H   0  0  0  0  0  0
   -0.8476   29.3012   13.7294 H   0  0  0  0  0  0
   -2.1776   27.2274   13.7665 H   0  0  0  0  0  0
   -1.8445   25.5162   12.0198 H   0  0  0  0  0  0
   -2.5341   31.2560    9.9596 H   0  0  0  0  0  0
   -2.2377   32.6849    9.0127 H   0  0  0  0  0  0
  1  2  2  0  0  0
  1  4  1  0  0  0
  1 24  1  0  0  0
  2  3  1  0  0  0
  2 23  1  0  0  0
  3  5  2  0  0  0
  3 25  1  0  0  0
  4  6  2  0  0  0
  4 26  1  0  0  0
  5  6  1  0  0  0
  5  8  1  0  0  0
  6  7  1  0  0  0
  7 11  1  0  0  0
  7 27  1  0  0  0
  8  9  2  0  0  0
  8 16  1  0  0  0
  9 12  1  0  0  0
 10 11  2  0  0  0
 10 14  1  0  0  0
 11 12  1  0  0  0
 12 13  2  0  0  0
 13 14  1  0  0  0
 13 15  1  0  0  0
 14 28  1  0  0  0
 15 29  1  0  0  0
 15 30  1  0  0  0
 15 31  1  0  0  0
 16 17  2  0  0  0
 16 21  1  0  0  0
 17 18  1  0  0  0
 17 32  1  0  0  0
 18 19  2  0  0  0
 18 33  1  0  0  0
 19 20  1  0  0  0
 19 34  1  0  0  0
 20 21  2  0  0  0
 20 35  1  0  0  0
 21 22  1  0  0  0
 23 36  1  0  0  0
 23 37  1  0  0  0
M  END
> <s_m_entry_id>
32967

> <s_m_entry_name>
dock_pv.368

> <s_m_Source_Path>
/home/csk/Desktop/cluster/DUD-E-result/cdk2

> <s_m_Source_File>
dock_pv.maegz

> <i_m_Source_File_Index>
368

> <chembl_id>
CHEMBL2322701

> <chembl_pref_name>
None

> <i_lp_mmshare_version>
53161

> <i_f3d_flags>
0

> <r_lp_tautomer_probability>
1

> <s_lp_Force_Field>
OPLS_2005

> <r_lp_Energy>
35.424767

> <b_lp_Chiralities_Consistent>
1

> <s_lp_Variant>
CHEMBL301_lig1186-1

> <s_i_glide_gridfile>
glide-grid_1h00

> <i_i_glide_lignum>
1599

> <i_i_glide_rotatable_bonds>
1

> <r_i_docking_score>
-7.32830663420907

> <r_i_glide_ligand_efficiency>
-0.318622027574308

> <r_i_glide_ligand_efficiency_sa>
-0.906118662324885

> <r_i_glide_ligand_efficiency_ln>
-1.77205099356246

> <r_i_glide_gscore>
-7.32830663420907

> <r_i_glide_lipo>
-3.03641216726742

> <r_i_glide_hbond>
-0.32

> <r_i_glide_metal>
0

> <r_i_glide_rewards>
-2.26019798904398

> <r_i_glide_evdw>
-32.6606101989746

> <r_i_glide_ecoul>
-1.71482110023499

> <r_i_glide_erotb>
0.178557197086303

> <r_i_glide_esite>
0

> <r_i_glide_emodel>
-45.8590054891096

> <r_i_glide_energy>
-34.3754312992096

> <r_i_glide_einternal>
2.91078066825867

> <i_i_glide_confnum>
2

> <i_i_glide_posenum>
333

> <r_i_glide_eff_state_penalty>
0

> <s_user_duplicate_titles>
CHEMBL301_lig1186

> <s_m_subgroup_title>
dock_pv

> <s_m_subgroupid>
dock_pv

> <b_m_subgroup_collapsed>
1

$$$$
CHEMBL301_lig197
                    3D
 Schrodinger Suite 2021-1.
 35 38  0  0  1  0            999 V2000
    1.0357   29.8931    8.6630 C   0  0  0  0  0  0
    1.1629   31.0546    7.7179 C   0  0  0  0  0  0
    1.8556   28.8093    9.0094 C   0  0  0  0  0  0
   -0.1913   30.0324    9.2735 C   0  0  0  0  0  0
    0.0582   31.7944    7.9485 N   0  0  0  0  0  0
   -0.8096   31.1754    8.8268 C   0  0  0  0  0  0
    1.3739   27.9183    9.9938 C   0  0  0  0  0  0
    0.1025   28.0505   10.5925 C   0  0  0  0  0  0
   -0.7439   29.1398   10.2064 C   0  0  0  0  0  0
    3.1768   28.5294    8.3540 C   0  0  0  0  0  0
   -0.7819   25.8636   14.9623 N   0  0  0  0  0  0
    4.1906   27.8458    8.9759 N   0  0  0  0  0  0
    2.0572   31.3606    6.9374 O   0  0  0  0  0  0
   -0.6338   26.6509   14.1250 C   0  0  0  0  0  0
   -2.0773   29.4486   10.6274 C   0  0  0  0  0  0
   -2.0816   31.4963    9.2877 C   0  0  0  0  0  0
    3.6510   28.7664    7.0624 C   0  0  0  0  0  0
    5.2463   27.6403    8.1321 C   0  0  0  0  0  0
    4.9227   28.2138    6.9220 C   0  0  0  0  0  0
   -2.7116   30.6179   10.1759 C   0  0  0  0  0  0
   -2.7721   28.6139   11.4264 F   0  0  0  0  0  0
   -0.3462   27.0452   11.6519 C   0  0  0  0  0  0
   -0.4420   27.6543   13.0660 C   0  0  0  0  0  0
   -0.1082   32.6821    7.4996 H   0  0  0  0  0  0
    1.9905   27.0812   10.2872 H   0  0  0  0  0  0
    4.1575   27.4996    9.9264 H   0  0  0  0  0  0
   -2.5920   32.3905    8.9615 H   0  0  0  0  0  0
    3.1162   29.2652    6.2691 H   0  0  0  0  0  0
    6.1138   27.0933    8.4719 H   0  0  0  0  0  0
    5.5358   28.2296    6.0317 H   0  0  0  0  0  0
   -3.7072   30.8445   10.5293 H   0  0  0  0  0  0
   -1.3009   26.6098   11.3538 H   0  0  0  0  0  0
    0.3615   26.2156   11.6772 H   0  0  0  0  0  0
    0.4581   28.2120   13.3095 H   0  0  0  0  0  0
   -1.2657   28.3599   13.1550 H   0  0  0  0  0  0
  1  2  1  0  0  0
  1  3  2  0  0  0
  1  4  1  0  0  0
  2  5  1  0  0  0
  2 13  2  0  0  0
  3  7  1  0  0  0
  3 10  1  0  0  0
  4  6  1  0  0  0
  4  9  2  0  0  0
  5  6  1  0  0  0
  5 24  1  0  0  0
  6 16  2  0  0  0
  7  8  2  0  0  0
  7 25  1  0  0  0
  8  9  1  0  0  0
  8 22  1  0  0  0
  9 15  1  0  0  0
 10 12  1  0  0  0
 10 17  2  0  0  0
 11 14  3  0  0  0
 12 18  1  0  0  0
 12 26  1  0  0  0
 14 23  1  0  0  0
 15 20  2  0  0  0
 15 21  1  0  0  0
 16 20  1  0  0  0
 16 27  1  0  0  0
 17 19  1  0  0  0
 17 28  1  0  0  0
 18 19  2  0  0  0
 18 29  1  0  0  0
 19 30  1  0  0  0
 20 31  1  0  0  0
 22 23  1  0  0  0
 22 32  1  0  0  0
 22 33  1  0  0  0
 23 34  1  0  0  0
 23 35  1  0  0  0
M  END
> <s_m_entry_id>
32968

> <s_m_entry_name>
dock_pv.369

> <s_m_Source_Path>
/home/csk/Desktop/cluster/DUD-E-result/cdk2

> <s_m_Source_File>
dock_pv.maegz

> <i_m_Source_File_Index>
369

> <chembl_id>
CHEMBL415471

> <chembl_pref_name>
None

> <i_lp_mmshare_version>
53161

> <i_f3d_flags>
0

> <r_lp_tautomer_probability>
1

> <s_lp_Force_Field>
OPLS_2005

> <r_lp_Energy>
56.211013

> <b_lp_Chiralities_Consistent>
1

> <s_lp_Variant>
CHEMBL301_lig197-1

> <s_i_glide_gridfile>
glide-grid_1h00

> <i_i_glide_lignum>
339

> <i_i_glide_rotatable_bonds>
3

> <r_i_docking_score>
-7.32102647084855

> <r_i_glide_ligand_efficiency>
-0.318305498732546

> <r_i_glide_ligand_efficiency_sa>
-0.905218496404569

> <r_i_glide_ligand_efficiency_ln>
-1.77029058404902

> <r_i_glide_gscore>
-7.32102647084855

> <r_i_glide_lipo>
-3.11729286998976

> <r_i_glide_hbond>
-0.144009532208187

> <r_i_glide_metal>
0

> <r_i_glide_rewards>
-2.14462908582159

> <r_i_glide_evdw>
-32.3303108215332

> <r_i_glide_ecoul>
-4.05549287796021

> <r_i_glide_erotb>
0.395984556799757

> <r_i_glide_esite>
-0.0862400668580739

> <r_i_glide_emodel>
-55.6057683511103

> <r_i_glide_energy>
-36.3858036994934

> <r_i_glide_einternal>
2.24731540679932

> <i_i_glide_confnum>
6

> <i_i_glide_posenum>
82

> <r_i_glide_eff_state_penalty>
0

> <s_user_duplicate_titles>
CHEMBL301_lig197,131932

> <s_m_subgroup_title>
dock_pv

> <s_m_subgroupid>
dock_pv

> <b_m_subgroup_collapsed>
1

$$$$
CHEMBL301_lig1444
                    3D
 Schrodinger Suite 2021-1.
 38 41  0  0  1  0            999 V2000
   -0.4318   28.8701   12.3399 F   0  0  0  0  0  0
   -0.1877   27.5735   12.0328 C   0  0  0  0  0  0
   -0.6690   26.5883   12.8952 C   0  0  0  0  0  0
   -0.4110   25.2443   12.6369 C   0  0  0  0  0  0
    0.3329   24.8839   11.5152 C   0  0  0  0  0  0
    0.8106   25.8681   10.6495 C   0  0  0  0  0  0
    0.5493   27.2263   10.8843 C   0  0  0  0  0  0
    1.0369   28.2533    9.9184 C   0  0  0  0  0  0
    2.3289   28.2063    9.3761 C   0  0  0  0  0  0
    2.7136   29.1787    8.4439 C   0  0  0  0  0  0
    3.9860   29.2465    7.8500 N   0  0  0  0  0  0
    4.9641   28.1650    7.8771 C   0  0  0  0  0  0
    4.7717   27.2407    6.6818 C   0  0  0  0  0  0
    4.7318   25.8520    6.8500 C   0  0  0  0  0  0
    4.5479   25.0275    5.7359 C   0  0  0  0  0  0
    4.4174   25.6211    4.4774 C   0  0  0  0  0  0
    4.4590   26.9645    4.2888 N   0  0  0  0  0  0
    4.6376   27.7495    5.3813 C   0  0  0  0  0  0
    1.7829   30.1407    8.1250 N   0  0  0  0  0  0
    1.9454   31.1754    7.2511 N   0  0  0  0  0  0
    0.8584   31.9044    7.3801 C   0  0  0  0  0  0
   -0.0925   31.3344    8.2218 C   0  0  0  0  0  0
   -1.8228   31.9465    8.7308 Br  0  0  0  0  0  0
    0.5153   30.1624    8.7227 C   0  0  0  0  0  0
    0.1349   29.2208    9.5898 N   0  0  0  0  0  0
   -1.2406   26.8773   13.7647 H   0  0  0  0  0  0
   -0.7855   24.4845   13.3051 H   0  0  0  0  0  0
    0.5363   23.8432   11.3118 H   0  0  0  0  0  0
    1.3751   25.5662    9.7789 H   0  0  0  0  0  0
    3.0105   27.4284    9.6861 H   0  0  0  0  0  0
    4.1475   30.0113    7.2024 H   0  0  0  0  0  0
    4.9465   27.6131    8.8179 H   0  0  0  0  0  0
    5.9498   28.6213    7.7955 H   0  0  0  0  0  0
    4.8325   25.4150    7.8332 H   0  0  0  0  0  0
    4.5077   23.9536    5.8450 H   0  0  0  0  0  0
    4.2781   25.0194    3.5897 H   0  0  0  0  0  0
    4.6762   28.8137    5.1959 H   0  0  0  0  0  0
    0.7421   32.8440    6.8571 H   0  0  0  0  0  0
  1  2  1  0  0  0
  2  3  2  0  0  0
  2  7  1  0  0  0
  3  4  1  0  0  0
  3 26  1  0  0  0
  4  5  2  0  0  0
  4 27  1  0  0  0
  5  6  1  0  0  0
  5 28  1  0  0  0
  6  7  2  0  0  0
  6 29  1  0  0  0
  7  8  1  0  0  0
  8  9  1  0  0  0
  8 25  2  0  0  0
  9 10  2  0  0  0
  9 30  1  0  0  0
 10 11  1  0  0  0
 10 19  1  0  0  0
 11 12  1  0  0  0
 11 31  1  0  0  0
 12 13  1  0  0  0
 12 32  1  0  0  0
 12 33  1  0  0  0
 13 14  2  0  0  0
 13 18  1  0  0  0
 14 15  1  0  0  0
 14 34  1  0  0  0
 15 16  2  0  0  0
 15 35  1  0  0  0
 16 17  1  0  0  0
 16 36  1  0  0  0
 17 18  2  0  0  0
 18 37  1  0  0  0
 19 20  1  0  0  0
 19 24  1  0  0  0
 20 21  2  0  0  0
 21 22  1  0  0  0
 21 38  1  0  0  0
 22 23  1  0  0  0
 22 24  2  0  0  0
 24 25  1  0  0  0
M  END
> <s_m_entry_id>
32969

> <s_m_entry_name>
dock_pv.370

> <s_m_Source_Path>
/home/csk/Desktop/cluster/DUD-E-result/cdk2

> <s_m_Source_File>
dock_pv.maegz

> <i_m_Source_File_Index>
370

> <chembl_id>
CHEMBL3642647

> <chembl_pref_name>
None

> <i_lp_mmshare_version>
53161

> <i_f3d_flags>
0

> <r_lp_tautomer_probability>
1

> <s_lp_Force_Field>
OPLS_2005

> <r_lp_Energy>
25.583696

> <b_lp_Chiralities_Consistent>
1

> <s_lp_Variant>
CHEMBL301_lig1444-1

> <s_i_glide_gridfile>
glide-grid_1h00

> <i_i_glide_lignum>
1957

> <i_i_glide_rotatable_bonds>
4

> <r_i_docking_score>
-7.31569329437783

> <r_i_glide_ligand_efficiency>
-0.292627731775113

> <r_i_glide_ligand_efficiency_sa>
-0.855648677485353

> <r_i_glide_ligand_efficiency_ln>
-1.73403854440451

> <r_i_glide_gscore>
-7.31569329437783

> <r_i_glide_lipo>
-2.79734796294006

> <r_i_glide_hbond>
-0.32

> <r_i_glide_metal>
0

> <r_i_glide_rewards>
-2.29386367993349

> <r_i_glide_evdw>
-39.5393028259277

> <r_i_glide_ecoul>
-2.80959367752075

> <r_i_glide_erotb>
0.49392254142021

> <r_i_glide_esite>
0

> <r_i_glide_emodel>
-60.3358120398537

> <r_i_glide_energy>
-42.3488965034485

> <r_i_glide_einternal>
2.65961194038391

> <i_i_glide_confnum>
41

> <i_i_glide_posenum>
330

> <r_i_glide_eff_state_penalty>
0

> <s_user_duplicate_titles>
CHEMBL301_lig1444

> <s_m_subgroup_title>
dock_pv

> <s_m_subgroupid>
dock_pv

> <b_m_subgroup_collapsed>
1

$$$$
CHEMBL301_lig1391
                    3D
 Schrodinger Suite 2021-1.
 46 47  0  0  1  0            999 V2000
    1.7543   27.7256   10.8455 C   0  0  0  0  0  0
    0.2357   27.5248   10.6414 C   0  0  2  0  0  0
   -0.6703   29.1297   10.6589 S   0  0  0  0  0  0
   -0.1387   30.2074    9.3423 C   0  0  0  0  0  0
    0.9074   29.7999    8.5782 N   0  0  0  0  0  0
    1.3829   30.6516    7.6354 C   0  0  0  0  0  0
    2.4418   30.2369    6.8137 N   0  0  0  0  0  0
    3.3202   29.1433    6.9176 C   0  0  0  0  0  0
    3.9503   28.8463    8.1196 C   0  0  0  0  0  0
    4.8738   27.8073    8.2011 C   0  0  0  0  0  0
    5.1906   27.0693    7.0605 C   0  0  0  0  0  0
    4.5812   27.3762    5.8426 C   0  0  0  0  0  0
    3.6597   28.4182    5.7755 C   0  0  0  0  0  0
    6.3705   25.7241    7.1780 S   0  0  2  0  0  0
    5.4797   24.4923    7.0191 N   0  0  0  0  0  0
    7.2576   25.9529    8.3229 O   0  0  0  0  0  0
    7.3683   25.7031    5.5860 C   0  0  0  0  0  0
    0.8905   31.8951    7.4043 N   0  0  0  0  0  0
   -0.1605   32.2874    8.1760 C   0  0  0  0  0  0
   -0.7412   31.4630    9.1458 C   0  0  0  0  0  0
   -2.2164   32.0962   10.1764 Br  0  0  0  0  0  0
   -0.3300   26.4232   11.6085 C   0  0  0  0  0  0
   -1.8698   26.3004   11.5531 C   0  0  0  0  0  0
    0.2789   25.0265   11.3373 C   0  0  0  0  0  0
    0.0107   26.7484   12.9459 O   0  0  0  0  0  0
    2.3148   26.7931   10.8756 H   0  0  0  0  0  0
    2.2037   28.3049   10.0517 H   0  0  0  0  0  0
    1.9444   28.2525   11.7760 H   0  0  0  0  0  0
    0.0945   27.1549    9.6264 H   0  0  0  0  0  0
    2.7746   30.9485    6.1792 H   0  0  0  0  0  0
    3.7302   29.4517    8.9760 H   0  0  0  0  0  0
    5.3453   27.5837    9.1460 H   0  0  0  0  0  0
    4.8146   26.8136    4.9515 H   0  0  0  0  0  0
    3.2126   28.6517    4.8271 H   0  0  0  0  0  0
    6.0129   23.6499    6.8639 H   0  0  0  0  0  0
    6.7041   25.5542    4.7358 H   0  0  0  0  0  0
    7.8933   26.6518    5.4900 H   0  0  0  0  0  0
    8.0910   24.8899    5.6383 H   0  0  0  0  0  0
   -0.5437   33.2827    7.9950 H   0  0  0  0  0  0
   -2.2131   26.0528   10.5488 H   0  0  0  0  0  0
   -2.3678   27.2220   11.8563 H   0  0  0  0  0  0
   -2.2375   25.5202   12.2213 H   0  0  0  0  0  0
    0.1455   24.7330   10.2949 H   0  0  0  0  0  0
    1.3447   24.9788   11.5575 H   0  0  0  0  0  0
   -0.1909   24.2601   11.9553 H   0  0  0  0  0  0
    0.9490   26.9802   12.9758 H   0  0  0  0  0  0
  1  2  1  0  0  0
  1 26  1  0  0  0
  1 27  1  0  0  0
  1 28  1  0  0  0
  2  3  1  0  0  0
  2 22  1  0  0  0
  2 29  1  0  0  0
  3  4  1  0  0  0
  4  5  2  0  0  0
  4 20  1  0  0  0
  5  6  1  0  0  0
  6  7  1  0  0  0
  6 18  2  0  0  0
  7  8  1  0  0  0
  7 30  1  0  0  0
  8  9  2  0  0  0
  8 13  1  0  0  0
  9 10  1  0  0  0
  9 31  1  0  0  0
 10 11  2  0  0  0
 10 32  1  0  0  0
 11 12  1  0  0  0
 11 14  1  0  0  0
 12 13  2  0  0  0
 12 33  1  0  0  0
 13 34  1  0  0  0
 14 15  2  0  0  0
 14 16  2  0  0  0
 14 17  1  0  0  0
 15 35  1  0  0  0
 17 36  1  0  0  0
 17 37  1  0  0  0
 17 38  1  0  0  0
 18 19  1  0  0  0
 19 20  2  0  0  0
 19 39  1  0  0  0
 20 21  1  0  0  0
 22 23  1  0  0  0
 22 24  1  0  0  0
 22 25  1  0  0  0
 23 40  1  0  0  0
 23 41  1  0  0  0
 23 42  1  0  0  0
 24 43  1  0  0  0
 24 44  1  0  0  0
 24 45  1  0  0  0
 25 46  1  0  0  0
M  END
> <s_m_entry_id>
32970

> <s_m_entry_name>
dock_pv.371

> <s_m_Source_Path>
/home/csk/Desktop/cluster/DUD-E-result/cdk2

> <s_m_Source_File>
dock_pv.maegz

> <i_m_Source_File_Index>
371

> <chembl_id>
CHEMBL3648104

> <chembl_pref_name>
None

> <i_lp_mmshare_version>
53161

> <i_f3d_flags>
0

> <r_lp_tautomer_probability>
0.999999987636

> <s_lp_Force_Field>
OPLS_2005

> <r_lp_Energy>
5.024216

> <b_lp_Chiralities_Consistent>
1

> <s_lp_Variant>
CHEMBL301_lig1391-1

> <s_i_glide_gridfile>
glide-grid_1h00

> <i_i_glide_lignum>
1879

> <i_i_glide_rotatable_bonds>
7

> <r_i_docking_score>
-7.3155894220361

> <r_i_glide_ligand_efficiency>
-0.292623576881444

> <r_i_glide_ligand_efficiency_sa>
-0.855636528502576

> <r_i_glide_ligand_efficiency_ln>
-1.73401392354672

> <r_i_glide_gscore>
-7.3155894220361

> <r_i_glide_lipo>
-2.90162868334575

> <r_i_glide_hbond>
-0.477839300910933

> <r_i_glide_metal>
0

> <r_i_glide_rewards>
-1.32502331772717

> <r_i_glide_evdw>
-39.1544952392578

> <r_i_glide_ecoul>
-7.71768760681152

> <r_i_glide_erotb>
0.504279782932377

> <r_i_glide_esite>
0

> <r_i_glide_emodel>
-66.1615517273724

> <r_i_glide_energy>
-46.8721828460693

> <r_i_glide_einternal>
2.72459721565247

> <i_i_glide_confnum>
18

> <i_i_glide_posenum>
98

> <r_i_glide_eff_state_penalty>
0

> <s_user_duplicate_titles>
CHEMBL301_lig1391

> <s_m_subgroup_title>
dock_pv

> <s_m_subgroupid>
dock_pv

> <b_m_subgroup_collapsed>
1

$$$$
CHEMBL301_lig605
                    3D
 Schrodinger Suite 2021-1.
 38 40  0  0  1  0            999 V2000
   -0.2882   27.8479   11.6589 C   0  0  0  0  0  0
   -1.4266   28.6428   11.7731 C   0  0  0  0  0  0
   -1.6149   29.7114   10.9019 C   0  0  0  0  0  0
    0.6658   28.1267   10.6784 C   0  0  0  0  0  0
    0.5012   29.2009    9.7836 C   0  0  0  0  0  0
   -0.6640   29.9846    9.9116 C   0  0  0  0  0  0
   -0.9101   31.1521    8.9844 C   0  0  0  0  0  0
    0.0587   31.3251    8.0607 N   0  0  0  0  0  0
    1.1903   30.6375    7.7947 C   0  0  0  0  0  0
    1.5150   29.5351    8.7201 C   0  0  0  0  0  0
    1.8575   31.0009    6.8262 O   0  0  0  0  0  0
   -1.8800   31.9090    9.0110 O   0  0  0  0  0  0
    2.7073   28.8832    8.6012 C   0  0  0  0  0  0
    3.7462   29.0726    7.7144 N   0  0  0  0  0  0
    4.9354   28.2417    7.5810 C   0  0  0  0  0  0
    4.7374   27.1222    6.5683 C   0  0  0  0  0  0
    4.4952   27.4143    5.2211 C   0  0  0  0  0  0
    4.3577   26.3876    4.2823 C   0  0  0  0  0  0
    4.4619   25.0470    4.6891 C   0  0  0  0  0  0
    4.6946   24.7560    6.0371 C   0  0  0  0  0  0
    4.8371   25.7862    6.9694 C   0  0  0  0  0  0
    4.1133   26.7284    2.9742 O   0  0  0  0  0  0
   -0.0333   26.3830   12.8485 Br  0  0  0  0  0  0
    4.3520   23.9860    3.7827 N   0  0  0  0  0  0
   -2.1648   28.4335   12.5355 H   0  0  0  0  0  0
   -2.5051   30.3174   11.0092 H   0  0  0  0  0  0
    1.5336   27.4882   10.6450 H   0  0  0  0  0  0
   -0.1077   32.0946    7.4319 H   0  0  0  0  0  0
    2.9705   28.0883    9.2801 H   0  0  0  0  0  0
    3.6257   29.7419    6.9624 H   0  0  0  0  0  0
    5.1842   27.7993    8.5479 H   0  0  0  0  0  0
    5.7762   28.8736    7.2995 H   0  0  0  0  0  0
    4.4210   28.4406    4.8946 H   0  0  0  0  0  0
    4.7739   23.7311    6.3676 H   0  0  0  0  0  0
    5.0265   25.5409    8.0042 H   0  0  0  0  0  0
    4.0664   25.9738    2.3735 H   0  0  0  0  0  0
    4.2470   24.1599    2.7830 H   0  0  0  0  0  0
    4.5276   23.0469    4.1055 H   0  0  0  0  0  0
  1  2  2  0  0  0
  1  4  1  0  0  0
  1 23  1  0  0  0
  2  3  1  0  0  0
  2 25  1  0  0  0
  3  6  2  0  0  0
  3 26  1  0  0  0
  4  5  2  0  0  0
  4 27  1  0  0  0
  5 10  1  0  0  0
  5  6  1  0  0  0
  6  7  1  0  0  0
  7 12  2  0  0  0
  7  8  1  0  0  0
  8  9  1  0  0  0
  8 28  1  0  0  0
  9 10  1  0  0  0
  9 11  2  0  0  0
 10 13  2  0  0  0
 13 14  1  0  0  0
 13 29  1  0  0  0
 14 15  1  0  0  0
 14 30  1  0  0  0
 15 16  1  0  0  0
 15 31  1  0  0  0
 15 32  1  0  0  0
 16 17  2  0  0  0
 16 21  1  0  0  0
 17 18  1  0  0  0
 17 33  1  0  0  0
 18 19  2  0  0  0
 18 22  1  0  0  0
 19 20  1  0  0  0
 19 24  1  0  0  0
 20 21  2  0  0  0
 20 34  1  0  0  0
 21 35  1  0  0  0
 22 36  1  0  0  0
 24 37  1  0  0  0
 24 38  1  0  0  0
M  END
> <s_m_entry_id>
32971

> <s_m_entry_name>
dock_pv.372

> <s_m_Source_Path>
/home/csk/Desktop/cluster/DUD-E-result/cdk2

> <s_m_Source_File>
dock_pv.maegz

> <i_m_Source_File_Index>
372

> <chembl_id>
CHEMBL502651

> <chembl_pref_name>
None

> <i_lp_mmshare_version>
53161

> <i_f3d_flags>
0

> <r_lp_tautomer_probability>
0.499999999999422

> <s_lp_Force_Field>
OPLS_2005

> <r_lp_Energy>
26.472075

> <b_lp_Chiralities_Consistent>
1

> <s_lp_Variant>
CHEMBL301_lig605-1

> <s_i_glide_gridfile>
glide-grid_1h00

> <i_i_glide_lignum>
846

> <i_i_glide_rotatable_bonds>
4

> <r_i_docking_score>
-7.31509134088628

> <r_i_glide_ligand_efficiency>
-0.304795472536928

> <r_i_glide_ligand_efficiency_sa>
-0.879182277664694

> <r_i_glide_ligand_efficiency_ln>
-1.75083702554332

> <r_i_glide_gscore>
-7.31509134088628

> <r_i_glide_lipo>
-2.23944232561327

> <r_i_glide_hbond>
-0.38821305341446

> <r_i_glide_metal>
0

> <r_i_glide_rewards>
-1.79550133333333

> <r_i_glide_evdw>
-41.6792221069336

> <r_i_glide_ecoul>
-7.49404335021973

> <r_i_glide_erotb>
0.387795875462453

> <r_i_glide_esite>
-0.0716628961080348

> <r_i_glide_emodel>
-71.7234518092708

> <r_i_glide_energy>
-49.1732654571533

> <r_i_glide_einternal>
3.16517949104309

> <i_i_glide_confnum>
13

> <i_i_glide_posenum>
377

> <r_i_glide_eff_state_penalty>
0

> <s_user_duplicate_titles>
CHEMBL301_lig605

> <s_m_subgroup_title>
dock_pv

> <s_m_subgroupid>
dock_pv

> <b_m_subgroup_collapsed>
1

$$$$
CHEMBL301_lig1380
                    3D
 Schrodinger Suite 2021-1.
 43 44  0  0  1  0            999 V2000
   -0.7890   25.2242   11.1042 C   0  0  0  0  0  0
   -1.3829   26.6409   11.1755 C   0  0  1  0  0  0
   -1.7106   26.9189   12.5255 O   0  0  0  0  0  0
   -0.4710   27.7446   10.5697 C   0  0  2  0  0  0
    0.8544   27.9139   11.3360 C   0  0  0  0  0  0
   -1.3380   29.3389   10.3855 S   0  0  0  0  0  0
   -0.4535   30.3861    9.2519 C   0  0  0  0  0  0
    0.6096   29.8638    8.5758 N   0  0  0  0  0  0
    1.2590   30.6911    7.7079 C   0  0  0  0  0  0
    2.3668   30.2415    6.9761 N   0  0  0  0  0  0
    3.2112   29.1277    7.1038 C   0  0  0  0  0  0
    3.4449   28.5269    8.3363 C   0  0  0  0  0  0
    4.3149   27.4493    8.4218 C   0  0  0  0  0  0
    4.9877   26.9846    7.2898 C   0  0  0  0  0  0
    4.7617   27.5899    6.0545 C   0  0  0  0  0  0
    3.8683   28.6520    5.9653 C   0  0  0  0  0  0
    6.1039   25.5860    7.4243 S   0  0  1  0  0  0
    7.0322   25.9726    8.5759 N   0  0  0  0  0  0
    5.3233   24.3467    7.3758 O   0  0  0  0  0  0
    7.2873   25.6615    5.9646 C   0  0  0  0  0  0
    0.9249   31.9834    7.4662 N   0  0  0  0  0  0
   -0.1144   32.4888    8.1762 C   0  0  0  0  0  0
   -0.8524   31.7214    9.0770 C   0  0  0  0  0  0
   -2.3180   32.5118   10.0115 Br  0  0  0  0  0  0
   -0.5086   24.9697   10.0821 H   0  0  0  0  0  0
   -1.5131   24.4805   11.4392 H   0  0  0  0  0  0
    0.0990   25.1228   11.7285 H   0  0  0  0  0  0
   -2.3191   26.6168   10.6199 H   0  0  0  0  0  0
   -2.1186   27.7902   12.5726 H   0  0  0  0  0  0
   -0.2237   27.4342    9.5533 H   0  0  0  0  0  0
    1.4254   26.9871   11.3782 H   0  0  0  0  0  0
    1.4915   28.6514   10.8573 H   0  0  0  0  0  0
    0.6845   28.2520   12.3579 H   0  0  0  0  0  0
    2.7488   30.9431    6.3572 H   0  0  0  0  0  0
    2.9654   28.8934    9.2286 H   0  0  0  0  0  0
    4.4581   26.9821    9.3759 H   0  0  0  0  0  0
    5.2670   27.2488    5.1631 H   0  0  0  0  0  0
    3.7097   29.1253    5.0089 H   0  0  0  0  0  0
    6.5419   25.9587    9.4734 H   0  0  0  0  0  0
    7.7426   26.6507    5.9273 H   0  0  0  0  0  0
    8.0579   24.9058    6.1079 H   0  0  0  0  0  0
    6.7390   25.4585    5.0464 H   0  0  0  0  0  0
   -0.3630   33.5244    7.9944 H   0  0  0  0  0  0
  1  2  1  0  0  0
  1 25  1  0  0  0
  1 26  1  0  0  0
  1 27  1  0  0  0
  2  3  1  0  0  0
  2  4  1  0  0  0
  2 28  1  0  0  0
  3 29  1  0  0  0
  4  5  1  0  0  0
  4  6  1  0  0  0
  4 30  1  0  0  0
  5 31  1  0  0  0
  5 32  1  0  0  0
  5 33  1  0  0  0
  6  7  1  0  0  0
  7  8  2  0  0  0
  7 23  1  0  0  0
  8  9  1  0  0  0
  9 10  1  0  0  0
  9 21  2  0  0  0
 10 11  1  0  0  0
 10 34  1  0  0  0
 11 12  2  0  0  0
 11 16  1  0  0  0
 12 13  1  0  0  0
 12 35  1  0  0  0
 13 14  2  0  0  0
 13 36  1  0  0  0
 14 15  1  0  0  0
 14 17  1  0  0  0
 15 16  2  0  0  0
 15 37  1  0  0  0
 16 38  1  0  0  0
 17 18  2  0  0  0
 17 19  2  0  0  0
 17 20  1  0  0  0
 18 39  1  0  0  0
 20 40  1  0  0  0
 20 41  1  0  0  0
 20 42  1  0  0  0
 21 22  1  0  0  0
 22 23  2  0  0  0
 22 43  1  0  0  0
 23 24  1  0  0  0
M  END
> <s_m_entry_id>
32972

> <s_m_entry_name>
dock_pv.373

> <s_m_Source_Path>
/home/csk/Desktop/cluster/DUD-E-result/cdk2

> <s_m_Source_File>
dock_pv.maegz

> <i_m_Source_File_Index>
373

> <chembl_id>
CHEMBL3648102

> <chembl_pref_name>
None

> <i_lp_mmshare_version>
53161

> <i_f3d_flags>
0

> <r_lp_tautomer_probability>
0.999999987636

> <s_lp_Force_Field>
OPLS_2005

> <r_lp_Energy>
0.386575

> <b_lp_Chiralities_Consistent>
1

> <s_lp_Variant>
CHEMBL301_lig1380-6

> <s_i_glide_gridfile>
glide-grid_1h00

> <i_i_glide_lignum>
1857

> <i_i_glide_rotatable_bonds>
7

> <r_i_docking_score>
-7.3140816019995

> <r_i_glide_ligand_efficiency>
-0.304753400083313

> <r_i_glide_ligand_efficiency_sa>
-0.879060919708524

> <r_i_glide_ligand_efficiency_ln>
-1.75059534869382

> <r_i_glide_gscore>
-7.3140816019995

> <r_i_glide_lipo>
-2.7418765607839

> <r_i_glide_hbond>
-0.336446914762455

> <r_i_glide_metal>
0

> <r_i_glide_rewards>
-1.44949365728016

> <r_i_glide_evdw>
-38.907585144043

> <r_i_glide_ecoul>
-9.16870975494385

> <r_i_glide_erotb>
0.534421251270742

> <r_i_glide_esite>
0

> <r_i_glide_emodel>
-67.434740699813

> <r_i_glide_energy>
-48.0762948989868

> <r_i_glide_einternal>
3.68649983406067

> <i_i_glide_confnum>
28

> <i_i_glide_posenum>
360

> <r_i_glide_eff_state_penalty>
0

> <s_user_duplicate_titles>
CHEMBL301_lig1380

> <s_m_subgroup_title>
dock_pv

> <s_m_subgroupid>
dock_pv

> <b_m_subgroup_collapsed>
1

$$$$
CHEMBL301_lig914
                    3D
 Schrodinger Suite 2021-1.
 32 35  0  0  1  0            999 V2000
    0.0578   31.6231    8.1760 C   0  0  0  0  0  0
    1.7275   29.8408    8.3551 C   0  0  0  0  0  0
    1.2698   31.0510    7.7760 C   0  0  0  0  0  0
    2.0241   31.7437    6.8492 O   0  0  0  0  0  0
    2.9437   29.3530    7.9372 O   0  0  0  0  0  0
   -0.7255   30.9683    9.1149 C   0  0  0  0  0  0
   -1.2448   29.3220   10.5215 C   0  0  0  0  0  0
   -2.2666   30.2690   10.5765 N   0  0  0  0  0  0
   -2.0346   31.3003    9.7434 C   0  0  0  0  0  0
   -0.2967   29.7801    9.6502 C   0  0  0  0  0  0
    0.9116   29.1382    9.3382 C   0  0  0  0  0  0
   -1.0823   28.0907   11.1384 C   0  0  0  0  0  0
    0.1085   27.3124   10.8715 C   0  0  0  0  0  0
    1.1238   27.8735    9.9938 C   0  0  0  0  0  0
    2.3060   27.1107    9.7761 C   0  0  0  0  0  0
    2.4579   25.8453   10.3092 C   0  0  0  0  0  0
    1.4849   25.2966   11.1159 C   0  0  0  0  0  0
    0.3143   25.9939   11.4254 C   0  0  0  0  0  0
   -2.7419   32.2796    9.5680 O   0  0  0  0  0  0
   -2.3748   27.5786   12.1761 Cl  0  0  0  0  0  0
   -0.6559   25.4313   12.2380 O   0  0  0  0  0  0
   -0.5178   24.1030   12.7335 C   0  0  0  0  0  0
   -0.2534   32.5692    7.7571 H   0  0  0  0  0  0
    2.9316   31.4519    6.6981 H   0  0  0  0  0  0
    3.3820   29.8621    7.2532 H   0  0  0  0  0  0
   -3.0461   30.2511   11.2235 H   0  0  0  0  0  0
    3.1190   27.4607    9.1692 H   0  0  0  0  0  0
    3.3518   25.2799   10.0950 H   0  0  0  0  0  0
    1.6701   24.3096   11.5049 H   0  0  0  0  0  0
   -1.3973   23.8512   13.3272 H   0  0  0  0  0  0
   -0.4527   23.3786   11.9194 H   0  0  0  0  0  0
    0.3567   24.0022   13.3790 H   0  0  0  0  0  0
  1  6  1  0  0  0
  1  3  2  0  0  0
  1 23  1  0  0  0
  2  5  1  0  0  0
  2  3  1  0  0  0
  2 11  2  0  0  0
  3  4  1  0  0  0
  4 24  1  0  0  0
  5 25  1  0  0  0
  6 10  2  0  0  0
  6  9  1  0  0  0
  7 12  2  0  0  0
  7 10  1  0  0  0
  7  8  1  0  0  0
  8  9  1  0  0  0
  8 26  1  0  0  0
  9 19  2  0  0  0
 10 11  1  0  0  0
 11 14  1  0  0  0
 12 13  1  0  0  0
 12 20  1  0  0  0
 13 14  2  0  0  0
 13 18  1  0  0  0
 14 15  1  0  0  0
 15 16  2  0  0  0
 15 27  1  0  0  0
 16 17  1  0  0  0
 16 28  1  0  0  0
 17 18  2  0  0  0
 17 29  1  0  0  0
 18 21  1  0  0  0
 21 22  1  0  0  0
 22 30  1  0  0  0
 22 31  1  0  0  0
 22 32  1  0  0  0
M  END
> <s_m_entry_id>
32973

> <s_m_entry_name>
dock_pv.374

> <s_m_Source_Path>
/home/csk/Desktop/cluster/DUD-E-result/cdk2

> <s_m_Source_File>
dock_pv.maegz

> <i_m_Source_File_Index>
374

> <chembl_id>
CHEMBL602679

> <chembl_pref_name>
None

> <i_lp_mmshare_version>
53161

> <i_f3d_flags>
0

> <r_lp_tautomer_probability>
1

> <s_lp_Force_Field>
OPLS_2005

> <r_lp_Energy>
66.753431

> <b_lp_Chiralities_Consistent>
1

> <s_lp_Variant>
CHEMBL301_lig914-1

> <s_i_glide_gridfile>
glide-grid_1h00

> <i_i_glide_lignum>
1288

> <i_i_glide_rotatable_bonds>
3

> <r_i_docking_score>
-7.31379766608918

> <r_i_glide_ligand_efficiency>
-0.332445348458599

> <r_i_glide_ligand_efficiency_sa>
-0.931524940714636

> <r_i_glide_ligand_efficiency_ln>
-1.78775892684402

> <r_i_glide_gscore>
-7.31379766608918

> <r_i_glide_lipo>
-2.37824636386459

> <r_i_glide_hbond>
-0.0914580780412767

> <r_i_glide_metal>
0

> <r_i_glide_rewards>
-2.26660655132232

> <r_i_glide_evdw>
-33.2280235290527

> <r_i_glide_ecoul>
-5.94746685028076

> <r_i_glide_erotb>
0

> <r_i_glide_esite>
-0.0239654688662418

> <r_i_glide_emodel>
-58.4519940251907

> <r_i_glide_energy>
-39.1754903793335

> <r_i_glide_einternal>
0.31663778424263

> <i_i_glide_confnum>
1

> <i_i_glide_posenum>
167

> <r_i_glide_eff_state_penalty>
0

> <s_user_duplicate_titles>
CHEMBL301_lig914

> <s_m_subgroup_title>
dock_pv

> <s_m_subgroupid>
dock_pv

> <b_m_subgroup_collapsed>
1

$$$$
CHEMBL301_lig277
                    3D
 Schrodinger Suite 2021-1.
 38 40  0  0  1  0            999 V2000
    1.1157   21.2588   12.5819 S   0  0  0  0  0  0
   -0.4317   28.1763   10.8952 C   0  0  0  0  0  0
   -2.1318   29.6306   10.8946 N   0  0  0  0  0  0
   -1.3532   27.7166   11.8207 C   0  0  0  0  0  0
   -0.9642   29.3646   10.3527 C   0  0  0  0  0  0
   -2.3423   28.6522   11.7759 N   0  0  0  0  0  0
    0.3325   22.8678   12.5883 C   0  0  0  0  0  0
   -0.3595   30.2803    9.3345 C   0  0  0  0  0  0
   -1.4276   26.6703   12.7024 N   0  0  0  0  0  0
    2.3719   21.4116   11.8382 O   0  0  0  0  0  0
    1.1048   20.7499   13.9572 O   0  0  0  0  0  0
    0.0582   20.2523   11.6261 N   0  0  0  0  0  0
    0.7507   29.8519    8.6026 C   0  0  0  0  0  0
    0.4110   23.6792   11.4554 C   0  0  0  0  0  0
   -0.3409   23.3126   13.7265 C   0  0  0  0  0  0
   -0.8271   25.4055   12.6153 C   0  0  0  0  0  0
    1.3496   30.6806    7.6601 C   0  0  0  0  0  0
    2.4579   30.2198    6.9602 N   0  0  0  0  0  0
   -0.9179   24.5791   13.7362 C   0  0  0  0  0  0
   -0.1727   24.9437   11.4674 C   0  0  0  0  0  0
   -0.8572   31.5733    9.1038 C   0  0  0  0  0  0
   -0.2419   32.4183    8.1781 C   0  0  0  0  0  0
    0.8581   31.9680    7.4499 C   0  0  0  0  0  0
    0.5236   27.7299   10.6664 H   0  0  0  0  0  0
   -3.1388   28.6724   12.4036 H   0  0  0  0  0  0
   -2.0209   26.7686   13.5123 H   0  0  0  0  0  0
    0.5291   19.7454   10.8749 H   0  0  0  0  0  0
   -0.5581   19.6317   12.1754 H   0  0  0  0  0  0
    1.1596   28.8677    8.7716 H   0  0  0  0  0  0
    0.9255   23.3363   10.5693 H   0  0  0  0  0  0
   -0.4104   22.6872   14.6049 H   0  0  0  0  0  0
    2.8351   29.3251    7.2353 H   0  0  0  0  0  0
    3.0930   30.8954    6.5435 H   0  0  0  0  0  0
   -1.4293   24.9184   14.6242 H   0  0  0  0  0  0
   -0.1144   25.5508   10.5785 H   0  0  0  0  0  0
   -1.7092   31.9384    9.6593 H   0  0  0  0  0  0
   -0.6184   33.4192    8.0210 H   0  0  0  0  0  0
    1.3234   32.6253    6.7328 H   0  0  0  0  0  0
  1  7  1  0  0  0
  1 10  2  0  0  0
  1 11  2  0  0  0
  1 12  1  0  0  0
  2  4  2  0  0  0
  2  5  1  0  0  0
  2 24  1  0  0  0
  3  6  1  0  0  0
  3  5  2  0  0  0
  4  9  1  0  0  0
  4  6  1  0  0  0
  5  8  1  0  0  0
  6 25  1  0  0  0
  7 14  2  0  0  0
  7 15  1  0  0  0
  8 13  2  0  0  0
  8 21  1  0  0  0
  9 16  1  0  0  0
  9 26  1  0  0  0
 12 27  1  0  0  0
 12 28  1  0  0  0
 13 17  1  0  0  0
 13 29  1  0  0  0
 14 20  1  0  0  0
 14 30  1  0  0  0
 15 19  2  0  0  0
 15 31  1  0  0  0
 16 19  1  0  0  0
 16 20  2  0  0  0
 17 18  1  0  0  0
 17 23  2  0  0  0
 18 32  1  0  0  0
 18 33  1  0  0  0
 19 34  1  0  0  0
 20 35  1  0  0  0
 21 22  2  0  0  0
 21 36  1  0  0  0
 22 23  1  0  0  0
 22 37  1  0  0  0
 23 38  1  0  0  0
M  END
> <s_m_entry_id>
32974

> <s_m_entry_name>
dock_pv.375

> <s_m_Source_Path>
/home/csk/Desktop/cluster/DUD-E-result/cdk2

> <s_m_Source_File>
dock_pv.maegz

> <i_m_Source_File_Index>
375

> <chembl_id>
CHEMBL319831

> <chembl_pref_name>
None

> <i_lp_mmshare_version>
53161

> <i_f3d_flags>
0

> <r_lp_tautomer_probability>
0.157399999843308

> <s_lp_Force_Field>
OPLS_2005

> <r_lp_Energy>
22.852108

> <b_lp_Chiralities_Consistent>
1

> <s_lp_Variant>
CHEMBL301_lig277-2

> <s_i_glide_gridfile>
glide-grid_1h00

> <i_i_glide_lignum>
437

> <i_i_glide_rotatable_bonds>
4

> <r_i_docking_score>
-7.30852572525193

> <r_i_glide_ligand_efficiency>
-0.317761988054432

> <r_i_glide_ligand_efficiency_sa>
-0.903672824335499

> <r_i_glide_ligand_efficiency_ln>
-1.76726779041326

> <r_i_glide_gscore>
-7.30852572525193

> <r_i_glide_lipo>
-2.63933555556665

> <r_i_glide_hbond>
-0.568280308900928

> <r_i_glide_metal>
0

> <r_i_glide_rewards>
-1.30782704623576

> <r_i_glide_evdw>
-31.2272033691406

> <r_i_glide_ecoul>
-9.78199768066406

> <r_i_glide_erotb>
0.519700572398417

> <r_i_glide_esite>
-0.284123566390358

> <r_i_glide_emodel>
-61.2110836658981

> <r_i_glide_energy>
-41.0092010498047

> <r_i_glide_einternal>
0.203923881053925

> <i_i_glide_confnum>
1

> <i_i_glide_posenum>
17

> <r_i_glide_eff_state_penalty>
0

> <s_user_duplicate_titles>
CHEMBL301_lig277,166108

> <s_m_subgroup_title>
dock_pv

> <s_m_subgroupid>
dock_pv

> <b_m_subgroup_collapsed>
1

$$$$
CHEMBL301_lig286
                    3D
 Schrodinger Suite 2021-1.
 40 42  0  0  1  0            999 V2000
   -1.7534   26.0506   14.0775 S   0  0  0  0  0  0
    2.5617   28.4282    8.9819 C   0  0  0  0  0  0
    2.8573   29.8108    7.3548 N   0  0  0  0  0  0
    1.5580   29.4082    8.9707 C   0  0  0  0  0  0
    3.3611   28.6522    7.8768 C   0  0  0  0  0  0
    1.7592   30.2520    7.9831 N   0  0  0  0  0  0
    4.4579   27.8461    7.2936 C   0  0  0  0  0  0
   -1.0266   27.0631   12.7959 C   0  0  0  0  0  0
    6.3589   26.3868    7.6286 C   0  0  0  0  0  0
    5.3882   27.2478    8.1397 C   0  0  0  0  0  0
    0.4745   29.5738    9.7953 N   0  0  0  0  0  0
   -1.4355   24.6461   13.8006 O   0  0  0  0  0  0
   -1.4349   26.6520   15.3751 O   0  0  0  0  0  0
   -3.4626   26.2520   13.8542 N   0  0  0  0  0  0
    6.4139   26.1066    6.2590 C   0  0  0  0  0  0
    4.5132   27.5899    5.9213 C   0  0  0  0  0  0
    5.4748   26.7175    5.4085 C   0  0  0  0  0  0
   -0.4410   26.4849   11.6675 C   0  0  0  0  0  0
   -1.0944   28.4506   12.9169 C   0  0  0  0  0  0
    0.0018   28.6954   10.7814 C   0  0  0  0  0  0
    7.2697   25.8528    8.4742 F   0  0  0  0  0  0
   -0.5916   29.2605   11.9075 C   0  0  0  0  0  0
    0.0703   27.3020   10.6592 C   0  0  0  0  0  0
    7.4093   25.2502    5.8285 O   0  0  0  0  0  0
    7.5630   25.0110    4.4314 C   0  0  0  0  0  0
    2.6632   27.6109    9.6799 H   0  0  0  0  0  0
    3.2724   30.3104    6.5762 H   0  0  0  0  0  0
    5.3582   27.4520    9.1997 H   0  0  0  0  0  0
    0.1333   30.5134    9.9245 H   0  0  0  0  0  0
   -3.9949   25.5052   14.2992 H   0  0  0  0  0  0
   -3.7635   27.1876   14.1760 H   0  0  0  0  0  0
    3.7908   28.0344    5.2524 H   0  0  0  0  0  0
    5.4791   26.5318    4.3454 H   0  0  0  0  0  0
   -0.3974   25.4109   11.5583 H   0  0  0  0  0  0
   -1.5431   28.9070   13.7869 H   0  0  0  0  0  0
   -0.6665   30.3312   12.0092 H   0  0  0  0  0  0
    0.4968   26.8475    9.7787 H   0  0  0  0  0  0
    8.4135   24.3485    4.2690 H   0  0  0  0  0  0
    7.7599   25.9354    3.8853 H   0  0  0  0  0  0
    6.6817   24.5256    4.0077 H   0  0  0  0  0  0
  1  8  1  0  0  0
  1 12  2  0  0  0
  1 13  2  0  0  0
  1 14  1  0  0  0
  2  4  1  0  0  0
  2  5  2  0  0  0
  2 26  1  0  0  0
  3  5  1  0  0  0
  3 27  1  0  0  0
  3  6  1  0  0  0
  4  6  2  0  0  0
  4 11  1  0  0  0
  5  7  1  0  0  0
  7 10  2  0  0  0
  7 16  1  0  0  0
  8 18  2  0  0  0
  8 19  1  0  0  0
  9 10  1  0  0  0
  9 21  1  0  0  0
  9 15  2  0  0  0
 10 28  1  0  0  0
 11 20  1  0  0  0
 11 29  1  0  0  0
 14 30  1  0  0  0
 14 31  1  0  0  0
 15 17  1  0  0  0
 15 24  1  0  0  0
 16 17  2  0  0  0
 16 32  1  0  0  0
 17 33  1  0  0  0
 18 23  1  0  0  0
 18 34  1  0  0  0
 19 22  2  0  0  0
 19 35  1  0  0  0
 20 22  1  0  0  0
 20 23  2  0  0  0
 22 36  1  0  0  0
 23 37  1  0  0  0
 24 25  1  0  0  0
 25 38  1  0  0  0
 25 39  1  0  0  0
 25 40  1  0  0  0
M  END
> <s_m_entry_id>
32975

> <s_m_entry_name>
dock_pv.376

> <s_m_Source_Path>
/home/csk/Desktop/cluster/DUD-E-result/cdk2

> <s_m_Source_File>
dock_pv.maegz

> <i_m_Source_File_Index>
376

> <chembl_id>
CHEMBL102241

> <chembl_pref_name>
None

> <i_lp_mmshare_version>
53161

> <i_f3d_flags>
0

> <r_lp_tautomer_probability>
0.842599999161192

> <s_lp_Force_Field>
OPLS_2005

> <r_lp_Energy>
22.892904

> <b_lp_Chiralities_Consistent>
1

> <s_lp_Variant>
CHEMBL301_lig286-1

> <s_i_glide_gridfile>
glide-grid_1h00

> <i_i_glide_lignum>
454

> <i_i_glide_rotatable_bonds>
5

> <r_i_docking_score>
-7.30849016351162

> <r_i_glide_ligand_efficiency>
-0.292339606540465

> <r_i_glide_ligand_efficiency_sa>
-0.854806194189317

> <r_i_glide_ligand_efficiency_ln>
-1.7323311865288

> <r_i_glide_gscore>
-7.30849016351162

> <r_i_glide_lipo>
-2.54866668501

> <r_i_glide_hbond>
-0.425720262893649

> <r_i_glide_metal>
0

> <r_i_glide_rewards>
-1.4575096665895

> <r_i_glide_evdw>
-35.9360313415527

> <r_i_glide_ecoul>
-8.93456077575684

> <r_i_glide_erotb>
0.438656645020628

> <r_i_glide_esite>
-0.178264510597929

> <r_i_glide_emodel>
-62.9364679476496

> <r_i_glide_energy>
-44.8705921173096

> <r_i_glide_einternal>
3.424147605896

> <i_i_glide_confnum>
2

> <i_i_glide_posenum>
65

> <r_i_glide_eff_state_penalty>
0

> <s_user_duplicate_titles>
CHEMBL301_lig286,166065

> <s_m_subgroup_title>
dock_pv

> <s_m_subgroupid>
dock_pv

> <b_m_subgroup_collapsed>
1

$$$$
CHEMBL301_lig1035
                    3D
 Schrodinger Suite 2021-1.
 39 41  0  0  1  0            999 V2000
   -0.8407   28.4843   10.5313 N   0  0  0  0  0  0
   -0.7779   27.0183   10.6570 C   0  0  0  0  0  0
   -0.1047   26.6006   11.9834 C   0  0  0  0  0  0
   -0.7899   27.2332   13.2120 C   0  0  0  0  0  0
   -0.9440   28.7494   12.9760 C   0  0  0  0  0  0
   -1.6262   29.0602   11.6296 C   0  0  0  0  0  0
   -0.0382   29.2456    9.6929 C   0  0  0  0  0  0
    5.3717   27.3967    6.8185 N   0  0  0  0  0  0
    5.2112   27.5264    8.1572 C   0  0  0  0  0  0
    4.1564   28.2484    8.7116 C   0  0  0  0  0  0
    3.2580   28.8686    7.8392 C   0  0  0  0  0  0
    3.4247   28.7853    6.4864 N   0  0  0  0  0  0
    4.4663   28.0373    6.0424 C   0  0  0  0  0  0
    4.5946   27.8642    4.6731 N   0  0  0  0  0  0
    1.9910   29.4943    8.3315 C   0  0  0  0  0  0
    1.2533   28.8364    9.3369 C   0  0  0  0  0  0
   -0.5451   30.4185    9.1284 C   0  0  0  0  0  0
    0.1855   31.1187    8.1761 C   0  0  0  0  0  0
    1.4271   30.6503    7.7535 C   0  0  0  0  0  0
    2.0580   31.3658    6.7677 O   0  0  0  0  0  0
   -2.0616   26.6514   13.4378 O   0  0  0  0  0  0
   -1.7975   26.6300   10.6271 H   0  0  0  0  0  0
   -0.2710   26.5760    9.7985 H   0  0  0  0  0  0
   -0.1329   25.5142   12.0695 H   0  0  0  0  0  0
    0.9548   26.8538   11.9562 H   0  0  0  0  0  0
   -0.1903   27.0531   14.1059 H   0  0  0  0  0  0
    0.0262   29.2461   13.0189 H   0  0  0  0  0  0
   -1.5367   29.1946   13.7765 H   0  0  0  0  0  0
   -1.7703   30.1348   11.5152 H   0  0  0  0  0  0
   -2.6256   28.6219   11.6063 H   0  0  0  0  0  0
    5.9225   27.0141    8.7890 H   0  0  0  0  0  0
    4.0171   28.2771    9.7769 H   0  0  0  0  0  0
    4.0023   28.4042    4.0650 H   0  0  0  0  0  0
    5.4298   27.4065    4.3376 H   0  0  0  0  0  0
    1.6474   27.9277    9.7678 H   0  0  0  0  0  0
   -1.5316   30.7718    9.3901 H   0  0  0  0  0  0
   -0.2276   32.0196    7.7475 H   0  0  0  0  0  0
    2.9531   31.0525    6.5744 H   0  0  0  0  0  0
   -2.6493   27.3380   13.7781 H   0  0  0  0  0  0
  1  6  1  0  0  0
  1  7  1  0  0  0
  1  2  1  0  0  0
  2  3  1  0  0  0
  2 22  1  0  0  0
  2 23  1  0  0  0
  3  4  1  0  0  0
  3 24  1  0  0  0
  3 25  1  0  0  0
  4  5  1  0  0  0
  4 21  1  0  0  0
  4 26  1  0  0  0
  5  6  1  0  0  0
  5 27  1  0  0  0
  5 28  1  0  0  0
  6 29  1  0  0  0
  6 30  1  0  0  0
  7 16  1  0  0  0
  7 17  2  0  0  0
  8 13  1  0  0  0
  8  9  2  0  0  0
  9 10  1  0  0  0
  9 31  1  0  0  0
 10 11  2  0  0  0
 10 32  1  0  0  0
 11 12  1  0  0  0
 11 15  1  0  0  0
 12 13  2  0  0  0
 13 14  1  0  0  0
 14 33  1  0  0  0
 14 34  1  0  0  0
 15 16  2  0  0  0
 15 19  1  0  0  0
 16 35  1  0  0  0
 17 18  1  0  0  0
 17 36  1  0  0  0
 18 19  2  0  0  0
 18 37  1  0  0  0
 19 20  1  0  0  0
 20 38  1  0  0  0
 21 39  1  0  0  0
M  END
> <s_m_entry_id>
32976

> <s_m_entry_name>
dock_pv.377

> <s_m_Source_Path>
/home/csk/Desktop/cluster/DUD-E-result/cdk2

> <s_m_Source_File>
dock_pv.maegz

> <i_m_Source_File_Index>
377

> <chembl_id>
CHEMBL1800447

> <chembl_pref_name>
None

> <i_lp_mmshare_version>
53161

> <i_f3d_flags>
0

> <r_lp_tautomer_probability>
0.999999987633365

> <s_lp_Force_Field>
OPLS_2005

> <r_lp_Energy>
17.401713

> <b_lp_Chiralities_Consistent>
1

> <s_lp_Variant>
CHEMBL301_lig1035-1

> <s_i_glide_gridfile>
glide-grid_1h00

> <i_i_glide_lignum>
1436

> <i_i_glide_rotatable_bonds>
4

> <r_i_docking_score>
-7.30826511481518

> <r_i_glide_ligand_efficiency>
-0.348012624515008

> <r_i_glide_ligand_efficiency_sa>
-0.960140442485912

> <r_i_glide_ligand_efficiency_ln>
-1.80695378189788

> <r_i_glide_gscore>
-7.30826511481518

> <r_i_glide_lipo>
-2.6931947158097

> <r_i_glide_hbond>
-0.504144463139127

> <r_i_glide_metal>
0

> <r_i_glide_rewards>
-2.02220228761008

> <r_i_glide_evdw>
-34.6242446899414

> <r_i_glide_ecoul>
-5.3365364074707

> <r_i_glide_erotb>
0.442969047361413

> <r_i_glide_esite>
0

> <r_i_glide_emodel>
-55.6548773361502

> <r_i_glide_energy>
-39.9607810974121

> <r_i_glide_einternal>
0.949328362941742

> <i_i_glide_confnum>
21

> <i_i_glide_posenum>
7

> <r_i_glide_eff_state_penalty>
0

> <s_user_duplicate_titles>
CHEMBL301_lig1035

> <s_m_subgroup_title>
dock_pv

> <s_m_subgroupid>
dock_pv

> <b_m_subgroup_collapsed>
1

$$$$
CHEMBL301_lig100
                    3D
 Schrodinger Suite 2021-1.
 36 39  0  0  1  0            999 V2000
    1.6865   27.8449    9.8962 C   0  0  0  0  0  0
    1.4379   29.0520    9.2114 C   0  0  0  0  0  0
    2.3400   29.5716    8.3221 N   0  0  0  0  0  0
    2.8030   27.0627    9.5811 C   0  0  0  0  0  0
    3.6580   27.5274    8.5725 C   0  0  0  0  0  0
    3.3922   28.8015    8.0379 C   0  0  0  0  0  0
    4.4024   29.0520    7.1409 N   0  0  0  0  0  0
    5.2215   27.9944    7.0084 N   0  0  0  0  0  0
    4.7616   27.0470    7.7960 C   0  0  0  0  0  0
    5.1517   25.7174    7.7759 N   0  0  0  0  0  0
    6.2959   25.2236    7.2566 C   0  0  0  0  0  0
    6.3564   23.7105    6.9760 C   0  0  0  0  0  0
    7.2902   25.9004    6.9995 O   0  0  0  0  0  0
    0.1412   29.8116    9.3557 C   0  0  0  0  0  0
   -0.0675   31.0520    8.7207 C   0  0  0  0  0  0
   -1.2413   31.7834    8.9080 C   0  0  0  0  0  0
   -2.2722   31.2598    9.6809 C   0  0  0  0  0  0
   -2.1225   30.0035   10.2573 C   0  0  0  0  0  0
   -0.9315   29.2962   10.1049 C   0  0  0  0  0  0
    5.0708   22.9021    6.9761 C   0  0  0  0  0  0
    5.7561   23.2628    5.6648 C   0  0  0  0  0  0
   -3.1443   29.4520   10.9760 O   0  0  0  0  0  0
    1.0070   27.4636   10.6410 H   0  0  0  0  0  0
    2.9732   26.1100   10.0607 H   0  0  0  0  0  0
    4.5523   29.9069    6.6064 H   0  0  0  0  0  0
    4.4957   25.0598    8.1634 H   0  0  0  0  0  0
    7.2739   23.2312    7.3161 H   0  0  0  0  0  0
    0.7074   31.4943    8.1118 H   0  0  0  0  0  0
   -1.3544   32.7512    8.4412 H   0  0  0  0  0  0
   -3.1877   31.8183    9.8127 H   0  0  0  0  0  0
   -0.8717   28.3331   10.5843 H   0  0  0  0  0  0
    4.1049   23.3612    7.1934 H   0  0  0  0  0  0
    5.1131   21.8694    7.3234 H   0  0  0  0  0  0
    6.2728   22.4851    5.1013 H   0  0  0  0  0  0
    5.2911   23.9995    5.0061 H   0  0  0  0  0  0
   -3.5419   30.0738   11.6123 H   0  0  0  0  0  0
  1  2  2  0  0  0
  1  4  1  0  0  0
  1 23  1  0  0  0
  2  3  1  0  0  0
  2 14  1  0  0  0
  3  6  2  0  0  0
  4  5  2  0  0  0
  4 24  1  0  0  0
  5  6  1  0  0  0
  5  9  1  0  0  0
  6  7  1  0  0  0
  7  8  1  0  0  0
  7 25  1  0  0  0
  8  9  2  0  0  0
  9 10  1  0  0  0
 10 11  1  0  0  0
 10 26  1  0  0  0
 11 12  1  0  0  0
 11 13  2  0  0  0
 12 20  1  0  0  0
 12 21  1  0  0  0
 12 27  1  0  0  0
 14 15  2  0  0  0
 14 19  1  0  0  0
 15 16  1  0  0  0
 15 28  1  0  0  0
 16 17  2  0  0  0
 16 29  1  0  0  0
 17 18  1  0  0  0
 17 30  1  0  0  0
 18 19  2  0  0  0
 18 22  1  0  0  0
 19 31  1  0  0  0
 20 21  1  0  0  0
 20 32  1  0  0  0
 20 33  1  0  0  0
 21 34  1  0  0  0
 21 35  1  0  0  0
 22 36  1  0  0  0
M  END
> <s_m_entry_id>
32977

> <s_m_entry_name>
dock_pv.378

> <s_m_Source_Path>
/home/csk/Desktop/cluster/DUD-E-result/cdk2

> <s_m_Source_File>
dock_pv.maegz

> <i_m_Source_File_Index>
378

> <chembl_id>
CHEMBL408019

> <chembl_pref_name>
None

> <i_lp_mmshare_version>
53161

> <i_f3d_flags>
0

> <r_lp_tautomer_probability>
0.960980075421075

> <s_lp_Force_Field>
OPLS_2005

> <r_lp_Energy>
16.034376

> <b_lp_Chiralities_Consistent>
1

> <s_lp_Variant>
CHEMBL301_lig100-1

> <s_i_glide_gridfile>
glide-grid_1h00

> <i_i_glide_lignum>
212

> <i_i_glide_rotatable_bonds>
5

> <r_i_docking_score>
-7.30677215372221

> <r_i_glide_ligand_efficiency>
-0.332126006987373

> <r_i_glide_ligand_efficiency_sa>
-0.930630133353273

> <r_i_glide_ligand_efficiency_ln>
-1.78604163535974

> <r_i_glide_gscore>
-7.30677215372221

> <r_i_glide_lipo>
-1.87213348436615

> <r_i_glide_hbond>
-0.456

> <r_i_glide_metal>
0

> <r_i_glide_rewards>
-2.99854795912252

> <r_i_glide_evdw>
-31.2149600982666

> <r_i_glide_ecoul>
-8.33046913146973

> <r_i_glide_erotb>
0.844478355681945

> <r_i_glide_esite>
-0.0142506912816978

> <r_i_glide_emodel>
-50.6640200622066

> <r_i_glide_energy>
-39.5454292297363

> <r_i_glide_einternal>
16.5142154693604

> <i_i_glide_confnum>
19

> <i_i_glide_posenum>
357

> <r_i_glide_eff_state_penalty>
0

> <s_user_duplicate_titles>
CHEMBL301_lig100,429224

> <s_m_subgroup_title>
dock_pv

> <s_m_subgroupid>
dock_pv

> <b_m_subgroup_collapsed>
1

$$$$
CHEMBL301_lig1084
                    3D
 Schrodinger Suite 2021-1.
 46 48  0  0  1  0            999 V2000
   -1.2534   31.8140    9.5541 C   0  0  0  0  0  0
   -0.7420   32.6663    8.5760 C   0  0  0  0  0  0
    0.3161   32.3891    7.7760 N   0  0  0  0  0  0
   -0.6440   30.5686    9.7894 C   0  0  0  0  0  0
   -1.1285   29.7928   10.8577 N   0  0  0  0  0  0
   -0.8797   28.3645   10.9389 C   0  0  0  0  0  0
    0.4828   30.2520    8.9753 C   0  0  0  0  0  0
    0.8580   31.1945    7.9835 C   0  0  0  0  0  0
    1.9698   30.6719    7.3757 N   0  0  0  0  0  0
    2.2707   29.5045    8.0275 C   0  0  0  0  0  0
    1.3994   29.2209    8.9765 N   0  0  0  0  0  0
    3.4281   28.6520    7.6225 C   0  0  0  0  0  0
    4.0520   27.8085    8.5415 C   0  0  0  0  0  0
    5.0661   26.9551    8.1187 C   0  0  0  0  0  0
    5.4623   26.9111    6.7863 C   0  0  0  0  0  0
    4.8579   27.7800    5.8685 C   0  0  0  0  0  0
    3.8572   28.6508    6.2886 C   0  0  0  0  0  0
    6.4362   25.9846    6.4710 O   0  0  0  0  0  0
    6.7879   25.7776    5.1071 C   0  0  0  0  0  0
   -2.7428   32.4265   10.5762 Br  0  0  0  0  0  0
   -1.3747   27.7501   12.2597 C   0  0  0  0  0  0
   -1.0109   26.2640   12.4464 C   0  0  0  0  0  0
    0.4155   26.0055   12.2280 N   0  0  0  0  0  0
    0.9417   25.4492   11.1259 C   0  0  0  0  0  0
    2.4580   25.3504   11.0877 C   0  0  0  0  0  0
    0.2716   25.0521   10.1760 O   0  0  0  0  0  0
   -1.1841   33.6390    8.4224 H   0  0  0  0  0  0
   -2.0328   30.0876   11.2034 H   0  0  0  0  0  0
    0.1906   28.1903   10.8529 H   0  0  0  0  0  0
   -1.3002   27.8455   10.0756 H   0  0  0  0  0  0
    2.5516   31.0541    6.6444 H   0  0  0  0  0  0
    3.7416   27.7941    9.5771 H   0  0  0  0  0  0
    5.5385   26.2919    8.8220 H   0  0  0  0  0  0
    5.1561   27.7892    4.8321 H   0  0  0  0  0  0
    3.3966   29.2993    5.5581 H   0  0  0  0  0  0
    7.4964   24.9522    5.0421 H   0  0  0  0  0  0
    5.9201   25.5132    4.5013 H   0  0  0  0  0  0
    7.2722   26.6519    4.6737 H   0  0  0  0  0  0
   -2.4569   27.8700   12.3369 H   0  0  0  0  0  0
   -0.9660   28.3211   13.0948 H   0  0  0  0  0  0
   -1.6155   25.6585   11.7653 H   0  0  0  0  0  0
   -1.2635   25.9449   13.4584 H   0  0  0  0  0  0
    1.0572   26.3657   12.9234 H   0  0  0  0  0  0
    2.9023   26.3035   11.3759 H   0  0  0  0  0  0
    2.8059   25.1057   10.0822 H   0  0  0  0  0  0
    2.8091   24.5852   11.7776 H   0  0  0  0  0  0
  1  2  2  0  0  0
  1  4  1  0  0  0
  1 20  1  0  0  0
  2  3  1  0  0  0
  2 27  1  0  0  0
  3  8  2  0  0  0
  4  7  2  0  0  0
  4  5  1  0  0  0
  5  6  1  0  0  0
  5 28  1  0  0  0
  6 21  1  0  0  0
  6 29  1  0  0  0
  6 30  1  0  0  0
  7  8  1  0  0  0
  7 11  1  0  0  0
  8  9  1  0  0  0
  9 10  1  0  0  0
  9 31  1  0  0  0
 10 11  2  0  0  0
 10 12  1  0  0  0
 12 13  2  0  0  0
 12 17  1  0  0  0
 13 14  1  0  0  0
 13 32  1  0  0  0
 14 15  2  0  0  0
 14 33  1  0  0  0
 15 16  1  0  0  0
 15 18  1  0  0  0
 16 17  2  0  0  0
 16 34  1  0  0  0
 17 35  1  0  0  0
 18 19  1  0  0  0
 19 36  1  0  0  0
 19 37  1  0  0  0
 19 38  1  0  0  0
 21 22  1  0  0  0
 21 39  1  0  0  0
 21 40  1  0  0  0
 22 23  1  0  0  0
 22 41  1  0  0  0
 22 42  1  0  0  0
 23 24  1  0  0  0
 23 43  1  0  0  0
 24 25  1  0  0  0
 24 26  2  0  0  0
 25 44  1  0  0  0
 25 45  1  0  0  0
 25 46  1  0  0  0
M  END
> <s_m_entry_id>
32978

> <s_m_entry_name>
dock_pv.379

> <s_m_Source_Path>
/home/csk/Desktop/cluster/DUD-E-result/cdk2

> <s_m_Source_File>
dock_pv.maegz

> <i_m_Source_File_Index>
379

> <chembl_id>
CHEMBL2011928

> <chembl_pref_name>
None

> <i_lp_mmshare_version>
53161

> <i_f3d_flags>
0

> <r_lp_tautomer_probability>
1

> <s_lp_Force_Field>
OPLS_2005

> <r_lp_Energy>
18.418057

> <b_lp_Chiralities_Consistent>
1

> <s_lp_Variant>
CHEMBL301_lig1084-1

> <s_i_glide_gridfile>
glide-grid_1h00

> <i_i_glide_lignum>
1487

> <i_i_glide_rotatable_bonds>
8

> <r_i_docking_score>
-7.30668735316215

> <r_i_glide_ligand_efficiency>
-0.281026436660083

> <r_i_glide_ligand_efficiency_sa>
-0.832539712819863

> <r_i_glide_ligand_efficiency_ln>
-1.71595154969342

> <r_i_glide_gscore>
-7.30668735316215

> <r_i_glide_lipo>
-2.49032858389706

> <r_i_glide_hbond>
-0.433338609428585

> <r_i_glide_metal>
0

> <r_i_glide_rewards>
-2.36896562101646

> <r_i_glide_evdw>
-39.0509910583496

> <r_i_glide_ecoul>
-4.86713361740112

> <r_i_glide_erotb>
0.678065016561471

> <r_i_glide_esite>
-0.00949995985386762

> <r_i_glide_emodel>
-63.25527271335

> <r_i_glide_energy>
-43.9181246757507

> <r_i_glide_einternal>
3.35720753669739

> <i_i_glide_confnum>
57

> <i_i_glide_posenum>
381

> <r_i_glide_eff_state_penalty>
0

> <s_user_duplicate_titles>
CHEMBL301_lig1084

> <s_m_subgroup_title>
dock_pv

> <s_m_subgroupid>
dock_pv

> <b_m_subgroup_collapsed>
1

$$$$
CHEMBL301_lig7
                    3D
 Schrodinger Suite 2021-1.
 53 55  0  0  1  0            999 V2000
    1.9931   28.0452    9.8464 N   0  0  0  0  0  0
    1.0238   27.9291   10.7658 C   0  0  0  0  0  0
   -0.0935   28.6520   10.9070 N   0  0  0  0  0  0
   -0.3194   29.6494   10.0145 C   0  0  0  0  0  0
    1.7502   29.0522    8.9714 C   0  0  0  0  0  0
    0.6330   29.8713    8.9894 C   0  0  0  0  0  0
    0.6722   30.7754    7.9955 N   0  0  0  0  0  0
    1.7980   30.5246    7.3756 C   0  0  0  0  0  0
    2.4578   29.4512    7.8541 N   0  0  0  0  0  0
   -1.4764   30.4079   10.1678 N   0  0  0  0  0  0
    3.7788   28.9224    7.2954 C   0  0  2  0  0  0
    3.6512   28.5651    5.9444 O   0  0  0  0  0  0
    4.8397   27.8846    5.5599 C   0  0  1  0  0  0
    5.0838   26.9845    6.7635 C   0  0  2  0  0  0
    4.4015   27.6800    7.9423 C   0  0  1  0  0  0
    6.4562   26.6514    6.9109 O   0  0  0  0  0  0
    5.2576   28.0719    8.9760 O   0  0  0  0  0  0
    4.7394   27.1539    4.2053 C   0  0  0  0  0  0
    3.8957   26.0085    4.2406 O   0  0  0  0  0  0
    4.4579   24.4739    4.3442 P   0  0  2  0  0  0
    5.8121   24.4550    3.4713 O   0  0  0  0  0  0
    3.4409   23.6909    3.3758 O   0  0  0  0  0  0
    4.5752   23.8814    5.7026 O   0  0  0  0  0  0
    6.7385   23.2927    2.6553 P   0  0  2  0  0  0
    7.8722   24.1698    1.7598 O   0  0  0  0  0  0
    5.6580   22.6509    1.5099 O   0  0  0  0  0  0
    7.3469   22.2499    3.5628 O   0  0  0  0  0  0
    9.4693   24.2383    1.5722 P   0  0  1  0  0  0
    9.9970   24.7739    3.0866 N   0  0  1  0  0  0
   10.0852   22.9902    1.0501 O   0  0  0  0  0  0
    9.6579   25.5382    0.6322 O   0  0  0  0  0  0
   11.4106   24.9232    3.3992 C   0  0  0  0  0  0
   11.5459   24.9574    4.8625 C   0  0  0  0  0  0
   11.6741   24.9984    6.0761 C   0  0  0  0  0  0
    1.1701   27.1488   11.4987 H   0  0  0  0  0  0
    2.1813   31.0526    6.5131 H   0  0  0  0  0  0
   -1.6141   31.2129    9.5755 H   0  0  0  0  0  0
   -2.0767   30.2211   10.9593 H   0  0  0  0  0  0
    4.4710   29.7665    7.3771 H   0  0  0  0  0  0
    5.6125   28.6480    5.4791 H   0  0  0  0  0  0
    4.5226   26.0659    6.6475 H   0  0  0  0  0  0
    3.6175   27.0228    8.3140 H   0  0  0  0  0  0
    6.9829   27.4340    6.7168 H   0  0  0  0  0  0
    5.3774   27.3136    9.5698 H   0  0  0  0  0  0
    5.7393   26.8917    3.8570 H   0  0  0  0  0  0
    4.3400   27.8488    3.4666 H   0  0  0  0  0  0
    3.4846   23.9965    2.4382 H   0  0  0  0  0  0
    5.1010   23.2728    0.9765 H   0  0  0  0  0  0
    9.3772   25.3886    3.6124 H   0  0  0  0  0  0
   10.6057   25.8521    0.5761 H   0  0  0  0  0  0
   11.7933   25.8511    2.9763 H   0  0  0  0  0  0
   11.9839   24.0857    2.9986 H   0  0  0  0  0  0
   11.7900   25.0509    7.1352 H   0  0  0  0  0  0
  1  2  2  0  0  0
  1  5  1  0  0  0
  2  3  1  0  0  0
  2 35  1  0  0  0
  3  4  2  0  0  0
  4  6  1  0  0  0
  4 10  1  0  0  0
  5  9  1  0  0  0
  5  6  2  0  0  0
  6  7  1  0  0  0
  7  8  2  0  0  0
  8  9  1  0  0  0
  8 36  1  0  0  0
  9 11  1  0  0  0
 10 37  1  0  0  0
 10 38  1  0  0  0
 11 12  1  0  0  0
 11 15  1  0  0  0
 11 39  1  0  0  0
 12 13  1  0  0  0
 13 18  1  0  0  0
 13 14  1  0  0  0
 13 40  1  0  0  0
 14 16  1  0  0  0
 14 15  1  0  0  0
 14 41  1  0  0  0
 15 17  1  0  0  0
 15 42  1  0  0  0
 16 43  1  0  0  0
 17 44  1  0  0  0
 18 19  1  0  0  0
 18 45  1  0  0  0
 18 46  1  0  0  0
 19 20  1  0  0  0
 20 21  1  0  0  0
 20 22  1  0  0  0
 20 23  2  0  0  0
 21 24  1  0  0  0
 22 47  1  0  0  0
 24 25  1  0  0  0
 24 26  1  0  0  0
 24 27  2  0  0  0
 25 28  1  0  0  0
 26 48  1  0  0  0
 28 29  1  0  0  0
 28 30  2  0  0  0
 28 31  1  0  0  0
 29 32  1  0  0  0
 29 49  1  0  0  0
 31 50  1  0  0  0
 32 33  1  0  0  0
 32 51  1  0  0  0
 32 52  1  0  0  0
 33 34  3  0  0  0
 34 53  1  0  0  0
M  END
> <s_m_entry_id>
32979

> <s_m_entry_name>
dock_pv.380

> <s_m_Source_Path>
/home/csk/Desktop/cluster/DUD-E-result/cdk2

> <s_m_Source_File>
dock_pv.maegz

> <i_m_Source_File_Index>
380

> <chembl_id>
CHEMBL557670

> <chembl_pref_name>
None

> <i_lp_mmshare_version>
53161

> <i_f3d_flags>
0

> <r_lp_tautomer_probability>
0.999997216410988

> <s_lp_Force_Field>
OPLS_2005

> <r_lp_Energy>
10.666663

> <b_lp_Chiralities_Consistent>
1

> <s_lp_Variant>
CHEMBL301_lig7-1

> <s_i_glide_gridfile>
glide-grid_1h00

> <i_i_glide_lignum>
8

> <i_i_glide_rotatable_bonds>
16

> <r_i_docking_score>
-7.30041289757156

> <r_i_glide_ligand_efficiency>
-0.214718026399164

> <r_i_glide_ligand_efficiency_sa>
-0.695603051452092

> <r_i_glide_ligand_efficiency_ln>
-1.61286597871932

> <r_i_glide_gscore>
-7.30041289757156

> <r_i_glide_lipo>
-1.19879779234147

> <r_i_glide_hbond>
0

> <r_i_glide_metal>
0

> <r_i_glide_rewards>
-1.19914502157209

> <r_i_glide_evdw>
-31.330696105957

> <r_i_glide_ecoul>
-27.7714977264404

> <r_i_glide_erotb>
0.768624783623472

> <r_i_glide_esite>
-0.104560061983623

> <r_i_glide_emodel>
-80.4384943125672

> <r_i_glide_energy>
-59.1021938323975

> <r_i_glide_einternal>
21.6416015625

> <i_i_glide_confnum>
299

> <i_i_glide_posenum>
206

> <r_i_glide_eff_state_penalty>
0

> <s_user_duplicate_titles>
CHEMBL301_lig7

> <s_m_subgroup_title>
dock_pv

> <s_m_subgroupid>
dock_pv

> <b_m_subgroup_collapsed>
1

$$$$
CHEMBL301_lig1154
                    3D
 Schrodinger Suite 2021-1.
 49 52  0  0  1  0            999 V2000
    3.7277   28.5378    5.8455 C   0  0  0  0  0  0
    4.6117   27.4621    5.7175 C   0  0  0  0  0  0
    5.2214   26.9364    6.8573 C   0  0  0  0  0  0
    4.9267   27.4673    8.1092 C   0  0  0  0  0  0
    4.0113   28.5117    8.2370 C   0  0  0  0  0  0
    3.4004   29.0513    7.1017 C   0  0  0  0  0  0
    4.9580   26.7467    4.1143 S   0  0  0  0  0  0
    2.4580   30.0867    7.1733 N   0  0  0  0  0  0
    1.3574   30.2525    8.0204 C   0  0  0  0  0  0
    0.5818   31.3371    7.7761 N   0  0  0  0  0  0
   -0.5051   31.4955    8.5761 C   0  0  0  0  0  0
   -0.8350   30.5880    9.5877 C   0  0  0  0  0  0
    0.0140   29.4851    9.7687 C   0  0  0  0  0  0
    1.1184   29.3304    8.9857 N   0  0  0  0  0  0
   -0.2481   28.3969   10.7673 C   0  0  0  0  0  0
    0.3155   27.1184   10.6097 C   0  0  0  0  0  0
    0.0495   26.0849   11.5223 C   0  0  0  0  0  0
   -0.7771   26.3044   12.5848 N   0  0  0  0  0  0
   -1.3079   27.5395   12.7595 C   0  0  0  0  0  0
   -1.0739   28.5974   11.8825 C   0  0  0  0  0  0
    0.5399   24.7840   11.3305 N   0  0  0  0  0  0
    6.0628   27.8519    3.3759 N   0  0  0  0  0  0
    5.6861   25.4927    4.3283 O   0  0  0  0  0  0
    3.7353   26.7843    3.3093 O   0  0  0  0  0  0
    1.7546   24.5484   10.5173 C   0  0  0  0  0  0
    2.0578   23.0760   10.1803 C   0  0  0  0  0  0
    2.0347   22.2925   11.3604 O   0  0  0  0  0  0
    0.7295   22.2926   11.9177 C   0  0  0  0  0  0
    0.3275   23.7219   12.3408 C   0  0  0  0  0  0
    3.2584   28.9539    4.9758 H   0  0  0  0  0  0
    5.9204   26.1161    6.7803 H   0  0  0  0  0  0
    5.4083   27.0525    8.9761 H   0  0  0  0  0  0
    3.7749   28.8933    9.2177 H   0  0  0  0  0  0
    2.6013   30.8283    6.5039 H   0  0  0  0  0  0
   -1.1206   32.3636    8.3854 H   0  0  0  0  0  0
   -1.7226   30.7333   10.1850 H   0  0  0  0  0  0
    0.9513   26.9400    9.7608 H   0  0  0  0  0  0
   -1.9431   27.6771   13.6230 H   0  0  0  0  0  0
   -1.5350   29.5545   12.0809 H   0  0  0  0  0  0
    6.8847   27.9870    3.9789 H   0  0  0  0  0  0
    6.4044   27.4743    2.4898 H   0  0  0  0  0  0
    2.6103   25.0023   11.0207 H   0  0  0  0  0  0
    1.6611   25.0500    9.5557 H   0  0  0  0  0  0
    1.3578   22.6873    9.4401 H   0  0  0  0  0  0
    3.0434   22.9980    9.7215 H   0  0  0  0  0  0
    0.0045   21.8764   11.2148 H   0  0  0  0  0  0
    0.7213   21.6319   12.7852 H   0  0  0  0  0  0
   -0.7315   23.6994   12.6016 H   0  0  0  0  0  0
    0.8576   23.9877   13.2532 H   0  0  0  0  0  0
  1  6  1  0  0  0
  1  2  2  0  0  0
  1 30  1  0  0  0
  2  7  1  0  0  0
  2  3  1  0  0  0
  3  4  2  0  0  0
  3 31  1  0  0  0
  4  5  1  0  0  0
  4 32  1  0  0  0
  5  6  2  0  0  0
  5 33  1  0  0  0
  6  8  1  0  0  0
  7 22  1  0  0  0
  7 23  2  0  0  0
  7 24  2  0  0  0
  8  9  1  0  0  0
  8 34  1  0  0  0
  9 14  1  0  0  0
  9 10  2  0  0  0
 10 11  1  0  0  0
 11 12  2  0  0  0
 11 35  1  0  0  0
 12 13  1  0  0  0
 12 36  1  0  0  0
 13 15  1  0  0  0
 13 14  2  0  0  0
 15 16  2  0  0  0
 15 20  1  0  0  0
 16 17  1  0  0  0
 16 37  1  0  0  0
 17 18  2  0  0  0
 17 21  1  0  0  0
 18 19  1  0  0  0
 19 20  2  0  0  0
 19 38  1  0  0  0
 20 39  1  0  0  0
 21 25  1  0  0  0
 21 29  1  0  0  0
 22 40  1  0  0  0
 22 41  1  0  0  0
 25 26  1  0  0  0
 25 42  1  0  0  0
 25 43  1  0  0  0
 26 27  1  0  0  0
 26 44  1  0  0  0
 26 45  1  0  0  0
 27 28  1  0  0  0
 28 29  1  0  0  0
 28 46  1  0  0  0
 28 47  1  0  0  0
 29 48  1  0  0  0
 29 49  1  0  0  0
M  END
> <s_m_entry_id>
32980

> <s_m_entry_name>
dock_pv.381

> <s_m_Source_Path>
/home/csk/Desktop/cluster/DUD-E-result/cdk2

> <s_m_Source_File>
dock_pv.maegz

> <i_m_Source_File_Index>
381

> <chembl_id>
CHEMBL2158845

> <chembl_pref_name>
None

> <i_lp_mmshare_version>
53161

> <i_f3d_flags>
0

> <r_lp_tautomer_probability>
0.999999987636

> <s_lp_Force_Field>
OPLS_2005

> <r_lp_Energy>
22.590942

> <b_lp_Chiralities_Consistent>
1

> <s_lp_Variant>
CHEMBL301_lig1154-1

> <s_i_glide_gridfile>
glide-grid_1h00

> <i_i_glide_lignum>
1566

> <i_i_glide_rotatable_bonds>
5

> <r_i_docking_score>
-7.30006615826386

> <r_i_glide_ligand_efficiency>
-0.251726419250478

> <r_i_glide_ligand_efficiency_sa>
-0.773383312464823

> <r_i_glide_ligand_efficiency_ln>
-1.6715300365367

> <r_i_glide_gscore>
-7.30006615826386

> <r_i_glide_lipo>
-2.66115232412271

> <r_i_glide_hbond>
-0.427775138861276

> <r_i_glide_metal>
0

> <r_i_glide_rewards>
-1.35325057992517

> <r_i_glide_evdw>
-44.189266204834

> <r_i_glide_ecoul>
-6.94577360153198

> <r_i_glide_erotb>
0.463630409351665

> <r_i_glide_esite>
-0.0701891742348723

> <r_i_glide_emodel>
-73.5943403988441

> <r_i_glide_energy>
-51.135039806366

> <r_i_glide_einternal>
2.60708546638489

> <i_i_glide_confnum>
4

> <i_i_glide_posenum>
255

> <r_i_glide_eff_state_penalty>
0

> <s_user_duplicate_titles>
CHEMBL301_lig1154

> <s_m_subgroup_title>
dock_pv

> <s_m_subgroupid>
dock_pv

> <b_m_subgroup_collapsed>
1

$$$$
CHEMBL301_lig11
                    3D
 Schrodinger Suite 2021-1.
 68 70  0  0  1  0            999 V2000
    8.5222   23.8304    6.0069 N   0  0  0  0  0  0
    9.5173   23.1345    6.5758 C   0  0  0  0  0  0
   10.8374   23.3578    6.5383 N   0  0  0  0  0  0
   11.2786   24.4203    5.8152 C   0  0  0  0  0  0
    8.9942   24.8874    5.2986 C   0  0  0  0  0  0
   10.3274   25.2317    5.1528 C   0  0  0  0  0  0
   10.4658   26.3227    4.3834 N   0  0  0  0  0  0
    9.2399   26.6522    4.0695 C   0  0  0  0  0  0
    8.3023   25.8520    4.6166 N   0  0  0  0  0  0
   12.6490   24.6518    5.7762 N   0  0  0  0  0  0
    6.7950   25.9899    4.5099 C   0  0  2  0  0  0
    6.1694   25.6976    5.7180 O   0  0  0  0  0  0
    4.8070   25.3818    5.5051 C   0  0  1  0  0  0
    4.7454   24.8464    4.0643 C   0  0  2  0  0  0
    6.1027   25.1810    3.4116 C   0  0  1  0  0  0
    3.6157   25.3621    3.3760 O   0  0  0  0  0  0
    6.0585   25.9315    2.2018 O   0  0  0  0  0  0
    4.3392   24.4090    6.6042 C   0  0  0  0  0  0
    5.0070   23.1573    6.4847 O   0  0  0  0  0  0
    4.2617   21.7350    6.7763 P   0  0  1  0  0  0
    3.7945   21.8510    8.3158 O   0  0  0  0  0  0
    2.8580   21.8520    5.9785 O   0  0  0  0  0  0
    5.0570   20.5189    6.4619 O   0  0  0  0  0  0
    2.5960   21.2067    9.3263 P   0  0  2  0  0  0
    1.9416   22.5410   10.1307 O   0  0  0  0  0  0
    3.4257   20.3634   10.5532 O   0  0  0  0  0  0
    1.5757   20.3588    8.6076 O   0  0  0  0  0  0
    0.9939   22.9034   11.3793 P   0  0  1  0  0  0
    1.0517   24.5915   11.3882 N   0  0  3  0  0  0
   -0.3421   22.2523   11.3761 O   0  0  0  0  0  0
    1.9136   22.4980   12.6425 O   0  0  0  0  0  0
    0.5075   25.3981   10.3022 C   0  0  0  0  0  0
   -1.0309   25.3865   10.1922 C   0  0  0  0  0  0
   -1.7730   26.2264   11.2478 C   0  0  0  0  0  0
   -1.6964   25.7126   12.6966 C   0  0  0  0  0  0
   -2.4464   26.6538   13.6529 C   0  0  0  0  0  0
   -2.5446   26.1733   15.1188 C   0  0  0  0  0  0
   -3.2787   24.9333   15.2731 N   0  0  0  0  0  0
   -4.4347   24.9444   14.8471 N   0  3  0  0  0  0
   -5.5415   25.0034   14.5776 N   0  5  0  0  0  0
    9.2086   22.2765    7.1549 H   0  0  0  0  0  0
    8.9518   27.5001    3.4637 H   0  0  0  0  0  0
   12.9931   25.4834    5.3023 H   0  0  0  0  0  0
   13.2487   24.0721    6.3392 H   0  0  0  0  0  0
    6.6205   27.0515    4.3157 H   0  0  0  0  0  0
    4.2545   26.3204    5.5887 H   0  0  0  0  0  0
    4.6531   23.7593    4.0772 H   0  0  0  0  0  0
    6.6669   24.2581    3.2627 H   0  0  0  0  0  0
    3.6582   25.0522    2.4496 H   0  0  0  0  0  0
    5.5162   25.4419    1.5599 H   0  0  0  0  0  0
    3.2598   24.3065    6.5171 H   0  0  0  0  0  0
    4.5305   24.8279    7.5930 H   0  0  0  0  0  0
    2.2388   22.5200    6.3566 H   0  0  0  0  0  0
    2.9561   19.7451   11.1433 H   0  0  0  0  0  0
    1.3008   25.0908   12.2420 H   0  0  0  0  0  0
    1.4108   22.0507   13.3484 H   0  0  0  0  0  0
    0.9362   25.0198    9.3753 H   0  0  0  0  0  0
    0.8733   26.4202   10.4064 H   0  0  0  0  0  0
   -1.4147   24.3674   10.1998 H   0  0  0  0  0  0
   -1.2954   25.7816    9.2103 H   0  0  0  0  0  0
   -2.8274   26.2536   10.9737 H   0  0  0  0  0  0
   -1.4207   27.2582   11.1986 H   0  0  0  0  0  0
   -0.6627   25.6389   13.0298 H   0  0  0  0  0  0
   -2.1141   24.7056   12.7451 H   0  0  0  0  0  0
   -3.4449   26.8543   13.2607 H   0  0  0  0  0  0
   -1.9417   27.6221   13.6488 H   0  0  0  0  0  0
   -3.0074   26.9530   15.7294 H   0  0  0  0  0  0
   -1.5376   26.0455   15.5142 H   0  0  0  0  0  0
  1  2  2  0  0  0
  1  5  1  0  0  0
  2  3  1  0  0  0
  2 41  1  0  0  0
  3  4  2  0  0  0
  4  6  1  0  0  0
  4 10  1  0  0  0
  5  9  1  0  0  0
  5  6  2  0  0  0
  6  7  1  0  0  0
  7  8  2  0  0  0
  8  9  1  0  0  0
  8 42  1  0  0  0
  9 11  1  0  0  0
 10 43  1  0  0  0
 10 44  1  0  0  0
 11 12  1  0  0  0
 11 15  1  0  0  0
 11 45  1  0  0  0
 12 13  1  0  0  0
 13 14  1  0  0  0
 13 18  1  0  0  0
 13 46  1  0  0  0
 14 15  1  0  0  0
 14 16  1  0  0  0
 14 47  1  0  0  0
 15 17  1  0  0  0
 15 48  1  0  0  0
 16 49  1  0  0  0
 17 50  1  0  0  0
 18 19  1  0  0  0
 18 51  1  0  0  0
 18 52  1  0  0  0
 19 20  1  0  0  0
 20 21  1  0  0  0
 20 22  1  0  0  0
 20 23  2  0  0  0
 21 24  1  0  0  0
 22 53  1  0  0  0
 24 25  1  0  0  0
 24 26  1  0  0  0
 24 27  2  0  0  0
 25 28  1  0  0  0
 26 54  1  0  0  0
 28 29  1  0  0  0
 28 30  2  0  0  0
 28 31  1  0  0  0
 29 32  1  0  0  0
 29 55  1  0  0  0
 31 56  1  0  0  0
 32 33  1  0  0  0
 32 57  1  0  0  0
 32 58  1  0  0  0
 33 34  1  0  0  0
 33 59  1  0  0  0
 33 60  1  0  0  0
 34 35  1  0  0  0
 34 61  1  0  0  0
 34 62  1  0  0  0
 35 36  1  0  0  0
 35 63  1  0  0  0
 35 64  1  0  0  0
 36 37  1  0  0  0
 36 65  1  0  0  0
 36 66  1  0  0  0
 37 38  1  0  0  0
 37 67  1  0  0  0
 37 68  1  0  0  0
 38 39  2  0  0  0
 39 40  2  0  0  0
M  CHG  2  39   1  40  -1
M  END
> <s_m_entry_id>
32981

> <s_m_entry_name>
dock_pv.382

> <s_m_Source_Path>
/home/csk/Desktop/cluster/DUD-E-result/cdk2

> <s_m_Source_File>
dock_pv.maegz

> <i_m_Source_File_Index>
382

> <chembl_id>
CHEMBL550942

> <chembl_pref_name>
None

> <i_lp_mmshare_version>
53161

> <i_f3d_flags>
0

> <r_lp_tautomer_probability>
0.999997216410988

> <s_lp_Force_Field>
OPLS_2005

> <r_lp_Energy>
24.44181

> <b_lp_Chiralities_Consistent>
1

> <s_lp_Variant>
CHEMBL301_lig11-2

> <s_i_glide_gridfile>
glide-grid_1h00

> <i_i_glide_lignum>
41

> <i_i_glide_rotatable_bonds>
21

> <r_i_docking_score>
-7.29857119718272

> <r_i_glide_ligand_efficiency>
-0.182464279929568

> <r_i_glide_ligand_efficiency_sa>
-0.62401905884718

> <r_i_glide_ligand_efficiency_ln>
-1.55657044899695

> <r_i_glide_gscore>
-7.29857119718272

> <r_i_glide_lipo>
-0.890253454886719

> <r_i_glide_hbond>
-0.638401097407841

> <r_i_glide_metal>
0

> <r_i_glide_rewards>
-0.166819692196107

> <r_i_glide_evdw>
-40.7025909423828

> <r_i_glide_ecoul>
-27.0370826721191

> <r_i_glide_erotb>
0.709520437685188

> <r_i_glide_esite>
-0.277487843258102

> <r_i_glide_emodel>
-91.3862323826387

> <r_i_glide_energy>
-67.739673614502

> <r_i_glide_einternal>
18.5761756896973

> <i_i_glide_confnum>
8

> <i_i_glide_posenum>
1

> <r_i_glide_eff_state_penalty>
0

> <s_user_duplicate_titles>
CHEMBL301_lig11

> <s_m_subgroup_title>
dock_pv

> <s_m_subgroupid>
dock_pv

> <b_m_subgroup_collapsed>
1

$$$$
CHEMBL301_lig508
                    3D
 Schrodinger Suite 2021-1.
 34 36  0  0  1  0            999 V2000
    4.4743   24.6175    5.4678 C   0  0  0  0  0  0
    4.3370   25.1232    4.1777 C   0  0  0  0  0  0
    4.5274   26.4787    3.9182 C   0  0  0  0  0  0
    4.8575   27.3392    4.9618 C   0  0  0  0  0  0
    5.0094   26.8373    6.2599 C   0  0  0  0  0  0
    4.8148   25.4759    6.5101 C   0  0  0  0  0  0
    5.3108   27.7892    7.4144 C   0  0  0  0  0  0
    4.0141   28.1701    8.1299 C   0  0  0  0  0  0
    3.5205   27.3697    8.9156 O   0  0  0  0  0  0
    3.4661   29.3480    7.7734 N   0  0  0  0  0  0
    2.2057   29.8207    8.1095 C   0  0  0  0  0  0
    0.4440   31.2447    7.7758 N   0  0  0  0  0  0
    1.6555   30.8398    7.3768 N   0  0  0  0  0  0
    0.1415   30.3864    8.7961 C   0  0  0  0  0  0
    1.1941   29.4522    9.0655 C   0  0  0  0  0  0
    1.0168   28.5135   10.1010 C   0  0  0  0  0  0
   -0.1624   28.5143   10.8597 C   0  0  0  0  0  0
   -1.1619   29.4568   10.5883 C   0  0  0  0  0  0
   -1.0321   30.3886    9.5625 C   0  0  0  0  0  0
   -0.3402   27.5208   11.9451 N   0  3  0  0  0  0
    0.3117   26.4792   11.9008 O   0  0  0  0  0  0
   -1.1426   27.7685   12.8426 O   0  5  0  0  0  0
    4.3117   23.5665    5.6586 H   0  0  0  0  0  0
    4.0743   24.4532    3.3711 H   0  0  0  0  0  0
    4.4159   26.8518    2.9096 H   0  0  0  0  0  0
    4.9997   28.3912    4.7610 H   0  0  0  0  0  0
    4.9096   25.0881    7.5141 H   0  0  0  0  0  0
    5.9843   27.3166    8.1300 H   0  0  0  0  0  0
    5.8124   28.6787    7.0405 H   0  0  0  0  0  0
    3.9963   29.9196    7.1251 H   0  0  0  0  0  0
    2.1377   31.2971    6.6164 H   0  0  0  0  0  0
    1.7906   27.8085   10.3589 H   0  0  0  0  0  0
   -2.0660   29.4673   11.1827 H   0  0  0  0  0  0
   -1.8182   31.1042    9.3729 H   0  0  0  0  0  0
  1  6  1  0  0  0
  1  2  2  0  0  0
  1 23  1  0  0  0
  2  3  1  0  0  0
  2 24  1  0  0  0
  3  4  2  0  0  0
  3 25  1  0  0  0
  4  5  1  0  0  0
  4 26  1  0  0  0
  5  6  2  0  0  0
  5  7  1  0  0  0
  6 27  1  0  0  0
  7  8  1  0  0  0
  7 28  1  0  0  0
  7 29  1  0  0  0
  8  9  2  0  0  0
  8 10  1  0  0  0
 10 30  1  0  0  0
 10 11  1  0  0  0
 11 15  2  0  0  0
 11 13  1  0  0  0
 12 13  1  0  0  0
 12 14  2  0  0  0
 13 31  1  0  0  0
 14 19  1  0  0  0
 14 15  1  0  0  0
 15 16  1  0  0  0
 16 17  2  0  0  0
 16 32  1  0  0  0
 17 18  1  0  0  0
 17 20  1  0  0  0
 18 19  2  0  0  0
 18 33  1  0  0  0
 19 34  1  0  0  0
 20 21  2  0  0  0
 20 22  1  0  0  0
M  CHG  2  20   1  22  -1
M  END
> <s_m_entry_id>
32982

> <s_m_entry_name>
dock_pv.383

> <s_m_Source_Path>
/home/csk/Desktop/cluster/DUD-E-result/cdk2

> <s_m_Source_File>
dock_pv.maegz

> <i_m_Source_File_Index>
383

> <chembl_id>
CHEMBL257624

> <chembl_pref_name>
None

> <i_lp_mmshare_version>
53161

> <i_f3d_flags>
0

> <r_lp_tautomer_probability>
0.0196078431372549

> <s_lp_Force_Field>
OPLS_2005

> <r_lp_Energy>
36.319274

> <b_lp_Chiralities_Consistent>
1

> <s_lp_Variant>
CHEMBL301_lig508-2

> <s_i_glide_gridfile>
glide-grid_1h00

> <i_i_glide_lignum>
701

> <i_i_glide_rotatable_bonds>
5

> <r_i_docking_score>
-7.2956689551012

> <r_i_glide_ligand_efficiency>
-0.331621316140964

> <r_i_glide_ligand_efficiency_sa>
-0.929215969753269

> <r_i_glide_ligand_efficiency_ln>
-1.78332760861776

> <r_i_glide_gscore>
-7.2956689551012

> <r_i_glide_lipo>
-2.37850716413016

> <r_i_glide_hbond>
-0.306033178117712

> <r_i_glide_metal>
0

> <r_i_glide_rewards>
-2.83337231257089

> <r_i_glide_evdw>
-37.5074615478516

> <r_i_glide_ecoul>
-3.42303466796875

> <r_i_glide_erotb>
0.626009394382639

> <r_i_glide_esite>
-0.0149374170771822

> <r_i_glide_emodel>
-59.0866941544258

> <r_i_glide_energy>
-40.9304962158203

> <r_i_glide_einternal>
3.283855676651

> <i_i_glide_confnum>
1

> <i_i_glide_posenum>
278

> <r_i_glide_eff_state_penalty>
0

> <s_user_duplicate_titles>
CHEMBL301_lig508

> <s_m_subgroup_title>
dock_pv

> <s_m_subgroupid>
dock_pv

> <b_m_subgroup_collapsed>
1

$$$$
CHEMBL301_lig170
                    3D
 Schrodinger Suite 2021-1.
 38 40  0  0  1  0            999 V2000
    0.4702   30.6750    8.3028 C   0  0  0  0  0  0
   -0.5966   31.5520    8.5764 C   0  0  0  0  0  0
   -1.5843   31.2122    9.5031 C   0  0  0  0  0  0
    0.5304   29.4515    8.9860 C   0  0  0  0  0  0
   -0.4680   29.1024    9.8913 C   0  0  0  0  0  0
   -1.4988   29.9807   10.1465 C   0  0  0  0  0  0
   -2.3319   29.4217   11.0813 N   0  0  0  0  0  0
   -1.9420   28.1836   11.4169 C   0  0  0  0  0  0
   -0.6901   27.9191   10.6910 C   0  0  0  0  0  0
   -2.5313   27.4176   12.1779 O   0  0  0  0  0  0
    0.0348   26.8618   10.7391 N   0  0  0  0  0  0
   -0.3187   25.7946   11.5897 N   0  0  0  0  0  0
    0.1208   24.4776   11.4424 C   0  0  0  0  0  0
   -0.6345   23.4597   12.0266 C   0  0  0  0  0  0
   -0.2648   22.1283   11.8617 C   0  0  0  0  0  0
    0.8730   21.8184   11.1170 C   0  0  0  0  0  0
    1.6486   22.8307   10.5506 C   0  0  0  0  0  0
    1.2728   24.1603   10.7161 C   0  0  0  0  0  0
    1.3075   20.1121   10.8297 S   0  0  0  0  0  0
    0.8581   19.2557   12.2791 N   0  0  0  0  0  0
    0.4463   19.6436    9.7417 O   0  0  0  0  0  0
    2.7699   20.0644   10.7264 O   0  0  0  0  0  0
    1.5642   31.0938    7.3535 C   0  0  0  0  0  0
    2.4580   30.1823    6.9760 N   0  0  0  0  0  0
    1.6578   32.2522    6.9644 O   0  0  0  0  0  0
   -0.6564   32.5157    8.0876 H   0  0  0  0  0  0
   -2.3916   31.9006    9.7080 H   0  0  0  0  0  0
    1.3502   28.7640    8.8337 H   0  0  0  0  0  0
   -3.1081   29.8930   11.5352 H   0  0  0  0  0  0
   -1.1934   25.9682   12.0757 H   0  0  0  0  0  0
   -1.5250   23.6965   12.5901 H   0  0  0  0  0  0
   -0.8665   21.3419   12.2970 H   0  0  0  0  0  0
    2.5107   22.5897    9.9456 H   0  0  0  0  0  0
    1.8626   24.9413   10.2571 H   0  0  0  0  0  0
   -0.0845   18.8343   12.2295 H   0  0  0  0  0  0
    1.5481   18.5641   12.5764 H   0  0  0  0  0  0
    2.3929   29.2207    7.2648 H   0  0  0  0  0  0
    3.2387   30.4929    6.4081 H   0  0  0  0  0  0
  1  2  2  0  0  0
  1  4  1  0  0  0
  1 23  1  0  0  0
  2  3  1  0  0  0
  2 26  1  0  0  0
  3  6  2  0  0  0
  3 27  1  0  0  0
  4  5  2  0  0  0
  4 28  1  0  0  0
  5  9  1  0  0  0
  5  6  1  0  0  0
  6  7  1  0  0  0
  7  8  1  0  0  0
  7 29  1  0  0  0
  8  9  1  0  0  0
  8 10  2  0  0  0
  9 11  2  0  0  0
 11 12  1  0  0  0
 12 13  1  0  0  0
 12 30  1  0  0  0
 13 14  2  0  0  0
 13 18  1  0  0  0
 14 15  1  0  0  0
 14 31  1  0  0  0
 15 16  2  0  0  0
 15 32  1  0  0  0
 16 17  1  0  0  0
 16 19  1  0  0  0
 17 18  2  0  0  0
 17 33  1  0  0  0
 18 34  1  0  0  0
 19 20  1  0  0  0
 19 21  2  0  0  0
 19 22  2  0  0  0
 20 35  1  0  0  0
 20 36  1  0  0  0
 23 24  1  0  0  0
 23 25  2  0  0  0
 24 37  1  0  0  0
 24 38  1  0  0  0
M  END
> <s_m_entry_id>
32983

> <s_m_entry_name>
dock_pv.384

> <s_m_Source_Path>
/home/csk/Desktop/cluster/DUD-E-result/cdk2

> <s_m_Source_File>
dock_pv.maegz

> <i_m_Source_File_Index>
384

> <chembl_id>
CHEMBL410883

> <chembl_pref_name>
None

> <i_lp_mmshare_version>
53161

> <i_f3d_flags>
0

> <r_lp_tautomer_probability>
1

> <s_lp_Force_Field>
OPLS_2005

> <r_lp_Energy>
45.404972

> <b_lp_Chiralities_Consistent>
1

> <s_lp_Variant>
CHEMBL301_lig170-1

> <s_i_glide_gridfile>
glide-grid_1h00

> <i_i_glide_lignum>
311

> <i_i_glide_rotatable_bonds>
4

> <r_i_docking_score>
-7.2929389837827

> <r_i_glide_ligand_efficiency>
-0.291717559351308

> <r_i_glide_ligand_efficiency_sa>
-0.852987317176169

> <r_i_glide_ligand_efficiency_ln>
-1.7286450909018

> <r_i_glide_gscore>
-7.2929389837827

> <r_i_glide_lipo>
-1.77398927394098

> <r_i_glide_hbond>
-0.952151643077639

> <r_i_glide_metal>
0

> <r_i_glide_rewards>
-1.40467252865779

> <r_i_glide_evdw>
-37.0090217590332

> <r_i_glide_ecoul>
-9.14167022705078

> <r_i_glide_erotb>
0.296832468708956

> <r_i_glide_esite>
-0.237256384805971

> <r_i_glide_emodel>
-65.6514046664395

> <r_i_glide_energy>
-46.150691986084

> <r_i_glide_einternal>
1.70365488529205

> <i_i_glide_confnum>
3

> <i_i_glide_posenum>
316

> <r_i_glide_eff_state_penalty>
0

> <s_user_duplicate_titles>
CHEMBL301_lig170,440755,136969

> <s_m_subgroup_title>
dock_pv

> <s_m_subgroupid>
dock_pv

> <b_m_subgroup_collapsed>
1

$$$$
CHEMBL301_lig686
                    3D
 Schrodinger Suite 2021-1.
 35 36  0  0  1  0            999 V2000
    0.2422   30.3977    8.3373 C   0  0  0  0  0  0
   -0.5284   31.5041    8.6520 C   0  0  0  0  0  0
    0.1428   32.5258    8.0205 N   0  0  0  0  0  0
    1.2553   32.1403    7.3758 N   0  0  0  0  0  0
    1.3618   30.8554    7.6252 C   0  0  0  0  0  0
    2.4580   30.1226    7.1970 N   0  0  0  0  0  0
    2.9576   29.0555    7.8645 C   0  0  0  0  0  0
    4.0580   28.2736    7.1855 C   0  0  0  0  0  0
    2.5622   28.6966    8.9765 O   0  0  0  0  0  0
   -1.7826   31.6652    9.5126 C   0  0  0  0  0  0
    4.1785   28.2509    5.7869 C   0  0  0  0  0  0
    5.0923   27.3962    5.1773 C   0  0  0  0  0  0
    5.9043   26.5802    5.9614 C   0  0  0  0  0  0
    5.8196   26.6167    7.3495 C   0  0  0  0  0  0
    4.8985   27.4609    7.9582 C   0  0  0  0  0  0
    7.1578   25.4171    5.1291 Br  0  0  0  0  0  0
   -3.0467   31.4467    8.6606 C   0  0  0  0  0  0
   -1.8485   33.0667   10.1604 C   0  0  0  0  0  0
   -1.7527   30.6021   10.6365 C   0  0  0  0  0  0
    0.0593   29.3814    8.6579 H   0  0  0  0  0  0
   -0.1545   33.4926    8.0204 H   0  0  0  0  0  0
    3.0710   30.5642    6.5252 H   0  0  0  0  0  0
    3.5413   28.8565    5.1585 H   0  0  0  0  0  0
    5.1726   27.3626    4.0998 H   0  0  0  0  0  0
    6.4536   25.9832    7.9529 H   0  0  0  0  0  0
    4.8239   27.4516    9.0371 H   0  0  0  0  0  0
   -3.9495   31.4774    9.2714 H   0  0  0  0  0  0
   -3.0317   30.4739    8.1762 H   0  0  0  0  0  0
   -3.1377   32.1956    7.8742 H   0  0  0  0  0  0
   -0.9476   33.2827   10.7347 H   0  0  0  0  0  0
   -1.9401   33.8473    9.4073 H   0  0  0  0  0  0
   -2.7009   33.1668   10.8330 H   0  0  0  0  0  0
   -0.8328   30.6520   11.2220 H   0  0  0  0  0  0
   -2.5833   30.7232   11.3267 H   0  0  0  0  0  0
   -1.8142   29.5897   10.2357 H   0  0  0  0  0  0
  1  5  1  0  0  0
  1  2  2  0  0  0
  1 20  1  0  0  0
  2 10  1  0  0  0
  2  3  1  0  0  0
  3  4  1  0  0  0
  3 21  1  0  0  0
  4  5  2  0  0  0
  5  6  1  0  0  0
  6  7  1  0  0  0
  6 22  1  0  0  0
  7  8  1  0  0  0
  7  9  2  0  0  0
  8 11  2  0  0  0
  8 15  1  0  0  0
 10 17  1  0  0  0
 10 18  1  0  0  0
 10 19  1  0  0  0
 11 12  1  0  0  0
 11 23  1  0  0  0
 12 13  2  0  0  0
 12 24  1  0  0  0
 13 14  1  0  0  0
 13 16  1  0  0  0
 14 15  2  0  0  0
 14 25  1  0  0  0
 15 26  1  0  0  0
 17 27  1  0  0  0
 17 28  1  0  0  0
 17 29  1  0  0  0
 18 30  1  0  0  0
 18 31  1  0  0  0
 18 32  1  0  0  0
 19 33  1  0  0  0
 19 34  1  0  0  0
 19 35  1  0  0  0
M  END
> <s_m_entry_id>
32984

> <s_m_entry_name>
dock_pv.385

> <s_m_Source_Path>
/home/csk/Desktop/cluster/DUD-E-result/cdk2

> <s_m_Source_File>
dock_pv.maegz

> <i_m_Source_File_Index>
385

> <chembl_id>
CHEMBL324360

> <chembl_pref_name>
None

> <i_lp_mmshare_version>
53161

> <i_f3d_flags>
0

> <r_lp_tautomer_probability>
0.5

> <s_lp_Force_Field>
OPLS_2005

> <r_lp_Energy>
12.717418

> <b_lp_Chiralities_Consistent>
1

> <s_lp_Variant>
CHEMBL301_lig686-1

> <s_i_glide_gridfile>
glide-grid_1h00

> <i_i_glide_lignum>
956

> <i_i_glide_rotatable_bonds>
4

> <r_i_docking_score>
-7.29001049717085

> <r_i_glide_ligand_efficiency>
-0.383684763008992

> <r_i_glide_ligand_efficiency_sa>
-1.02382505319782

> <r_i_glide_ligand_efficiency_ln>
-1.84817423610174

> <r_i_glide_gscore>
-7.29001049717085

> <r_i_glide_lipo>
-2.55232392549137

> <r_i_glide_hbond>
-0.3408115375993

> <r_i_glide_metal>
0

> <r_i_glide_rewards>
-2.78535362184022

> <r_i_glide_evdw>
-32.536262512207

> <r_i_glide_ecoul>
-3.50011992454529

> <r_i_glide_erotb>
0.540309702052189

> <r_i_glide_esite>
0

> <r_i_glide_emodel>
-48.3071281620174

> <r_i_glide_energy>
-36.0363824367523

> <r_i_glide_einternal>
4.11022520065308

> <i_i_glide_confnum>
8

> <i_i_glide_posenum>
197

> <r_i_glide_eff_state_penalty>
0

> <s_user_duplicate_titles>
CHEMBL301_lig686

> <s_m_subgroup_title>
dock_pv

> <s_m_subgroupid>
dock_pv

> <b_m_subgroup_collapsed>
1

$$$$
CHEMBL301_lig1378
                    3D
 Schrodinger Suite 2021-1.
 44 45  0  0  1  0            999 V2000
   -2.3125   27.4170   12.2393 C   0  0  0  0  0  0
   -0.9162   28.0506   12.3845 C   0  0  1  0  0  0
   -0.1092   27.1483   13.1231 O   0  0  0  0  0  0
   -0.2364   28.4150   11.0356 C   0  0  1  0  0  0
   -0.0234   27.1894   10.1172 C   0  0  0  0  0  0
   -0.9368   29.5155   10.3578 N   0  0  0  0  0  0
   -0.3420   30.3183    9.3677 C   0  0  0  0  0  0
    0.7363   29.8518    8.6767 N   0  0  0  0  0  0
    1.2893   30.6650    7.7416 C   0  0  0  0  0  0
    2.3772   30.2229    6.9757 N   0  0  0  0  0  0
    3.2579   29.1345    7.1014 C   0  0  0  0  0  0
    3.5620   28.5748    8.3404 C   0  0  0  0  0  0
    4.4992   27.5525    8.4201 C   0  0  0  0  0  0
    5.1464   27.0899    7.2757 C   0  0  0  0  0  0
    4.8301   27.6313    6.0318 C   0  0  0  0  0  0
    3.8870   28.6520    5.9500 C   0  0  0  0  0  0
    6.3792   25.8011    7.4507 S   0  0  2  0  0  0
    5.5285   24.5357    7.3737 N   0  0  0  0  0  0
    7.2584   26.1396    8.5745 O   0  0  0  0  0  0
    7.3755   25.7015    5.8569 C   0  0  0  0  0  0
    0.8598   31.9201    7.4574 N   0  0  0  0  0  0
   -0.1936   32.3849    8.1760 C   0  0  0  0  0  0
   -0.8435   31.6092    9.1376 C   0  0  0  0  0  0
   -2.3311   32.3284   10.0950 Br  0  0  0  0  0  0
   -3.0129   28.1093   11.7720 H   0  0  0  0  0  0
   -2.7283   27.1427   13.2094 H   0  0  0  0  0  0
   -2.2871   26.5117   11.6335 H   0  0  0  0  0  0
   -1.0178   28.9562   12.9863 H   0  0  0  0  0  0
    0.8075   27.4518   13.1169 H   0  0  0  0  0  0
    0.7594   28.7909   11.2751 H   0  0  0  0  0  0
    0.3158   26.3159   10.6759 H   0  0  0  0  0  0
   -0.9387   26.9114    9.5916 H   0  0  0  0  0  0
    0.7469   27.3868    9.3761 H   0  0  0  0  0  0
   -1.6939   29.9465   10.8716 H   0  0  0  0  0  0
    2.7041   30.9101    6.3119 H   0  0  0  0  0  0
    3.0997   28.9381    9.2440 H   0  0  0  0  0  0
    4.7285   27.1256    9.3760 H   0  0  0  0  0  0
    5.3200   27.2922    5.1321 H   0  0  0  0  0  0
    3.6690   29.0864    4.9855 H   0  0  0  0  0  0
    6.0881   23.7101    7.2358 H   0  0  0  0  0  0
    6.7128   25.4796    5.0215 H   0  0  0  0  0  0
    7.8831   26.6519    5.6982 H   0  0  0  0  0  0
    8.1186   24.9130    5.9601 H   0  0  0  0  0  0
   -0.5169   33.3946    7.9590 H   0  0  0  0  0  0
  1  2  1  0  0  0
  1 25  1  0  0  0
  1 26  1  0  0  0
  1 27  1  0  0  0
  2  3  1  0  0  0
  2  4  1  0  0  0
  2 28  1  0  0  0
  3 29  1  0  0  0
  4  5  1  0  0  0
  4  6  1  0  0  0
  4 30  1  0  0  0
  5 31  1  0  0  0
  5 32  1  0  0  0
  5 33  1  0  0  0
  6  7  1  0  0  0
  6 34  1  0  0  0
  7  8  2  0  0  0
  7 23  1  0  0  0
  8  9  1  0  0  0
  9 10  1  0  0  0
  9 21  2  0  0  0
 10 11  1  0  0  0
 10 35  1  0  0  0
 11 12  2  0  0  0
 11 16  1  0  0  0
 12 13  1  0  0  0
 12 36  1  0  0  0
 13 14  2  0  0  0
 13 37  1  0  0  0
 14 15  1  0  0  0
 14 17  1  0  0  0
 15 16  2  0  0  0
 15 38  1  0  0  0
 16 39  1  0  0  0
 17 18  2  0  0  0
 17 19  2  0  0  0
 17 20  1  0  0  0
 18 40  1  0  0  0
 20 41  1  0  0  0
 20 42  1  0  0  0
 20 43  1  0  0  0
 21 22  1  0  0  0
 22 23  2  0  0  0
 22 44  1  0  0  0
 23 24  1  0  0  0
M  END
> <s_m_entry_id>
32985

> <s_m_entry_name>
dock_pv.386

> <s_m_Source_Path>
/home/csk/Desktop/cluster/DUD-E-result/cdk2

> <s_m_Source_File>
dock_pv.maegz

> <i_m_Source_File_Index>
386

> <chembl_id>
CHEMBL3648071

> <chembl_pref_name>
None

> <i_lp_mmshare_version>
53161

> <i_f3d_flags>
0

> <r_lp_tautomer_probability>
0.999999624730965

> <s_lp_Force_Field>
OPLS_2005

> <r_lp_Energy>
9.678762

> <b_lp_Chiralities_Consistent>
1

> <s_lp_Variant>
CHEMBL301_lig1378-1

> <s_i_glide_gridfile>
glide-grid_1h00

> <i_i_glide_lignum>
1849

> <i_i_glide_rotatable_bonds>
7

> <r_i_docking_score>
-7.28995071392794

> <r_i_glide_ligand_efficiency>
-0.303747946413664

> <r_i_glide_ligand_efficiency_sa>
-0.876160689465568

> <r_i_glide_ligand_efficiency_ln>
-1.74481971988399

> <r_i_glide_gscore>
-7.28995071392794

> <r_i_glide_lipo>
-2.54198377948544

> <r_i_glide_hbond>
-0.539345068130022

> <r_i_glide_metal>
0

> <r_i_glide_rewards>
-1.48980415761337

> <r_i_glide_evdw>
-38.6858062744141

> <r_i_glide_ecoul>
-9.06259727478027

> <r_i_glide_erotb>
0.574862196238635

> <r_i_glide_esite>
0

> <r_i_glide_emodel>
-65.2483485873189

> <r_i_glide_energy>
-47.7484035491943

> <r_i_glide_einternal>
5.33621168136597

> <i_i_glide_confnum>
31

> <i_i_glide_posenum>
220

> <r_i_glide_eff_state_penalty>
0

> <s_user_duplicate_titles>
CHEMBL301_lig1378

> <s_m_subgroup_title>
dock_pv

> <s_m_subgroupid>
dock_pv

> <b_m_subgroup_collapsed>
1

$$$$
CHEMBL301_lig77
                    3D
 Schrodinger Suite 2021-1.
 37 40  0  0  1  0            999 V2000
    0.4254   27.8111   10.5606 C   0  0  0  0  0  0
    1.0180   26.5382   10.5771 C   0  0  0  0  0  0
    0.6481   25.5454   11.4804 C   0  0  0  0  0  0
   -0.5959   28.1046   11.4843 C   0  0  0  0  0  0
   -0.9806   27.1000   12.3825 C   0  0  0  0  0  0
   -0.3660   25.8253   12.4044 C   0  0  0  0  0  0
   -1.0173   25.1210   13.4685 C   0  0  0  0  0  0
   -1.9433   25.8738   14.0224 N   0  0  0  0  0  0
   -1.9402   27.0524   13.3765 N   0  0  0  0  0  0
   -0.6723   23.8212   13.8261 N   0  0  0  0  0  0
   -1.2506   23.0632   14.7805 C   0  0  0  0  0  0
   -2.2012   23.4219   15.4805 O   0  0  0  0  0  0
    0.8685   28.8306    9.5438 C   0  0  0  0  0  0
   -0.0033   29.8375    9.0943 C   0  0  0  0  0  0
    0.3906   30.7412    8.1081 C   0  0  0  0  0  0
    1.6630   30.6514    7.5508 C   0  0  0  0  0  0
    2.5527   29.6834    7.9973 C   0  0  0  0  0  0
    2.1591   28.7853    8.9852 C   0  0  0  0  0  0
   -0.6297   21.6654   14.9643 C   0  0  0  0  0  0
    2.0575   31.5299    6.5760 O   0  0  0  0  0  0
   -0.5989   21.1148   16.3793 C   0  0  0  0  0  0
   -1.5828   20.5566   15.3723 C   0  0  0  0  0  0
    1.7851   26.2861    9.8611 H   0  0  0  0  0  0
    1.1341   24.5825   11.4595 H   0  0  0  0  0  0
   -1.0751   29.0714   11.5122 H   0  0  0  0  0  0
   -2.5960   27.7835   13.6483 H   0  0  0  0  0  0
    0.0812   23.4058   13.3038 H   0  0  0  0  0  0
   -1.0064   29.9151    9.4863 H   0  0  0  0  0  0
   -0.2906   31.5101    7.7772 H   0  0  0  0  0  0
    3.5485   29.6236    7.5839 H   0  0  0  0  0  0
    2.8836   28.0555    9.3157 H   0  0  0  0  0  0
    0.1894   21.4152   14.2874 H   0  0  0  0  0  0
    2.9885   31.4009    6.3323 H   0  0  0  0  0  0
   -0.9770   21.7122   17.2081 H   0  0  0  0  0  0
    0.2497   20.4993   16.6783 H   0  0  0  0  0  0
   -1.4172   19.5613   14.9547 H   0  0  0  0  0  0
   -2.6477   20.7699   15.4900 H   0  0  0  0  0  0
  1  2  2  0  0  0
  1 13  1  0  0  0
  1  4  1  0  0  0
  2  3  1  0  0  0
  2 23  1  0  0  0
  3  6  2  0  0  0
  3 24  1  0  0  0
  4  5  2  0  0  0
  4 25  1  0  0  0
  5  6  1  0  0  0
  5  9  1  0  0  0
  6  7  1  0  0  0
  7  8  2  0  0  0
  7 10  1  0  0  0
  8  9  1  0  0  0
  9 26  1  0  0  0
 10 11  1  0  0  0
 10 27  1  0  0  0
 11 12  2  0  0  0
 11 19  1  0  0  0
 13 14  2  0  0  0
 13 18  1  0  0  0
 14 15  1  0  0  0
 14 28  1  0  0  0
 15 16  2  0  0  0
 15 29  1  0  0  0
 16 17  1  0  0  0
 16 20  1  0  0  0
 17 18  2  0  0  0
 17 30  1  0  0  0
 18 31  1  0  0  0
 19 21  1  0  0  0
 19 22  1  0  0  0
 19 32  1  0  0  0
 20 33  1  0  0  0
 21 22  1  0  0  0
 21 34  1  0  0  0
 21 35  1  0  0  0
 22 36  1  0  0  0
 22 37  1  0  0  0
M  END
> <s_m_entry_id>
32986

> <s_m_entry_name>
dock_pv.387

> <s_m_Source_Path>
/home/csk/Desktop/cluster/DUD-E-result/cdk2

> <s_m_Source_File>
dock_pv.maegz

> <i_m_Source_File_Index>
387

> <chembl_id>
CHEMBL260163

> <chembl_pref_name>
None

> <i_lp_mmshare_version>
53161

> <i_f3d_flags>
0

> <r_lp_tautomer_probability>
0.980392156860212

> <s_lp_Force_Field>
OPLS_2005

> <r_lp_Energy>
17.530104

> <b_lp_Chiralities_Consistent>
1

> <s_lp_Variant>
CHEMBL301_lig77-1

> <s_i_glide_gridfile>
glide-grid_1h00

> <i_i_glide_lignum>
169

> <i_i_glide_rotatable_bonds>
5

> <r_i_docking_score>
-7.28741706810206

> <r_i_glide_ligand_efficiency>
-0.331246230368275

> <r_i_glide_ligand_efficiency_sa>
-0.92816496466691

> <r_i_glide_ligand_efficiency_ln>
-1.78131054644027

> <r_i_glide_gscore>
-7.28741706810206

> <r_i_glide_lipo>
-2.25670620040657

> <r_i_glide_hbond>
-0.700588084217744

> <r_i_glide_metal>
0

> <r_i_glide_rewards>
-2.08418234761848

> <r_i_glide_evdw>
-32.2355880737305

> <r_i_glide_ecoul>
-9.51679134368896

> <r_i_glide_erotb>
0.849451577803832

> <r_i_glide_esite>
-0.0560939084232264

> <r_i_glide_emodel>
-62.1152591765574

> <r_i_glide_energy>
-41.7523794174194

> <r_i_glide_einternal>
0.10188364982605

> <i_i_glide_confnum>
56

> <i_i_glide_posenum>
343

> <r_i_glide_eff_state_penalty>
0

> <s_user_duplicate_titles>
CHEMBL301_lig77,429566

> <s_m_subgroup_title>
dock_pv

> <s_m_subgroupid>
dock_pv

> <b_m_subgroup_collapsed>
1

$$$$
CHEMBL301_lig350
                    3D
 Schrodinger Suite 2021-1.
 58 61  0  0  1  0            999 V2000
    1.9424   29.9525    8.1525 N   0  0  0  0  0  0
    0.7499   29.8643    8.8841 C   0  0  0  0  0  0
    2.9145   28.9919    8.2499 C   0  0  0  0  0  0
    7.4119   24.5304    5.4374 S   0  0  0  0  0  0
    0.5105   28.8436    9.7094 N   0  0  0  0  0  0
    1.9587   31.0461    7.3424 N   0  0  0  0  0  0
    2.6890   27.9503    9.1543 C   0  0  0  0  0  0
    0.0121   31.0157    8.5196 C   0  0  0  0  0  0
    1.4860   27.9112    9.8559 C   0  0  0  0  0  0
    0.8503   31.6875    7.6304 C   0  0  0  0  0  0
    4.0071   29.0392    7.3719 N   0  0  0  0  0  0
   -1.2978   31.4303    8.9834 C   0  0  0  0  0  0
    6.3759   25.8636    6.0288 C   0  0  0  0  0  0
    8.9590   25.3014    5.0393 N   0  0  0  0  0  0
   -2.3424   31.7580    9.3528 N   0  0  0  0  0  0
    6.8101   24.0323    4.1963 O   0  0  0  0  0  0
    7.6344   23.6265    6.5710 O   0  0  0  0  0  0
    1.2695   26.8294   10.7144 N   0  0  0  0  0  0
    5.6312   26.6232    5.1240 C   0  0  0  0  0  0
    6.3489   26.1667    7.3906 C   0  0  0  0  0  0
    4.8231   27.9840    6.9484 C   0  0  0  0  0  0
   -0.0263   26.5349   11.3258 C   0  0  2  0  0  0
    5.5722   27.2265    7.8479 C   0  0  0  0  0  0
    4.8567   27.6844    5.5857 C   0  0  0  0  0  0
   -2.8538   25.4029   14.4304 N   0  0  0  0  0  0
   -1.6258   25.7316   13.7370 C   0  0  1  0  0  0
   -0.3427   27.5328   12.4686 C   0  0  0  0  0  0
    0.0343   25.0960   11.8907 C   0  0  0  0  0  0
   -1.2679   24.7177   12.6275 C   0  0  0  0  0  0
   -1.6562   27.1630   13.1705 C   0  0  0  0  0  0
    9.0139   26.1062    3.7990 C   0  0  0  0  0  0
    9.7296   25.8526    6.1761 C   0  0  0  0  0  0
    3.4020   27.1522    9.2808 H   0  0  0  0  0  0
    0.6355   32.6453    7.1806 H   0  0  0  0  0  0
    4.0069   29.8615    6.7772 H   0  0  0  0  0  0
    2.0200   26.1692   10.8457 H   0  0  0  0  0  0
    5.6583   26.3980    4.0666 H   0  0  0  0  0  0
    6.9323   25.5915    8.0949 H   0  0  0  0  0  0
   -0.7925   26.5831   10.5480 H   0  0  0  0  0  0
    5.5659   27.4699    8.8998 H   0  0  0  0  0  0
    4.2814   28.2710    4.8839 H   0  0  0  0  0  0
   -3.1358   26.2101   14.9742 H   0  0  0  0  0  0
   -3.5745   25.2839   13.7294 H   0  0  0  0  0  0
   -0.8138   25.7002   14.4637 H   0  0  0  0  0  0
    0.4580   27.5464   13.2033 H   0  0  0  0  0  0
   -0.4230   28.5527   12.0949 H   0  0  0  0  0  0
    0.2106   24.3815   11.0844 H   0  0  0  0  0  0
    0.8778   24.9975   12.5757 H   0  0  0  0  0  0
   -2.0754   24.6842   11.8950 H   0  0  0  0  0  0
   -1.1830   23.7136   13.0463 H   0  0  0  0  0  0
   -2.4766   27.2680   12.4576 H   0  0  0  0  0  0
   -1.8523   27.8779   13.9703 H   0  0  0  0  0  0
   10.0492   26.2922    3.5120 H   0  0  0  0  0  0
    8.4913   27.0509    3.9452 H   0  0  0  0  0  0
    8.5181   25.5680    2.9891 H   0  0  0  0  0  0
   10.7679   26.0164    5.8790 H   0  0  0  0  0  0
    9.2867   26.7962    6.5000 H   0  0  0  0  0  0
    9.7108   25.1534    7.0107 H   0  0  0  0  0  0
  1  2  1  0  0  0
  1  3  1  0  0  0
  1  6  1  0  0  0
  2  5  1  0  0  0
  2  8  2  0  0  0
  3  7  2  0  0  0
  3 11  1  0  0  0
  4 13  1  0  0  0
  4 14  1  0  0  0
  4 16  2  0  0  0
  4 17  2  0  0  0
  5  9  2  0  0  0
  6 10  2  0  0  0
  7  9  1  0  0  0
  7 33  1  0  0  0
  8 12  1  0  0  0
  8 10  1  0  0  0
  9 18  1  0  0  0
 10 34  1  0  0  0
 11 21  1  0  0  0
 11 35  1  0  0  0
 12 15  3  0  0  0
 13 19  2  0  0  0
 13 20  1  0  0  0
 14 31  1  0  0  0
 14 32  1  0  0  0
 18 22  1  0  0  0
 18 36  1  0  0  0
 19 24  1  0  0  0
 19 37  1  0  0  0
 20 23  2  0  0  0
 20 38  1  0  0  0
 21 23  1  0  0  0
 21 24  2  0  0  0
 22 27  1  0  0  0
 22 28  1  0  0  0
 22 39  1  0  0  0
 23 40  1  0  0  0
 24 41  1  0  0  0
 25 26  1  0  0  0
 25 42  1  0  0  0
 25 43  1  0  0  0
 26 29  1  0  0  0
 26 30  1  0  0  0
 26 44  1  0  0  0
 27 30  1  0  0  0
 27 45  1  0  0  0
 27 46  1  0  0  0
 28 29  1  0  0  0
 28 47  1  0  0  0
 28 48  1  0  0  0
 29 49  1  0  0  0
 29 50  1  0  0  0
 30 51  1  0  0  0
 30 52  1  0  0  0
 31 53  1  0  0  0
 31 54  1  0  0  0
 31 55  1  0  0  0
 32 56  1  0  0  0
 32 57  1  0  0  0
 32 58  1  0  0  0
M  END
> <s_m_entry_id>
32987

> <s_m_entry_name>
dock_pv.388

> <s_m_Source_Path>
/home/csk/Desktop/cluster/DUD-E-result/cdk2

> <s_m_Source_File>
dock_pv.maegz

> <i_m_Source_File_Index>
388

> <chembl_id>
CHEMBL360573

> <chembl_pref_name>
None

> <i_lp_mmshare_version>
53161

> <i_f3d_flags>
0

> <r_lp_tautomer_probability>
1

> <s_lp_Force_Field>
OPLS_2005

> <r_lp_Energy>
24.517202

> <b_lp_Chiralities_Consistent>
1

> <s_lp_Variant>
CHEMBL301_lig350-1

> <s_i_glide_gridfile>
glide-grid_1h00

> <i_i_glide_lignum>
530

> <i_i_glide_rotatable_bonds>
6

> <r_i_docking_score>
-7.28586844632338

> <r_i_glide_ligand_efficiency>
-0.227683388947606

> <r_i_glide_ligand_efficiency_sa>
-0.722849701427159

> <r_i_glide_ligand_efficiency_ln>
-1.6315045504047

> <r_i_glide_gscore>
-7.28586844632338

> <r_i_glide_lipo>
-2.06807454782128

> <r_i_glide_hbond>
-0.32

> <r_i_glide_metal>
0

> <r_i_glide_rewards>
-2.06805973799208

> <r_i_glide_evdw>
-50.4797096252441

> <r_i_glide_ecoul>
-5.13514709472656

> <r_i_glide_erotb>
0.485975658289737

> <r_i_glide_esite>
-0.0214522733285606

> <r_i_glide_emodel>
-75.743598263161

> <r_i_glide_energy>
-55.6148567199707

> <r_i_glide_einternal>
9.67138671875

> <i_i_glide_confnum>
6

> <i_i_glide_posenum>
129

> <r_i_glide_eff_state_penalty>
0

> <s_user_duplicate_titles>
CHEMBL301_lig350,300832

> <s_m_subgroup_title>
dock_pv

> <s_m_subgroupid>
dock_pv

> <b_m_subgroup_collapsed>
1

$$$$
CHEMBL301_lig919
                    3D
 Schrodinger Suite 2021-1.
 38 40  0  0  1  0            999 V2000
   -1.1635   28.0058   10.8068 C   0  0  0  0  0  0
   -3.1933   30.3139   10.1764 Cl  0  0  0  0  0  0
   -1.5637   28.2180   12.1291 C   0  0  0  0  0  0
   -1.9411   27.1430   12.9314 C   0  0  0  0  0  0
   -1.9207   25.8513   12.4154 C   0  0  0  0  0  0
   -1.5225   25.6237   11.1024 C   0  0  0  0  0  0
   -1.1413   26.6979   10.3057 C   0  0  0  0  0  0
   -1.5473   30.2461    9.6491 C   0  0  0  0  0  0
   -1.1048   31.2961    8.8426 C   0  0  0  0  0  0
    0.1542   31.1627    8.2508 C   0  0  0  0  0  0
    0.9897   30.0423    8.4844 C   0  0  0  0  0  0
    0.5433   29.0529    9.3753 C   0  0  0  0  0  0
   -0.7296   29.1376    9.9428 C   0  0  0  0  0  0
    0.8580   31.9785    7.3860 N   0  0  0  0  0  0
    1.9951   31.4093    6.9759 N   0  0  0  0  0  0
    2.1277   30.2834    7.6312 C   0  0  0  0  0  0
    3.2576   29.5282    7.3921 N   0  0  0  0  0  0
    3.7990   28.5432    8.1308 C   0  0  0  0  0  0
    4.9883   27.7963    7.5085 C   0  0  0  0  0  0
    5.1404   27.9128    5.9687 C   0  0  0  0  0  0
    3.9849   27.3176    5.1548 C   0  0  0  0  0  0
    3.4338   28.2308    9.2593 O   0  0  0  0  0  0
   -1.5914   29.2179   12.5385 H   0  0  0  0  0  0
   -2.2621   27.3210   13.9473 H   0  0  0  0  0  0
   -2.2257   25.0204   13.0339 H   0  0  0  0  0  0
   -1.5147   24.6212   10.7029 H   0  0  0  0  0  0
   -0.8311   26.5144    9.2887 H   0  0  0  0  0  0
   -1.7435   32.1428    8.6365 H   0  0  0  0  0  0
    1.1408   28.1798    9.5808 H   0  0  0  0  0  0
    0.5710   32.8769    7.0217 H   0  0  0  0  0  0
    3.8083   29.8602    6.6102 H   0  0  0  0  0  0
    4.9235   26.7444    7.7912 H   0  0  0  0  0  0
    5.8862   28.1787    7.9909 H   0  0  0  0  0  0
    6.0578   27.4162    5.6666 H   0  0  0  0  0  0
    5.2584   28.9598    5.6828 H   0  0  0  0  0  0
    4.1715   27.4043    4.0841 H   0  0  0  0  0  0
    3.0590   27.8490    5.3714 H   0  0  0  0  0  0
    3.8324   26.2615    5.3793 H   0  0  0  0  0  0
  1 13  1  0  0  0
  1  3  2  0  0  0
  1  7  1  0  0  0
  2  8  1  0  0  0
  3  4  1  0  0  0
  3 23  1  0  0  0
  4  5  2  0  0  0
  4 24  1  0  0  0
  5  6  1  0  0  0
  5 25  1  0  0  0
  6  7  2  0  0  0
  6 26  1  0  0  0
  7 27  1  0  0  0
  8  9  2  0  0  0
  8 13  1  0  0  0
  9 10  1  0  0  0
  9 28  1  0  0  0
 10 14  1  0  0  0
 10 11  2  0  0  0
 11 16  1  0  0  0
 11 12  1  0  0  0
 12 13  2  0  0  0
 12 29  1  0  0  0
 14 15  1  0  0  0
 14 30  1  0  0  0
 15 16  2  0  0  0
 16 17  1  0  0  0
 17 18  1  0  0  0
 17 31  1  0  0  0
 18 22  2  0  0  0
 18 19  1  0  0  0
 19 20  1  0  0  0
 19 32  1  0  0  0
 19 33  1  0  0  0
 20 21  1  0  0  0
 20 34  1  0  0  0
 20 35  1  0  0  0
 21 36  1  0  0  0
 21 37  1  0  0  0
 21 38  1  0  0  0
M  END
> <s_m_entry_id>
32988

> <s_m_entry_name>
dock_pv.389

> <s_m_Source_Path>
/home/csk/Desktop/cluster/DUD-E-result/cdk2

> <s_m_Source_File>
dock_pv.maegz

> <i_m_Source_File_Index>
389

> <chembl_id>
CHEMBL1095040

> <chembl_pref_name>
None

> <i_lp_mmshare_version>
53161

> <i_f3d_flags>
0

> <r_lp_tautomer_probability>
0.980392156862745

> <s_lp_Force_Field>
OPLS_2005

> <r_lp_Energy>
16.265054

> <b_lp_Chiralities_Consistent>
1

> <s_lp_Variant>
CHEMBL301_lig919-1

> <s_i_glide_gridfile>
glide-grid_1h00

> <i_i_glide_lignum>
1293

> <i_i_glide_rotatable_bonds>
5

> <r_i_docking_score>
-7.28523257049458

> <r_i_glide_ligand_efficiency>
-0.331146935022481

> <r_i_glide_ligand_efficiency_sa>
-0.927886735202929

> <r_i_glide_ligand_efficiency_ln>
-1.78077657554352

> <r_i_glide_gscore>
-7.28523257049458

> <r_i_glide_lipo>
-2.66614079425965

> <r_i_glide_hbond>
-0.345487223828361

> <r_i_glide_metal>
0

> <r_i_glide_rewards>
-2.68009826324615

> <r_i_glide_evdw>
-35.6907691955566

> <r_i_glide_ecoul>
-2.24882507324219

> <r_i_glide_erotb>
0.528355931603745

> <r_i_glide_esite>
0

> <r_i_glide_emodel>
-51.7260276500514

> <r_i_glide_energy>
-37.9395942687988

> <r_i_glide_einternal>
5.46127128601074

> <i_i_glide_confnum>
10

> <i_i_glide_posenum>
208

> <r_i_glide_eff_state_penalty>
0

> <s_user_duplicate_titles>
CHEMBL301_lig919

> <s_m_subgroup_title>
dock_pv

> <s_m_subgroupid>
dock_pv

> <b_m_subgroup_collapsed>
1

$$$$
CHEMBL301_lig1380
                    3D
 Schrodinger Suite 2021-1.
 43 44  0  0  1  0            999 V2000
   -1.7327   26.8490   12.6352 C   0  0  0  0  0  0
   -1.2931   26.6099   11.1789 C   0  0  2  0  0  0
   -0.6329   25.3603   11.1112 O   0  0  0  0  0  0
   -0.4033   27.7292   10.5668 C   0  0  2  0  0  0
    0.9245   27.9170   11.3255 C   0  0  0  0  0  0
   -1.2846   29.3154   10.3726 S   0  0  0  0  0  0
   -0.3963   30.3721    9.2509 C   0  0  0  0  0  0
    0.6663   29.8520    8.5758 N   0  0  0  0  0  0
    1.3139   30.6739    7.7037 C   0  0  0  0  0  0
    2.4191   30.2168    6.9741 N   0  0  0  0  0  0
    3.2581   29.1007    7.1029 C   0  0  0  0  0  0
    3.4703   28.4811    8.3305 C   0  0  0  0  0  0
    4.3393   27.4034    8.4192 C   0  0  0  0  0  0
    5.0385   26.9628    7.2922 C   0  0  0  0  0  0
    4.8382   27.5902    6.0630 C   0  0  0  0  0  0
    3.9443   28.6520    5.9717 C   0  0  0  0  0  0
    6.1641   25.5725    7.4238 S   0  0  1  0  0  0
    7.0863   25.9703    8.5752 N   0  0  0  0  0  0
    5.3924   24.3275    7.3760 O   0  0  0  0  0  0
    7.3488   25.6548    5.9656 C   0  0  0  0  0  0
    0.9785   31.9651    7.4561 N   0  0  0  0  0  0
   -0.0540   32.4742    8.1760 C   0  0  0  0  0  0
   -0.7903   31.7088    9.0800 C   0  0  0  0  0  0
   -2.2465   32.5036   10.0240 Br  0  0  0  0  0  0
   -2.2823   27.7862   12.7318 H   0  0  0  0  0  0
   -0.8853   26.8939   13.3192 H   0  0  0  0  0  0
   -2.3941   26.0534   12.9799 H   0  0  0  0  0  0
   -2.1937   26.5061   10.5759 H   0  0  0  0  0  0
    0.1853   25.4291   11.6089 H   0  0  0  0  0  0
   -0.1550   27.4170    9.5510 H   0  0  0  0  0  0
    1.5022   26.9944   11.3768 H   0  0  0  0  0  0
    1.5535   28.6517   10.8340 H   0  0  0  0  0  0
    0.7617   28.2761   12.3413 H   0  0  0  0  0  0
    2.8010   30.9134    6.3497 H   0  0  0  0  0  0
    2.9777   28.8360    9.2189 H   0  0  0  0  0  0
    4.4579   26.9280    9.3760 H   0  0  0  0  0  0
    5.3658   27.2695    5.1775 H   0  0  0  0  0  0
    3.8064   29.1434    5.0205 H   0  0  0  0  0  0
    6.5872   25.9724    9.4667 H   0  0  0  0  0  0
    7.7900   26.6501    5.9219 H   0  0  0  0  0  0
    8.1301   24.9115    6.1152 H   0  0  0  0  0  0
    6.8044   25.4370    5.0484 H   0  0  0  0  0  0
   -0.3042   33.5094    7.9937 H   0  0  0  0  0  0
  1  2  1  0  0  0
  1 25  1  0  0  0
  1 26  1  0  0  0
  1 27  1  0  0  0
  2  3  1  0  0  0
  2  4  1  0  0  0
  2 28  1  0  0  0
  3 29  1  0  0  0
  4  5  1  0  0  0
  4  6  1  0  0  0
  4 30  1  0  0  0
  5 31  1  0  0  0
  5 32  1  0  0  0
  5 33  1  0  0  0
  6  7  1  0  0  0
  7  8  2  0  0  0
  7 23  1  0  0  0
  8  9  1  0  0  0
  9 10  1  0  0  0
  9 21  2  0  0  0
 10 11  1  0  0  0
 10 34  1  0  0  0
 11 12  2  0  0  0
 11 16  1  0  0  0
 12 13  1  0  0  0
 12 35  1  0  0  0
 13 14  2  0  0  0
 13 36  1  0  0  0
 14 15  1  0  0  0
 14 17  1  0  0  0
 15 16  2  0  0  0
 15 37  1  0  0  0
 16 38  1  0  0  0
 17 18  2  0  0  0
 17 19  2  0  0  0
 17 20  1  0  0  0
 18 39  1  0  0  0
 20 40  1  0  0  0
 20 41  1  0  0  0
 20 42  1  0  0  0
 21 22  1  0  0  0
 22 23  2  0  0  0
 22 43  1  0  0  0
 23 24  1  0  0  0
M  END
> <s_m_entry_id>
32989

> <s_m_entry_name>
dock_pv.390

> <s_m_Source_Path>
/home/csk/Desktop/cluster/DUD-E-result/cdk2

> <s_m_Source_File>
dock_pv.maegz

> <i_m_Source_File_Index>
390

> <chembl_id>
CHEMBL3648102

> <chembl_pref_name>
None

> <i_lp_mmshare_version>
53161

> <i_f3d_flags>
0

> <r_lp_tautomer_probability>
0.999999987636

> <s_lp_Force_Field>
OPLS_2005

> <r_lp_Energy>
1.770928

> <b_lp_Chiralities_Consistent>
1

> <s_lp_Variant>
CHEMBL301_lig1380-5

> <s_i_glide_gridfile>
glide-grid_1h00

> <i_i_glide_lignum>
1856

> <i_i_glide_rotatable_bonds>
7

> <r_i_docking_score>
-7.2846086592717

> <r_i_glide_ligand_efficiency>
-0.303525360802987

> <r_i_glide_ligand_efficiency_sa>
-0.875518641463538

> <r_i_glide_ligand_efficiency_ln>
-1.74354112107384

> <r_i_glide_gscore>
-7.2846086592717

> <r_i_glide_lipo>
-2.5426391987316

> <r_i_glide_hbond>
-0.35149689592029

> <r_i_glide_metal>
0

> <r_i_glide_rewards>
-1.53424530781865

> <r_i_glide_evdw>
-38.7966613769531

> <r_i_glide_ecoul>
-9.67210292816162

> <r_i_glide_erotb>
0.534421251270742

> <r_i_glide_esite>
0

> <r_i_glide_emodel>
-67.72450782884

> <r_i_glide_energy>
-48.4687643051147

> <r_i_glide_einternal>
4.33226585388184

> <i_i_glide_confnum>
63

> <i_i_glide_posenum>
186

> <r_i_glide_eff_state_penalty>
0

> <s_user_duplicate_titles>
CHEMBL301_lig1380

> <s_m_subgroup_title>
dock_pv

> <s_m_subgroupid>
dock_pv

> <b_m_subgroup_collapsed>
1

$$$$
CHEMBL301_lig663
                    3D
 Schrodinger Suite 2021-1.
 29 30  0  0  1  0            999 V2000
    0.5158   30.5729    8.1760 C   0  0  0  0  0  0
   -0.1710   31.7744    8.2871 C   0  0  0  0  0  0
    0.6039   32.6519    7.5712 N   0  0  0  0  0  0
    1.6579   32.0806    6.9760 N   0  0  0  0  0  0
    1.6464   30.8324    7.3814 C   0  0  0  0  0  0
    2.6721   29.9909    7.0069 N   0  0  0  0  0  0
    3.2351   29.0393    7.7747 C   0  0  0  0  0  0
    4.4868   28.3860    7.1626 C   0  0  0  0  0  0
    2.8187   28.7026    8.8847 O   0  0  0  0  0  0
   -1.4541   32.1934    8.9769 C   0  0  0  0  0  0
    5.1227   27.2279    7.9664 C   0  0  0  0  0  0
    4.2781   25.9439    8.0305 C   0  0  0  0  0  0
   -2.5479   31.1801    9.2250 C   0  0  0  0  0  0
   -1.7633   31.7490   10.3856 C   0  0  0  0  0  0
    0.2483   29.6300    8.6286 H   0  0  0  0  0  0
    0.3865   33.6333    7.4347 H   0  0  0  0  0  0
    3.2367   30.3272    6.2372 H   0  0  0  0  0  0
    5.2338   29.1748    7.0619 H   0  0  0  0  0  0
    4.2619   28.0494    6.1494 H   0  0  0  0  0  0
   -1.7814   33.2008    8.7194 H   0  0  0  0  0  0
    5.3592   27.5622    8.9765 H   0  0  0  0  0  0
    6.0830   26.9814    7.5128 H   0  0  0  0  0  0
    4.8090   25.1618    8.5731 H   0  0  0  0  0  0
    4.0583   25.5637    7.0324 H   0  0  0  0  0  0
    3.3317   26.1068    8.5470 H   0  0  0  0  0  0
   -3.5841   31.4858    9.0839 H   0  0  0  0  0  0
   -2.3882   30.1331    8.9757 H   0  0  0  0  0  0
   -1.0508   31.1064   10.9060 H   0  0  0  0  0  0
   -2.2714   32.4432   11.0564 H   0  0  0  0  0  0
  1  5  1  0  0  0
  1  2  2  0  0  0
  1 15  1  0  0  0
  2  3  1  0  0  0
  2 10  1  0  0  0
  3  4  1  0  0  0
  3 16  1  0  0  0
  4  5  2  0  0  0
  5  6  1  0  0  0
  6  7  1  0  0  0
  6 17  1  0  0  0
  7  8  1  0  0  0
  7  9  2  0  0  0
  8 11  1  0  0  0
  8 18  1  0  0  0
  8 19  1  0  0  0
 10 13  1  0  0  0
 10 14  1  0  0  0
 10 20  1  0  0  0
 11 12  1  0  0  0
 11 21  1  0  0  0
 11 22  1  0  0  0
 12 23  1  0  0  0
 12 24  1  0  0  0
 12 25  1  0  0  0
 13 14  1  0  0  0
 13 26  1  0  0  0
 13 27  1  0  0  0
 14 28  1  0  0  0
 14 29  1  0  0  0
M  END
> <s_m_entry_id>
32990

> <s_m_entry_name>
dock_pv.391

> <s_m_Source_Path>
/home/csk/Desktop/cluster/DUD-E-result/cdk2

> <s_m_Source_File>
dock_pv.maegz

> <i_m_Source_File_Index>
391

> <chembl_id>
CHEMBL112442

> <chembl_pref_name>
None

> <i_lp_mmshare_version>
53161

> <i_f3d_flags>
0

> <r_lp_tautomer_probability>
0.5

> <s_lp_Force_Field>
OPLS_2005

> <r_lp_Energy>
8.721652

> <b_lp_Chiralities_Consistent>
1

> <s_lp_Variant>
CHEMBL301_lig663-1

> <s_i_glide_gridfile>
glide-grid_1h00

> <i_i_glide_lignum>
910

> <i_i_glide_rotatable_bonds>
5

> <r_i_docking_score>
-7.27887420539902

> <r_i_glide_ligand_efficiency>
-0.51991958609993

> <r_i_glide_ligand_efficiency_sa>
-1.25308016732962

> <r_i_glide_ligand_efficiency_ln>
-2.0002087205833

> <r_i_glide_gscore>
-7.27887420539902

> <r_i_glide_lipo>
-2.14088595692109

> <r_i_glide_hbond>
-0.795243225134013

> <r_i_glide_metal>
0

> <r_i_glide_rewards>
-3.53998690289992

> <r_i_glide_evdw>
-23.1611766815186

> <r_i_glide_ecoul>
-5.70166683197021

> <r_i_glide_erotb>
1.21055073842746

> <r_i_glide_esite>
0

> <r_i_glide_emodel>
-39.8800570858516

> <r_i_glide_energy>
-28.8628435134888

> <r_i_glide_einternal>
3.61722493171692

> <i_i_glide_confnum>
4

> <i_i_glide_posenum>
216

> <r_i_glide_eff_state_penalty>
0

> <s_user_duplicate_titles>
CHEMBL301_lig663,187198

> <s_m_subgroup_title>
dock_pv

> <s_m_subgroupid>
dock_pv

> <b_m_subgroup_collapsed>
1

$$$$
CHEMBL301_lig577
                    3D
 Schrodinger Suite 2021-1.
 49 51  0  0  1  0            999 V2000
    0.6034   28.2567   11.3266 C   0  0  0  0  0  0
    0.1491   29.4958   11.3515 N   0  0  0  0  0  0
   -1.1377   29.3595   11.1418 C   0  0  0  0  0  0
   -1.5649   28.0719   11.1029 O   0  0  0  0  0  0
   -0.4335   27.3419   11.2526 C   0  0  0  0  0  0
   -0.5572   25.8255   11.3053 C   0  0  0  0  0  0
    0.8414   25.1686   11.2957 C   0  0  0  0  0  0
   -1.3654   25.3205   10.0959 C   0  0  0  0  0  0
   -1.2950   25.4328   12.6040 C   0  0  0  0  0  0
   -2.1690   30.4514   10.9758 C   0  0  0  0  0  0
   -2.3419   31.2687    9.3467 S   0  0  0  0  0  0
   -0.7310   31.2841    8.6263 C   0  0  0  0  0  0
    0.0091   32.3780    8.1757 C   0  0  0  0  0  0
    1.0953   32.1152    7.4614 N   0  0  0  0  0  0
    1.3493   30.8317    7.4167 C   0  0  0  0  0  0
    0.1370   29.8522    8.1761 S   0  0  0  0  0  0
    2.4580   30.2992    6.7993 N   0  0  0  0  0  0
    3.1546   29.0313    7.0173 C   0  0  1  0  0  0
    3.8958   28.6302    5.7310 C   0  0  0  0  0  0
    4.6702   27.3040    5.8913 C   0  0  0  0  0  0
    5.5635   27.2619    7.1514 C   0  0  1  0  0  0
    4.8712   27.8124    8.4196 C   0  0  0  0  0  0
    4.1421   29.1530    8.1757 C   0  0  0  0  0  0
    6.0349   25.9501    7.3760 O   0  0  0  0  0  0
    1.6566   28.0243   11.3762 H   0  0  0  0  0  0
    0.7763   24.0808   11.3362 H   0  0  0  0  0  0
    1.4432   25.4942   12.1459 H   0  0  0  0  0  0
    1.3977   25.4295   10.3944 H   0  0  0  0  0  0
   -2.3424   25.7991   10.0361 H   0  0  0  0  0  0
   -0.8539   25.5107    9.1521 H   0  0  0  0  0  0
   -1.5423   24.2520   10.1760 H   0  0  0  0  0  0
   -2.2961   25.8672   12.6409 H   0  0  0  0  0  0
   -1.4053   24.3515   12.6965 H   0  0  0  0  0  0
   -0.7623   25.7871   13.4879 H   0  0  0  0  0  0
   -3.1419   29.9975   11.1508 H   0  0  0  0  0  0
   -2.0636   31.2154   11.7398 H   0  0  0  0  0  0
   -0.3006   33.4084    8.2757 H   0  0  0  0  0  0
    3.1136   30.9515    6.3785 H   0  0  0  0  0  0
    2.4580   28.2537    7.2964 H   0  0  0  0  0  0
    3.1685   28.5108    4.9354 H   0  0  0  0  0  0
    4.5785   29.4208    5.4116 H   0  0  0  0  0  0
    3.9683   26.4700    5.9134 H   0  0  0  0  0  0
    5.2866   27.1456    5.0052 H   0  0  0  0  0  0
    6.4578   27.8522    6.9760 H   0  0  0  0  0  0
    4.1605   27.0743    8.7970 H   0  0  0  0  0  0
    5.6124   27.9328    9.2086 H   0  0  0  0  0  0
    4.8645   29.9535    8.0053 H   0  0  0  0  0  0
    3.5594   29.4199    9.0485 H   0  0  0  0  0  0
    6.2481   25.5581    6.5257 H   0  0  0  0  0  0
  1  5  2  0  0  0
  1  2  1  0  0  0
  1 25  1  0  0  0
  2  3  2  0  0  0
  3  4  1  0  0  0
  3 10  1  0  0  0
  4  5  1  0  0  0
  5  6  1  0  0  0
  6  7  1  0  0  0
  6  8  1  0  0  0
  6  9  1  0  0  0
  7 26  1  0  0  0
  7 27  1  0  0  0
  7 28  1  0  0  0
  8 29  1  0  0  0
  8 30  1  0  0  0
  8 31  1  0  0  0
  9 32  1  0  0  0
  9 33  1  0  0  0
  9 34  1  0  0  0
 10 11  1  0  0  0
 10 35  1  0  0  0
 10 36  1  0  0  0
 11 12  1  0  0  0
 12 13  2  0  0  0
 12 16  1  0  0  0
 13 14  1  0  0  0
 13 37  1  0  0  0
 14 15  2  0  0  0
 15 16  1  0  0  0
 15 17  1  0  0  0
 17 18  1  0  0  0
 17 38  1  0  0  0
 18 19  1  0  0  0
 18 23  1  0  0  0
 18 39  1  0  0  0
 19 20  1  0  0  0
 19 40  1  0  0  0
 19 41  1  0  0  0
 20 21  1  0  0  0
 20 42  1  0  0  0
 20 43  1  0  0  0
 21 22  1  0  0  0
 21 24  1  0  0  0
 21 44  1  0  0  0
 22 23  1  0  0  0
 22 45  1  0  0  0
 22 46  1  0  0  0
 23 47  1  0  0  0
 23 48  1  0  0  0
 24 49  1  0  0  0
M  END
> <s_m_entry_id>
32992

> <s_m_entry_name>
dock_pv.393

> <s_m_Source_Path>
/home/csk/Desktop/cluster/DUD-E-result/cdk2

> <s_m_Source_File>
dock_pv.maegz

> <i_m_Source_File_Index>
393

> <chembl_id>
CHEMBL495557

> <chembl_pref_name>
None

> <i_lp_mmshare_version>
53161

> <i_f3d_flags>
0

> <r_lp_tautomer_probability>
1

> <s_lp_Force_Field>
OPLS_2005

> <r_lp_Energy>
5.571696

> <b_lp_Chiralities_Consistent>
1

> <s_lp_Variant>
CHEMBL301_lig577-1

> <s_i_glide_gridfile>
glide-grid_1h00

> <i_i_glide_lignum>
808

> <i_i_glide_rotatable_bonds>
7

> <r_i_docking_score>
-7.27572958624915

> <r_i_glide_ligand_efficiency>
-0.303155399427048

> <r_i_glide_ligand_efficiency_sa>
-0.874451488193709

> <r_i_glide_ligand_efficiency_ln>
-1.74141595146543

> <r_i_glide_gscore>
-7.27572958624915

> <r_i_glide_lipo>
-3.15513892840256

> <r_i_glide_hbond>
-0.32

> <r_i_glide_metal>
0

> <r_i_glide_rewards>
-2.01214985931933

> <r_i_glide_evdw>
-32.2917098999023

> <r_i_glide_ecoul>
-5.91172885894775

> <r_i_glide_erotb>
0.712904025310031

> <r_i_glide_esite>
0

> <r_i_glide_emodel>
-53.518903098644

> <r_i_glide_energy>
-38.2034387588501

> <r_i_glide_einternal>
3.36897110939026

> <i_i_glide_confnum>
54

> <i_i_glide_posenum>
190

> <r_i_glide_eff_state_penalty>
0

> <s_user_duplicate_titles>
CHEMBL301_lig577

> <s_m_subgroup_title>
dock_pv

> <s_m_subgroupid>
dock_pv

> <b_m_subgroup_collapsed>
1

$$$$
CHEMBL301_lig770
                    3D
 Schrodinger Suite 2021-1.
 34 36  0  0  1  0            999 V2000
    2.9998   29.4521    7.1608 N   0  0  0  0  0  0
    2.1127   29.5405    8.1763 C   0  0  0  0  0  0
    1.1553   30.6234    8.0930 C   0  0  0  0  0  0
   -0.7916   29.9564    9.7388 C   0  0  0  0  0  0
   -1.9082   30.4918   10.3795 C   0  0  0  0  0  0
   -2.2948   31.8121   10.1653 C   0  0  0  0  0  0
   -1.5955   32.6518    9.2960 C   0  0  0  0  0  0
   -0.0574   30.7688    8.8562 C   0  0  0  0  0  0
    2.0563   28.7456    9.1152 O   0  0  0  0  0  0
    1.3369   31.7196    7.3760 N   0  0  0  0  0  0
    0.4396   32.6419    7.7756 N   0  0  0  0  0  0
    4.3034   28.0865    5.6937 C   0  0  0  0  0  0
    5.2568   27.0958    5.4694 C   0  0  0  0  0  0
    5.9501   26.5463    6.5501 C   0  0  0  0  0  0
    5.6571   26.9461    7.8510 C   0  0  0  0  0  0
    4.6830   27.9082    8.0805 C   0  0  0  0  0  0
    7.2545   25.3571    6.2829 S   0  0  0  0  0  0
    8.2216   25.5079    7.3760 O   0  0  0  0  0  0
    6.6048   24.0715    6.0169 O   0  0  0  0  0  0
    8.0480   25.8520    4.8125 N   0  0  0  0  0  0
    4.0002   28.4797    6.9993 C   0  0  0  0  0  0
   -0.4812   32.1065    8.6477 C   0  0  0  0  0  0
    2.9210   30.1277    6.4158 H   0  0  0  0  0  0
   -0.4822   28.9401    9.9380 H   0  0  0  0  0  0
   -2.4734   29.8841   11.0735 H   0  0  0  0  0  0
   -3.1566   32.1938   10.6955 H   0  0  0  0  0  0
   -1.9027   33.6763    9.1529 H   0  0  0  0  0  0
    0.4561   33.5825    7.3932 H   0  0  0  0  0  0
    3.7893   28.5255    4.8519 H   0  0  0  0  0  0
    5.4861   26.7886    4.4589 H   0  0  0  0  0  0
    6.1884   26.5207    8.6895 H   0  0  0  0  0  0
    4.4797   28.2060    9.0977 H   0  0  0  0  0  0
    8.8240   26.4998    4.9716 H   0  0  0  0  0  0
    8.2935   25.0791    4.1882 H   0  0  0  0  0  0
  1  2  1  0  0  0
  1 21  1  0  0  0
  1 23  1  0  0  0
  2  3  1  0  0  0
  2  9  2  0  0  0
  3  8  1  0  0  0
  3 10  2  0  0  0
  4  5  2  0  0  0
  4  8  1  0  0  0
  4 24  1  0  0  0
  5  6  1  0  0  0
  5 25  1  0  0  0
  6  7  2  0  0  0
  6 26  1  0  0  0
  7 22  1  0  0  0
  7 27  1  0  0  0
  8 22  2  0  0  0
 10 11  1  0  0  0
 11 22  1  0  0  0
 11 28  1  0  0  0
 12 13  2  0  0  0
 12 21  1  0  0  0
 12 29  1  0  0  0
 13 14  1  0  0  0
 13 30  1  0  0  0
 14 15  2  0  0  0
 14 17  1  0  0  0
 15 16  1  0  0  0
 15 31  1  0  0  0
 16 21  2  0  0  0
 16 32  1  0  0  0
 17 18  2  0  0  0
 17 19  2  0  0  0
 17 20  1  0  0  0
 20 33  1  0  0  0
 20 34  1  0  0  0
M  END
> <s_m_entry_id>
32993

> <s_m_entry_name>
dock_pv.394

> <s_m_Source_Path>
/home/csk/Desktop/cluster/DUD-E-result/cdk2

> <s_m_Source_File>
dock_pv.maegz

> <i_m_Source_File_Index>
394

> <chembl_id>
CHEMBL455946

> <chembl_pref_name>
None

> <i_lp_mmshare_version>
53161

> <i_f3d_flags>
0

> <r_lp_tautomer_probability>
0.980392156862745

> <s_lp_Force_Field>
OPLS_2005

> <r_lp_Energy>
26.380447

> <b_lp_Chiralities_Consistent>
1

> <s_lp_Variant>
CHEMBL301_lig770-1

> <s_i_glide_gridfile>
glide-grid_1h00

> <i_i_glide_lignum>
1102

> <i_i_glide_rotatable_bonds>
4

> <r_i_docking_score>
-7.27338843026319

> <r_i_glide_ligand_efficiency>
-0.330608565011963

> <r_i_glide_ligand_efficiency_sa>
-0.926378201260567

> <r_i_glide_ligand_efficiency_ln>
-1.77788143564545

> <r_i_glide_gscore>
-7.27338843026319

> <r_i_glide_lipo>
-2.58274447703683

> <r_i_glide_hbond>
-0.360083308190754

> <r_i_glide_metal>
0

> <r_i_glide_rewards>
-2.24985343506596

> <r_i_glide_evdw>
-34.9377288818359

> <r_i_glide_ecoul>
-5.77520990371704

> <r_i_glide_erotb>
0.558077562010984

> <r_i_glide_esite>
-0.0256168423312737

> <r_i_glide_emodel>
-56.1011199224628

> <r_i_glide_energy>
-40.712938785553

> <r_i_glide_einternal>
5.24633502960205

> <i_i_glide_confnum>
5

> <i_i_glide_posenum>
64

> <r_i_glide_eff_state_penalty>
0

> <s_user_duplicate_titles>
CHEMBL301_lig770

> <s_m_subgroup_title>
dock_pv

> <s_m_subgroupid>
dock_pv

> <b_m_subgroup_collapsed>
1

$$$$
CHEMBL301_lig1083
                    3D
 Schrodinger Suite 2021-1.
 47 50  0  0  1  0            999 V2000
   -0.9058   31.8751    9.1439 C   0  0  0  0  0  0
   -0.3412   32.7137    8.1773 C   0  0  0  0  0  0
    0.7472   32.4107    7.4139 N   0  0  0  0  0  0
   -0.3188   30.6288    9.3950 C   0  0  0  0  0  0
   -0.6741   29.8562   10.4750 O   0  0  0  0  0  0
   -1.2848   28.6048   10.1961 C   0  0  0  0  0  0
    0.8212   30.2816    8.6367 C   0  0  0  0  0  0
    1.2580   31.2079    7.6617 C   0  0  0  0  0  0
    2.3784   30.6432    7.1190 N   0  0  0  0  0  0
    2.5871   29.4525    7.7701 C   0  0  0  0  0  0
    1.7070   29.2371    8.7251 N   0  0  0  0  0  0
    3.6599   28.5037    7.3647 C   0  0  0  0  0  0
    4.0608   28.4534    6.0238 C   0  0  0  0  0  0
    4.9999   27.5196    5.6019 C   0  0  0  0  0  0
    5.5780   26.6344    6.5235 C   0  0  0  0  0  0
    5.1800   26.6930    7.8572 C   0  0  0  0  0  0
    4.2266   27.6148    8.2813 C   0  0  0  0  0  0
    6.5329   25.6882    6.2078 O   0  0  0  0  0  0
    7.0414   25.6345    4.8774 C   0  0  0  0  0  0
   -2.3867   32.4808   10.1762 Br  0  0  0  0  0  0
   -1.1135   27.6835   11.4306 C   0  0  0  0  0  0
   -1.8146   26.3152   11.2787 C   0  0  0  0  0  0
   -1.1225   25.4021   10.2439 C   0  0  0  0  0  0
    0.2924   25.1988   10.5635 N   0  0  2  0  0  0
    1.0429   26.4426   10.7553 C   0  0  0  0  0  0
    0.3642   27.3865   11.7726 C   0  0  0  0  0  0
   -0.7565   33.6990    8.0103 H   0  0  0  0  0  0
   -0.8760   28.1352    9.3005 H   0  0  0  0  0  0
   -2.3409   28.8031   10.0160 H   0  0  0  0  0  0
    3.0218   31.0082    6.4237 H   0  0  0  0  0  0
    3.6365   29.1280    5.2957 H   0  0  0  0  0  0
    5.2847   27.5094    4.5604 H   0  0  0  0  0  0
    5.6180   26.0148    8.5760 H   0  0  0  0  0  0
    3.9296   27.6272    9.3222 H   0  0  0  0  0  0
    7.8056   24.8604    4.8174 H   0  0  0  0  0  0
    6.2592   25.3864    4.1575 H   0  0  0  0  0  0
    7.5072   26.5786    4.5887 H   0  0  0  0  0  0
   -1.5602   28.1796   12.2954 H   0  0  0  0  0  0
   -2.8522   26.4540   10.9786 H   0  0  0  0  0  0
   -1.8733   25.7953   12.2379 H   0  0  0  0  0  0
   -1.2031   25.8243    9.2418 H   0  0  0  0  0  0
   -1.6167   24.4318   10.2223 H   0  0  0  0  0  0
    0.7421   24.6418    9.8488 H   0  0  0  0  0  0
    1.1490   26.9296    9.7865 H   0  0  0  0  0  0
    2.0494   26.1955   11.0982 H   0  0  0  0  0  0
    0.4571   26.9676   12.7763 H   0  0  0  0  0  0
    0.9289   28.3186   11.8115 H   0  0  0  0  0  0
  1  2  2  0  0  0
  1  4  1  0  0  0
  1 20  1  0  0  0
  2  3  1  0  0  0
  2 27  1  0  0  0
  3  8  2  0  0  0
  4  7  2  0  0  0
  4  5  1  0  0  0
  5  6  1  0  0  0
  6 21  1  0  0  0
  6 28  1  0  0  0
  6 29  1  0  0  0
  7  8  1  0  0  0
  7 11  1  0  0  0
  8  9  1  0  0  0
  9 10  1  0  0  0
  9 30  1  0  0  0
 10 11  2  0  0  0
 10 12  1  0  0  0
 12 13  2  0  0  0
 12 17  1  0  0  0
 13 14  1  0  0  0
 13 31  1  0  0  0
 14 15  2  0  0  0
 14 32  1  0  0  0
 15 16  1  0  0  0
 15 18  1  0  0  0
 16 17  2  0  0  0
 16 33  1  0  0  0
 17 34  1  0  0  0
 18 19  1  0  0  0
 19 35  1  0  0  0
 19 36  1  0  0  0
 19 37  1  0  0  0
 21 22  1  0  0  0
 21 26  1  0  0  0
 21 38  1  0  0  0
 22 23  1  0  0  0
 22 39  1  0  0  0
 22 40  1  0  0  0
 23 24  1  0  0  0
 23 41  1  0  0  0
 23 42  1  0  0  0
 24 25  1  0  0  0
 24 43  1  0  0  0
 25 26  1  0  0  0
 25 44  1  0  0  0
 25 45  1  0  0  0
 26 46  1  0  0  0
 26 47  1  0  0  0
M  END
> <s_m_entry_id>
32994

> <s_m_entry_name>
dock_pv.395

> <s_m_Source_Path>
/home/csk/Desktop/cluster/DUD-E-result/cdk2

> <s_m_Source_File>
dock_pv.maegz

> <i_m_Source_File_Index>
395

> <chembl_id>
CHEMBL2011927

> <chembl_pref_name>
None

> <i_lp_mmshare_version>
53161

> <i_f3d_flags>
0

> <r_lp_tautomer_probability>
0.357409149674232

> <s_lp_Force_Field>
OPLS_2005

> <r_lp_Energy>
28.864118

> <b_lp_Chiralities_Consistent>
1

> <s_lp_Variant>
CHEMBL301_lig1083-2

> <s_i_glide_gridfile>
glide-grid_1h00

> <i_i_glide_lignum>
1486

> <i_i_glide_rotatable_bonds>
5

> <r_i_docking_score>
-7.26807381373706

> <r_i_glide_ligand_efficiency>
-0.279541300528348

> <r_i_glide_ligand_efficiency_sa>
-0.828140002873329

> <r_i_glide_ligand_efficiency_ln>
-1.7068832866608

> <r_i_glide_gscore>
-7.26807381373706

> <r_i_glide_lipo>
-2.68085816054514

> <r_i_glide_hbond>
-0.30331594930906

> <r_i_glide_metal>
0

> <r_i_glide_rewards>
-2.19063268895944

> <r_i_glide_evdw>
-33.1974182128906

> <r_i_glide_ecoul>
-5.91583490371704

> <r_i_glide_erotb>
0.453979131278672

> <r_i_glide_esite>
0

> <r_i_glide_emodel>
-57.459527089272

> <r_i_glide_energy>
-39.1132531166077

> <r_i_glide_einternal>
1.0995831489563

> <i_i_glide_confnum>
65

> <i_i_glide_posenum>
101

> <r_i_glide_eff_state_penalty>
0

> <s_user_duplicate_titles>
CHEMBL301_lig1083

> <s_m_subgroup_title>
dock_pv

> <s_m_subgroupid>
dock_pv

> <b_m_subgroup_collapsed>
1

$$$$
CHEMBL301_lig330
                    3D
 Schrodinger Suite 2021-1.
 41 43  0  0  1  0            999 V2000
   -0.6305   28.5877   11.4721 C   0  0  0  0  0  0
   -1.6426   29.5007   11.1505 C   0  0  0  0  0  0
   -1.5141   30.3584   10.0499 C   0  0  0  0  0  0
    0.5203   28.5202   10.6807 C   0  0  0  0  0  0
    0.6544   29.3787    9.5880 C   0  0  0  0  0  0
   -0.3450   30.2767    9.2866 C   0  0  0  0  0  0
    0.0519   31.0019    8.1832 N   0  0  0  0  0  0
    1.2576   30.6388    7.7235 C   0  0  0  0  0  0
    1.7090   29.5606    8.5972 C   0  0  0  0  0  0
    1.8206   31.1450    6.7537 O   0  0  0  0  0  0
    2.8761   28.8923    8.4471 C   0  0  0  0  0  0
    3.8513   29.0521    7.4853 N   0  0  0  0  0  0
    4.4457   28.0195    6.7517 C   0  0  0  0  0  0
    4.5765   28.1999    5.3756 C   0  0  0  0  0  0
    5.0741   27.1704    4.5811 C   0  0  0  0  0  0
    5.4556   25.9642    5.1696 C   0  0  0  0  0  0
    5.3593   25.7918    6.5532 C   0  0  0  0  0  0
    4.8535   26.8205    7.3457 C   0  0  0  0  0  0
    6.0675   24.6438    4.1260 S   0  0  0  0  0  0
    4.6399   23.9824    3.3764 N   0  0  0  0  0  0
    6.8706   25.2684    3.0709 O   0  0  0  0  0  0
    6.6190   23.6056    5.0038 O   0  0  0  0  0  0
   -2.6192   31.3543    9.7367 C   0  0  0  0  0  0
   -0.7696   27.6818   12.6812 C   0  0  0  0  0  0
   -2.5284   29.5468   11.7678 H   0  0  0  0  0  0
    1.3034   27.8186   10.9311 H   0  0  0  0  0  0
   -0.4839   31.7479    7.7683 H   0  0  0  0  0  0
    3.1280   28.1052    9.1443 H   0  0  0  0  0  0
    3.7707   29.8975    6.9271 H   0  0  0  0  0  0
    4.2731   29.1296    4.9169 H   0  0  0  0  0  0
    5.1595   27.3063    3.5122 H   0  0  0  0  0  0
    5.6613   24.8630    7.0149 H   0  0  0  0  0  0
    4.7713   26.6746    8.4137 H   0  0  0  0  0  0
    4.4617   24.2517    2.3870 H   0  0  0  0  0  0
    4.4065   23.0187    3.6170 H   0  0  0  0  0  0
   -3.3081   31.4755   10.5741 H   0  0  0  0  0  0
   -2.1945   32.3367    9.5300 H   0  0  0  0  0  0
   -3.1790   31.0406    8.8551 H   0  0  0  0  0  0
   -0.7321   26.6367   12.3740 H   0  0  0  0  0  0
    0.0592   27.8511   13.3688 H   0  0  0  0  0  0
   -1.7028   27.8517   13.2198 H   0  0  0  0  0  0
  1  2  2  0  0  0
  1  4  1  0  0  0
  1 24  1  0  0  0
  2  3  1  0  0  0
  2 25  1  0  0  0
  3  6  2  0  0  0
  3 23  1  0  0  0
  4  5  2  0  0  0
  4 26  1  0  0  0
  5  9  1  0  0  0
  5  6  1  0  0  0
  6  7  1  0  0  0
  7  8  1  0  0  0
  7 27  1  0  0  0
  8  9  1  0  0  0
  8 10  2  0  0  0
  9 11  2  0  0  0
 11 12  1  0  0  0
 11 28  1  0  0  0
 12 13  1  0  0  0
 12 29  1  0  0  0
 13 14  2  0  0  0
 13 18  1  0  0  0
 14 15  1  0  0  0
 14 30  1  0  0  0
 15 16  2  0  0  0
 15 31  1  0  0  0
 16 17  1  0  0  0
 16 19  1  0  0  0
 17 18  2  0  0  0
 17 32  1  0  0  0
 18 33  1  0  0  0
 19 20  1  0  0  0
 19 21  2  0  0  0
 19 22  2  0  0  0
 20 34  1  0  0  0
 20 35  1  0  0  0
 23 36  1  0  0  0
 23 37  1  0  0  0
 23 38  1  0  0  0
 24 39  1  0  0  0
 24 40  1  0  0  0
 24 41  1  0  0  0
M  END
> <s_m_entry_id>
32995

> <s_m_entry_name>
dock_pv.396

> <s_m_Source_Path>
/home/csk/Desktop/cluster/DUD-E-result/cdk2

> <s_m_Source_File>
dock_pv.maegz

> <i_m_Source_File_Index>
396

> <chembl_id>
CHEMBL269846

> <chembl_pref_name>
None

> <i_lp_mmshare_version>
53161

> <i_f3d_flags>
0

> <r_lp_tautomer_probability>
0.499999999999422

> <s_lp_Force_Field>
OPLS_2005

> <r_lp_Energy>
38.927043

> <b_lp_Chiralities_Consistent>
1

> <s_lp_Variant>
CHEMBL301_lig330-1

> <s_i_glide_gridfile>
glide-grid_1h00

> <i_i_glide_lignum>
507

> <i_i_glide_rotatable_bonds>
3

> <r_i_docking_score>
-7.2680451526512

> <r_i_glide_ligand_efficiency>
-0.3028352146938

> <r_i_glide_ligand_efficiency_sa>
-0.873527915606797

> <r_i_glide_ligand_efficiency_ln>
-1.73957671388976

> <r_i_glide_gscore>
-7.2680451526512

> <r_i_glide_lipo>
-2.73571987768402

> <r_i_glide_hbond>
-0.420110053675891

> <r_i_glide_metal>
0

> <r_i_glide_rewards>
-1.30672097822689

> <r_i_glide_evdw>
-35.9128227233887

> <r_i_glide_ecoul>
-7.9947566986084

> <r_i_glide_erotb>
0.321808456500409

> <r_i_glide_esite>
-0.132448058604112

> <r_i_glide_emodel>
-58.7054083326014

> <r_i_glide_energy>
-43.9075794219971

> <r_i_glide_einternal>
7.23627853393555

> <i_i_glide_confnum>
3

> <i_i_glide_posenum>
46

> <r_i_glide_eff_state_penalty>
0

> <s_user_duplicate_titles>
CHEMBL301_lig330

> <s_m_subgroup_title>
dock_pv

> <s_m_subgroupid>
dock_pv

> <b_m_subgroup_collapsed>
1

$$$$
CHEMBL301_lig463
                    3D
 Schrodinger Suite 2021-1.
 44 47  0  0  1  0            999 V2000
   -2.3419   31.4331   10.2544 C   0  0  0  0  0  0
   -2.1779   30.0976   10.6269 C   0  0  0  0  0  0
   -1.1170   29.3360   10.1201 C   0  0  0  0  0  0
   -1.5071   31.9832    9.2997 C   0  0  0  0  0  0
   -0.4402   31.2452    8.7903 C   0  0  0  0  0  0
   -0.1869   29.9480    9.2563 C   0  0  0  0  0  0
    1.0177   29.3162    8.9390 O   0  0  0  0  0  0
    1.8032   29.8520    7.9421 C   0  0  0  0  0  0
    1.4764   30.9943    7.2981 C   0  0  0  0  0  0
    0.4580   31.8751    7.8111 C   0  0  0  0  0  0
    0.3452   33.0520    7.5133 O   0  0  0  0  0  0
    2.9633   28.9987    7.5714 C   0  0  0  0  0  0
    3.7253   28.3665    8.5616 C   0  0  0  0  0  0
    4.8258   27.5790    8.2186 C   0  0  0  0  0  0
    5.2018   27.4194    6.8933 C   0  0  0  0  0  0
    4.4581   28.0384    5.8917 C   0  0  0  0  0  0
    3.3516   28.8161    6.2313 C   0  0  0  0  0  0
    6.2962   26.6519    6.5968 O   0  0  0  0  0  0
    2.0580   31.4917    6.1760 O   0  0  0  0  0  0
   -0.9821   28.0260   10.6010 N   0  0  0  0  0  0
   -3.3838   32.3239   10.8966 C   0  0  0  0  0  0
   -0.1143   27.7506   12.0984 S   0  0  0  0  0  0
    1.1397   26.7622   11.1219 C   0  0  0  0  0  0
    0.2331   25.9385   10.1992 C   0  0  0  0  0  0
   -0.9176   26.8563    9.7320 C   0  0  0  0  0  0
    0.4580   29.0105   12.5760 O   0  0  0  0  0  0
   -0.8036   26.8116   12.9912 O   0  0  0  0  0  0
    4.9263   27.8221    4.0603 Br  0  0  0  0  0  0
   -2.8436   29.6704   11.3657 H   0  0  0  0  0  0
   -1.6657   33.0097    8.9914 H   0  0  0  0  0  0
    3.4790   28.4939    9.6046 H   0  0  0  0  0  0
    5.4115   27.0886    8.9760 H   0  0  0  0  0  0
    2.7916   29.2611    5.4253 H   0  0  0  0  0  0
    6.6235   26.8291    5.7099 H   0  0  0  0  0  0
    2.9844   31.2058    6.1161 H   0  0  0  0  0  0
   -4.3465   31.8211   10.9757 H   0  0  0  0  0  0
   -3.5418   33.2250   10.3187 H   0  0  0  0  0  0
   -3.0597   32.6520   11.8836 H   0  0  0  0  0  0
    1.7320   26.1499   11.7970 H   0  0  0  0  0  0
    1.8082   27.4484   10.6098 H   0  0  0  0  0  0
   -0.1932   25.1161   10.7772 H   0  0  0  0  0  0
    0.7759   25.4686    9.3768 H   0  0  0  0  0  0
   -1.8609   26.3080    9.7487 H   0  0  0  0  0  0
   -0.7420   27.1448    8.6972 H   0  0  0  0  0  0
  1  2  2  0  0  0
  1  4  1  0  0  0
  1 21  1  0  0  0
  2  3  1  0  0  0
  2 29  1  0  0  0
  3 20  1  0  0  0
  3  6  2  0  0  0
  4  5  2  0  0  0
  4 30  1  0  0  0
  5 10  1  0  0  0
  5  6  1  0  0  0
  6  7  1  0  0  0
  7  8  1  0  0  0
  8 12  1  0  0  0
  8  9  2  0  0  0
  9 19  1  0  0  0
  9 10  1  0  0  0
 10 11  2  0  0  0
 12 17  1  0  0  0
 12 13  2  0  0  0
 13 14  1  0  0  0
 13 31  1  0  0  0
 14 15  2  0  0  0
 14 32  1  0  0  0
 15 16  1  0  0  0
 15 18  1  0  0  0
 16 17  2  0  0  0
 16 28  1  0  0  0
 17 33  1  0  0  0
 18 34  1  0  0  0
 19 35  1  0  0  0
 20 22  1  0  0  0
 20 25  1  0  0  0
 21 36  1  0  0  0
 21 37  1  0  0  0
 21 38  1  0  0  0
 22 23  1  0  0  0
 22 26  2  0  0  0
 22 27  2  0  0  0
 23 24  1  0  0  0
 23 39  1  0  0  0
 23 40  1  0  0  0
 24 25  1  0  0  0
 24 41  1  0  0  0
 24 42  1  0  0  0
 25 43  1  0  0  0
 25 44  1  0  0  0
M  END
> <s_m_entry_id>
32996

> <s_m_entry_name>
dock_pv.397

> <s_m_Source_Path>
/home/csk/Desktop/cluster/DUD-E-result/cdk2

> <s_m_Source_File>
dock_pv.maegz

> <i_m_Source_File_Index>
397

> <chembl_id>
CHEMBL392776

> <chembl_pref_name>
None

> <i_lp_mmshare_version>
53161

> <i_f3d_flags>
0

> <r_lp_tautomer_probability>
0.999999999997365

> <s_lp_Force_Field>
OPLS_2005

> <r_lp_Energy>
20.498518

> <b_lp_Chiralities_Consistent>
1

> <s_lp_Variant>
CHEMBL301_lig463-1

> <s_i_glide_gridfile>
glide-grid_1h00

> <i_i_glide_lignum>
654

> <i_i_glide_rotatable_bonds>
4

> <r_i_docking_score>
-7.26746181803179

> <r_i_glide_ligand_efficiency>
-0.25955220778685

> <r_i_glide_ligand_efficiency_sa>
-0.788153370916098

> <r_i_glide_ligand_efficiency_ln>
-1.67754356955274

> <r_i_glide_gscore>
-7.26746181803179

> <r_i_glide_lipo>
-3.52629447654927

> <r_i_glide_hbond>
-0.0268738531457999

> <r_i_glide_metal>
0

> <r_i_glide_rewards>
-0.952210271042919

> <r_i_glide_evdw>
-33.398006439209

> <r_i_glide_ecoul>
-8.51826858520508

> <r_i_glide_erotb>
0.185557392447409

> <r_i_glide_esite>
0

> <r_i_glide_emodel>
-55.4435400471151

> <r_i_glide_energy>
-41.9162750244141

> <r_i_glide_einternal>
8.92141532897949

> <i_i_glide_confnum>
31

> <i_i_glide_posenum>
232

> <r_i_glide_eff_state_penalty>
0

> <s_user_duplicate_titles>
CHEMBL301_lig463,397000

> <s_m_subgroup_title>
dock_pv

> <s_m_subgroupid>
dock_pv

> <b_m_subgroup_collapsed>
1

$$$$
CHEMBL301_lig536
                    3D
 Schrodinger Suite 2021-1.
 37 39  0  0  1  0            999 V2000
   -2.3334   29.8180   10.7983 C   0  0  0  0  0  0
   -2.1269   31.4749    8.9856 C   0  0  0  0  0  0
   -2.8052   31.2050   10.3340 C   0  0  0  0  0  0
   -0.8567   30.6571    9.1050 C   0  0  0  0  0  0
   -1.0273   29.6875   10.0619 C   0  0  0  0  0  0
    0.3218   28.6223   10.1857 S   0  0  0  0  0  0
    1.1909   29.5483    8.9633 C   0  0  0  0  0  0
    0.4280   30.6526    8.5164 C   0  0  0  0  0  0
    0.8784   31.6294    7.5491 C   0  0  0  0  0  0
    0.4586   32.8754    7.7763 N   0  0  0  0  0  0
    1.6579   31.3642    6.6366 O   0  0  0  0  0  0
    2.5094   29.2721    8.5780 N   0  0  0  0  0  0
    3.2608   28.1842    8.8550 C   0  0  0  0  0  0
    4.7518   28.2703    8.4816 C   0  0  0  0  0  0
    2.8496   27.1509    9.3777 O   0  0  0  0  0  0
    5.0792   27.5639    7.2189 N   0  0  0  0  0  0
    4.5071   27.8222    6.0119 C   0  0  0  0  0  0
    5.1354   26.9037    4.9837 C   0  0  0  0  0  0
    6.1524   26.1076    5.7526 C   0  0  0  0  0  0
    6.0574   26.6226    7.1755 C   0  0  0  0  0  0
    6.7718   26.2273    8.0984 O   0  0  0  0  0  0
    3.6398   28.6520    5.7525 O   0  0  0  0  0  0
   -3.0571   29.0512   10.5369 H   0  0  0  0  0  0
   -2.2121   29.7957   11.8813 H   0  0  0  0  0  0
   -1.9825   32.5422    8.8207 H   0  0  0  0  0  0
   -2.7572   31.1056    8.1765 H   0  0  0  0  0  0
   -3.8929   31.2759   10.2779 H   0  0  0  0  0  0
   -2.4842   31.9567   11.0583 H   0  0  0  0  0  0
   -0.1509   33.0661    8.5556 H   0  0  0  0  0  0
    0.7391   33.6436    7.1790 H   0  0  0  0  0  0
    2.9239   29.9588    7.9613 H   0  0  0  0  0  0
    5.3111   27.8607    9.3248 H   0  0  0  0  0  0
    5.0876   29.3054    8.4140 H   0  0  0  0  0  0
    4.3504   26.2792    4.5552 H   0  0  0  0  0  0
    5.5940   27.5242    4.2122 H   0  0  0  0  0  0
    5.9250   25.0404    5.7600 H   0  0  0  0  0  0
    7.1692   26.2771    5.3945 H   0  0  0  0  0  0
  1  3  1  0  0  0
  1  5  1  0  0  0
  1 23  1  0  0  0
  1 24  1  0  0  0
  2  4  1  0  0  0
  2  3  1  0  0  0
  2 25  1  0  0  0
  2 26  1  0  0  0
  3 27  1  0  0  0
  3 28  1  0  0  0
  4  8  1  0  0  0
  4  5  2  0  0  0
  5  6  1  0  0  0
  6  7  1  0  0  0
  7 12  1  0  0  0
  7  8  2  0  0  0
  8  9  1  0  0  0
  9 11  2  0  0  0
  9 10  1  0  0  0
 10 29  1  0  0  0
 10 30  1  0  0  0
 12 13  1  0  0  0
 12 31  1  0  0  0
 13 14  1  0  0  0
 13 15  2  0  0  0
 14 16  1  0  0  0
 14 32  1  0  0  0
 14 33  1  0  0  0
 16 17  1  0  0  0
 16 20  1  0  0  0
 17 18  1  0  0  0
 17 22  2  0  0  0
 18 19  1  0  0  0
 18 34  1  0  0  0
 18 35  1  0  0  0
 19 20  1  0  0  0
 19 36  1  0  0  0
 19 37  1  0  0  0
 20 21  2  0  0  0
M  END
> <s_m_entry_id>
32997

> <s_m_entry_name>
dock_pv.398

> <s_m_Source_Path>
/home/csk/Desktop/cluster/DUD-E-result/cdk2

> <s_m_Source_File>
dock_pv.maegz

> <i_m_Source_File_Index>
398

> <chembl_id>
CHEMBL272171

> <chembl_pref_name>
None

> <i_lp_mmshare_version>
53161

> <i_f3d_flags>
0

> <r_lp_tautomer_probability>
1

> <s_lp_Force_Field>
OPLS_2005

> <r_lp_Energy>
28.363191

> <b_lp_Chiralities_Consistent>
1

> <s_lp_Variant>
CHEMBL301_lig536-1

> <s_i_glide_gridfile>
glide-grid_1h00

> <i_i_glide_lignum>
756

> <i_i_glide_rotatable_bonds>
5

> <r_i_docking_score>
-7.26700310399292

> <r_i_glide_ligand_efficiency>
-0.330318322908769

> <r_i_glide_ligand_efficiency_sa>
-0.925564931472844

> <r_i_glide_ligand_efficiency_ln>
-1.77632062899457

> <r_i_glide_gscore>
-7.26700310399292

> <r_i_glide_lipo>
-1.88681859687394

> <r_i_glide_hbond>
-0.27851932632169

> <r_i_glide_metal>
0

> <r_i_glide_rewards>
-3.0466369993909

> <r_i_glide_evdw>
-39.2427291870117

> <r_i_glide_ecoul>
-4.23811149597168

> <r_i_glide_erotb>
0.542825002339956

> <r_i_glide_esite>
0

> <r_i_glide_emodel>
-59.5989515896812

> <r_i_glide_energy>
-43.4808406829834

> <r_i_glide_einternal>
3.66360712051392

> <i_i_glide_confnum>
1

> <i_i_glide_posenum>
369

> <r_i_glide_eff_state_penalty>
0

> <s_user_duplicate_titles>
CHEMBL301_lig536

> <s_m_subgroup_title>
dock_pv

> <s_m_subgroupid>
dock_pv

> <b_m_subgroup_collapsed>
1

$$$$
CHEMBL301_lig909
                    3D
 Schrodinger Suite 2021-1.
 32 34  0  0  1  0            999 V2000
    0.8795   26.5977   10.6059 C   0  0  0  0  0  0
    2.1729   26.4779   10.1059 C   0  0  0  0  0  0
    0.1700   27.8580   10.4856 C   0  0  0  0  0  0
    0.7218   28.8693    9.6120 C   0  0  0  0  0  0
   -1.7011   29.3739   10.9799 C   0  0  0  0  0  0
   -1.0433   28.1743   11.1998 C   0  0  0  0  0  0
   -1.2384   30.3303   10.0656 C   0  0  0  0  0  0
   -0.0456   30.0537    9.3230 C   0  0  0  0  0  0
    0.3149   31.0119    8.3163 C   0  0  0  0  0  0
   -0.3420   32.2269    8.1955 C   0  0  0  0  0  0
   -1.4475   32.5031    8.9775 C   0  0  0  0  0  0
   -1.9305   31.5681    9.8807 C   0  0  0  0  0  0
    2.0624   28.6562    9.1015 C   0  0  0  0  0  0
    2.7680   27.4969    9.3995 C   0  0  0  0  0  0
    4.0639   27.3294    8.9759 O   0  0  0  0  0  0
    2.7714   29.5675    8.3610 O   0  0  0  0  0  0
   -1.6017   27.3378   12.2779 N   0  3  0  0  0  0
   -0.9176   27.1724   13.2839 O   0  0  0  0  0  0
   -2.7331   26.8875   12.1260 O   0  5  0  0  0  0
    0.2861   25.3428   11.1788 C   0  0  0  0  0  0
   -0.7609   24.8526   10.7638 O   0  0  0  0  0  0
    1.0413   24.8112   12.1760 O   0  0  0  0  0  0
   -3.0689   31.8991   10.5760 O   0  0  0  0  0  0
    2.7324   25.5603   10.2312 H   0  0  0  0  0  0
   -2.5966   29.5830   11.5495 H   0  0  0  0  0  0
    1.1173   30.8596    7.6206 H   0  0  0  0  0  0
   -0.0010   32.9580    7.4745 H   0  0  0  0  0  0
   -1.9465   33.4519    8.8717 H   0  0  0  0  0  0
    4.5660   26.7186    9.5398 H   0  0  0  0  0  0
    3.6410   29.2033    8.1640 H   0  0  0  0  0  0
    1.7269   25.4422   12.4072 H   0  0  0  0  0  0
   -3.2198   31.4515   11.4236 H   0  0  0  0  0  0
  1  2  1  0  0  0
  1  3  2  0  0  0
  1 20  1  0  0  0
  2 14  2  0  0  0
  2 24  1  0  0  0
  3  6  1  0  0  0
  3  4  1  0  0  0
  4  8  1  0  0  0
  4 13  2  0  0  0
  5  7  1  0  0  0
  5  6  2  0  0  0
  5 25  1  0  0  0
  6 17  1  0  0  0
  7 12  1  0  0  0
  7  8  2  0  0  0
  8  9  1  0  0  0
  9 10  2  0  0  0
  9 26  1  0  0  0
 10 11  1  0  0  0
 10 27  1  0  0  0
 11 12  2  0  0  0
 11 28  1  0  0  0
 12 23  1  0  0  0
 13 14  1  0  0  0
 13 16  1  0  0  0
 14 15  1  0  0  0
 15 29  1  0  0  0
 16 30  1  0  0  0
 17 18  2  0  0  0
 17 19  1  0  0  0
 20 21  2  0  0  0
 20 22  1  0  0  0
 22 31  1  0  0  0
 23 32  1  0  0  0
M  CHG  2  17   1  19  -1
M  END
> <s_m_entry_id>
32998

> <s_m_entry_name>
dock_pv.399

> <s_m_Source_Path>
/home/csk/Desktop/cluster/DUD-E-result/cdk2

> <s_m_Source_File>
dock_pv.maegz

> <i_m_Source_File_Index>
399

> <chembl_id>
CHEMBL599987

> <chembl_pref_name>
None

> <i_lp_mmshare_version>
53161

> <i_f3d_flags>
0

> <r_lp_tautomer_probability>
1

> <s_lp_Force_Field>
OPLS_2005

> <r_lp_Energy>
45.2644

> <b_lp_Chiralities_Consistent>
1

> <s_lp_Variant>
CHEMBL301_lig909-1

> <s_i_glide_gridfile>
glide-grid_1h00

> <i_i_glide_lignum>
1283

> <i_i_glide_rotatable_bonds>
6

> <r_i_docking_score>
-7.26690938580769

> <r_i_glide_ligand_efficiency>
-0.315952581991639

> <r_i_glide_ligand_efficiency_sa>
-0.898527114185756

> <r_i_glide_ligand_efficiency_ln>
-1.75720458217954

> <r_i_glide_gscore>
-7.26690938580769

> <r_i_glide_lipo>
-2.41308251026702

> <r_i_glide_hbond>
-0.152

> <r_i_glide_metal>
0

> <r_i_glide_rewards>
-1.95236576965772

> <r_i_glide_evdw>
-34.0529556274414

> <r_i_glide_ecoul>
-8.22656345367432

> <r_i_glide_erotb>
0.187171193540279

> <r_i_glide_esite>
0

> <r_i_glide_emodel>
-61.3724094981049

> <r_i_glide_energy>
-42.2795190811157

> <r_i_glide_einternal>
3.31154727935791

> <i_i_glide_confnum>
1

> <i_i_glide_posenum>
393

> <r_i_glide_eff_state_penalty>
0

> <s_user_duplicate_titles>
CHEMBL301_lig909

> <s_m_subgroup_title>
dock_pv

> <s_m_subgroupid>
dock_pv

> <b_m_subgroup_collapsed>
1

$$$$
CHEMBL301_lig416
                    3D
 Schrodinger Suite 2021-1.
 48 51  0  0  1  0            999 V2000
    1.7192   22.8965   12.7305 O   0  0  0  0  0  0
    0.8897   23.0327   11.5317 S   0  0  0  0  0  0
   -0.3420   22.2520   11.3760 O   0  0  0  0  0  0
    1.9199   22.6557   10.1759 N   0  0  0  0  0  0
    0.4684   24.7594   11.3499 C   0  0  0  0  0  0
   -0.8695   25.1542   11.3836 C   0  0  0  0  0  0
   -1.2035   26.4903   11.1871 C   0  0  0  0  0  0
   -0.2081   27.4343   10.9340 C   0  0  0  0  0  0
    1.1354   27.0440   10.9760 C   0  0  0  0  0  0
    1.4756   25.7080   11.1725 C   0  0  0  0  0  0
   -0.6148   28.7453   10.6353 N   0  0  0  0  0  0
   -0.1242   29.6843    9.7116 C   0  0  0  0  0  0
   -0.7591   30.8834    9.5384 N   0  0  0  0  0  0
   -1.8211   31.3765   10.2101 N   0  0  0  0  0  0
   -1.9447   32.5709    9.6705 C   0  0  0  0  0  0
   -0.3420   31.8138    8.5825 C   0  0  0  0  0  0
   -1.1370   32.9050    8.6794 N   0  0  0  0  0  0
    0.7009   31.5858    7.7760 N   0  0  0  0  0  0
    1.3501   30.4065    7.9371 C   0  0  0  0  0  0
    0.9712   29.4520    8.8913 C   0  0  0  0  0  0
    2.4580   30.2281    7.0960 N   0  0  0  0  0  0
    3.2557   28.9974    7.0818 C   0  0  0  0  0  0
    3.8052   28.6520    5.6880 C   0  0  0  0  0  0
    4.4580   27.2535    5.6648 C   0  0  0  0  0  0
    5.4823   27.0519    6.8013 C   0  0  0  0  0  0
    4.9542   27.4960    8.1791 C   0  0  0  0  0  0
    4.3309   28.9092    8.1750 C   0  0  0  0  0  0
    2.0963   21.6496   10.1316 H   0  0  0  0  0  0
    1.4729   22.8990    9.2851 H   0  0  0  0  0  0
   -1.6538   24.4312   11.5469 H   0  0  0  0  0  0
   -2.2446   26.7767   11.1993 H   0  0  0  0  0  0
    1.9298   27.7676   10.8746 H   0  0  0  0  0  0
    2.5173   25.4195   11.1842 H   0  0  0  0  0  0
   -1.5189   29.0117   11.0006 H   0  0  0  0  0  0
   -2.6988   33.2494   10.0411 H   0  0  0  0  0  0
    1.5068   28.5309    8.9813 H   0  0  0  0  0  0
    2.8796   31.0520    6.6870 H   0  0  0  0  0  0
    2.5297   28.2520    7.3173 H   0  0  0  0  0  0
    2.9843   28.6520    4.9760 H   0  0  0  0  0  0
    4.5203   29.4069    5.3581 H   0  0  0  0  0  0
    3.6851   26.4878    5.7396 H   0  0  0  0  0  0
    4.9422   27.0890    4.7011 H   0  0  0  0  0  0
    5.7840   26.0046    6.8428 H   0  0  0  0  0  0
    6.3907   27.6036    6.5760 H   0  0  0  0  0  0
    4.2075   26.7768    8.5207 H   0  0  0  0  0  0
    5.7580   27.4520    8.9152 H   0  0  0  0  0  0
    5.0936   29.6781    8.0397 H   0  0  0  0  0  0
    3.8743   29.0520    9.1514 H   0  0  0  0  0  0
  1  2  2  0  0  0
  2  3  2  0  0  0
  2  4  1  0  0  0
  2  5  1  0  0  0
  4 28  1  0  0  0
  4 29  1  0  0  0
  5  6  2  0  0  0
  5 10  1  0  0  0
  6  7  1  0  0  0
  6 30  1  0  0  0
  7  8  2  0  0  0
  7 31  1  0  0  0
  8  9  1  0  0  0
  8 11  1  0  0  0
  9 10  2  0  0  0
  9 32  1  0  0  0
 10 33  1  0  0  0
 11 12  1  0  0  0
 11 34  1  0  0  0
 12 13  1  0  0  0
 12 20  2  0  0  0
 13 14  1  0  0  0
 13 16  1  0  0  0
 14 15  2  0  0  0
 15 17  1  0  0  0
 15 35  1  0  0  0
 16 17  2  0  0  0
 16 18  1  0  0  0
 18 19  2  0  0  0
 19 20  1  0  0  0
 19 21  1  0  0  0
 20 36  1  0  0  0
 21 22  1  0  0  0
 21 37  1  0  0  0
 22 23  1  0  0  0
 22 27  1  0  0  0
 22 38  1  0  0  0
 23 24  1  0  0  0
 23 39  1  0  0  0
 23 40  1  0  0  0
 24 25  1  0  0  0
 24 41  1  0  0  0
 24 42  1  0  0  0
 25 26  1  0  0  0
 25 43  1  0  0  0
 25 44  1  0  0  0
 26 27  1  0  0  0
 26 45  1  0  0  0
 26 46  1  0  0  0
 27 47  1  0  0  0
 27 48  1  0  0  0
M  END
> <s_m_entry_id>
32999

> <s_m_entry_name>
dock_pv.400

> <s_m_Source_Path>
/home/csk/Desktop/cluster/DUD-E-result/cdk2

> <s_m_Source_File>
dock_pv.maegz

> <i_m_Source_File_Index>
400

> <chembl_id>
CHEMBL203569

> <chembl_pref_name>
None

> <i_lp_mmshare_version>
53161

> <i_f3d_flags>
0

> <r_lp_tautomer_probability>
1

> <s_lp_Force_Field>
OPLS_2005

> <r_lp_Energy>
28.327953

> <b_lp_Chiralities_Consistent>
1

> <s_lp_Variant>
CHEMBL301_lig416-1

> <s_i_glide_gridfile>
glide-grid_1h00

> <i_i_glide_lignum>
604

> <i_i_glide_rotatable_bonds>
5

> <r_i_docking_score>
-7.26619172468302

> <r_i_glide_ligand_efficiency>
-0.269118212025297

> <r_i_glide_ligand_efficiency_sa>
-0.807354635188922

> <r_i_glide_ligand_efficiency_ln>
-1.69144964097333

> <r_i_glide_gscore>
-7.26619172468302

> <r_i_glide_lipo>
-2.50529825026422

> <r_i_glide_hbond>
-0.382535316597104

> <r_i_glide_metal>
0

> <r_i_glide_rewards>
-1.48909142472644

> <r_i_glide_evdw>
-43.6464500427246

> <r_i_glide_ecoul>
-7.58415842056274

> <r_i_glide_erotb>
0.518871161278855

> <r_i_glide_esite>
-0.0881916291534689

> <r_i_glide_emodel>
-66.9252401164148

> <r_i_glide_energy>
-51.2306084632874

> <r_i_glide_einternal>
8.20229530334473

> <i_i_glide_confnum>
11

> <i_i_glide_posenum>
247

> <r_i_glide_eff_state_penalty>
0

> <s_user_duplicate_titles>
CHEMBL301_lig416,341462

> <s_m_subgroup_title>
dock_pv

> <s_m_subgroupid>
dock_pv

> <b_m_subgroup_collapsed>
1

$$$$
CHEMBL301_lig389
                    3D
 Schrodinger Suite 2021-1.
 41 44  0  0  1  0            999 V2000
   -0.3152   27.3519   10.7125 C   0  0  0  0  0  0
    0.8993   26.9047   10.2293 N   0  0  0  0  0  0
   -1.0725   26.1939   10.9045 C   0  0  0  0  0  0
   -0.4294   25.0894   10.6111 N   0  0  0  0  0  0
    0.7962   25.5042   10.2090 C   0  0  0  0  0  0
   -0.6204   28.7077   11.0390 C   0  0  0  0  0  0
    3.0666   26.8240    9.2013 C   0  0  0  0  0  0
    2.0463   27.5470    9.8256 C   0  0  0  0  0  0
   -1.2861   29.6434   10.1136 C   0  0  0  0  0  0
    4.7062   27.1075    7.2157 C   0  0  0  0  0  0
    4.1991   27.5601    8.5426 C   0  0  0  0  0  0
    1.8999   24.7536    9.7773 C   0  0  0  0  0  0
    2.9903   25.4235    9.2118 C   0  0  0  0  0  0
   -0.3417   29.2222   12.5759 S   0  0  0  0  0  0
   -2.6766   29.8525   10.2008 C   0  0  0  0  0  0
   -0.5389   30.4549    9.2434 C   0  0  0  0  0  0
    5.6801   26.1048    7.0968 C   0  0  0  0  0  0
    4.2219   27.7307    6.0515 C   0  0  0  0  0  0
   -2.3418   26.1182   11.3825 N   0  0  0  0  0  0
    4.5764   28.6519    8.9680 O   0  0  0  0  0  0
    0.7799   30.2518    9.0318 F   0  0  0  0  0  0
   -3.4530   29.0539   10.9763 F   0  0  0  0  0  0
    6.1925   25.4827    8.1840 F   0  0  0  0  0  0
    3.2696   28.6948    6.1178 F   0  0  0  0  0  0
   -2.5164   31.7329    8.7116 C   0  0  0  0  0  0
    5.6421   26.3305    4.6884 C   0  0  0  0  0  0
   -1.1458   31.5166    8.5762 C   0  0  0  0  0  0
    4.6869   27.3409    4.7980 C   0  0  0  0  0  0
   -3.2833   30.8883    9.5019 C   0  0  0  0  0  0
    6.1364   25.7180    5.8389 C   0  0  0  0  0  0
    2.0630   28.6192    9.9197 H   0  0  0  0  0  0
    1.8426   23.6768    9.7332 H   0  0  0  0  0  0
    3.7846   24.8366    8.7694 H   0  0  0  0  0  0
   -2.8240   26.9542   11.6793 H   0  0  0  0  0  0
   -2.8727   25.2570   11.3734 H   0  0  0  0  0  0
   -2.9940   32.5426    8.1821 H   0  0  0  0  0  0
    6.0016   26.0259    3.7141 H   0  0  0  0  0  0
   -0.5532   32.1585    7.9457 H   0  0  0  0  0  0
    4.3068   27.8201    3.9087 H   0  0  0  0  0  0
   -4.3453   31.0509    9.5922 H   0  0  0  0  0  0
    6.8824   24.9386    5.7541 H   0  0  0  0  0  0
  1  2  1  0  0  0
  1  3  2  0  0  0
  1  6  1  0  0  0
  2  5  1  0  0  0
  2  8  1  0  0  0
  3  4  1  0  0  0
  3 19  1  0  0  0
  4  5  2  0  0  0
  5 12  1  0  0  0
  6  9  1  0  0  0
  6 14  2  0  0  0
  7  8  2  0  0  0
  7 11  1  0  0  0
  7 13  1  0  0  0
  8 31  1  0  0  0
  9 15  1  0  0  0
  9 16  2  0  0  0
 10 11  1  0  0  0
 10 17  1  0  0  0
 10 18  2  0  0  0
 11 20  2  0  0  0
 12 13  2  0  0  0
 12 32  1  0  0  0
 13 33  1  0  0  0
 15 22  1  0  0  0
 15 29  2  0  0  0
 16 21  1  0  0  0
 16 27  1  0  0  0
 17 23  1  0  0  0
 17 30  2  0  0  0
 18 24  1  0  0  0
 18 28  1  0  0  0
 19 34  1  0  0  0
 19 35  1  0  0  0
 25 27  2  0  0  0
 25 29  1  0  0  0
 25 36  1  0  0  0
 26 28  2  0  0  0
 26 30  1  0  0  0
 26 37  1  0  0  0
 27 38  1  0  0  0
 28 39  1  0  0  0
 29 40  1  0  0  0
 30 41  1  0  0  0
M  END
> <s_m_entry_id>
33000

> <s_m_entry_name>
dock_pv.401

> <s_m_Source_Path>
/home/csk/Desktop/cluster/DUD-E-result/cdk2

> <s_m_Source_File>
dock_pv.maegz

> <i_m_Source_File_Index>
401

> <chembl_id>
CHEMBL186163

> <chembl_pref_name>
None

> <i_lp_mmshare_version>
53161

> <i_f3d_flags>
0

> <r_lp_tautomer_probability>
1

> <s_lp_Force_Field>
OPLS_2005

> <r_lp_Energy>
34.74502

> <b_lp_Chiralities_Consistent>
1

> <s_lp_Variant>
CHEMBL301_lig389-1

> <s_i_glide_gridfile>
glide-grid_1h00

> <i_i_glide_lignum>
573

> <i_i_glide_rotatable_bonds>
4

> <r_i_docking_score>
-7.26278534877985

> <r_i_glide_ligand_efficiency>
-0.242092844959328

> <r_i_glide_ligand_efficiency_sa>
-0.752238756463636

> <r_i_glide_ligand_efficiency_ln>
-1.65018396562732

> <r_i_glide_gscore>
-7.26278534877985

> <r_i_glide_lipo>
-2.53467952495967

> <r_i_glide_hbond>
-0.32

> <r_i_glide_metal>
0

> <r_i_glide_rewards>
-2.50362164339298

> <r_i_glide_evdw>
-35.7768821716309

> <r_i_glide_ecoul>
-3.199782371521

> <r_i_glide_erotb>
0.431118149154175

> <r_i_glide_esite>
-0.0667908652716846

> <r_i_glide_emodel>
-47.0104747393968

> <r_i_glide_energy>
-38.9766645431519

> <r_i_glide_einternal>
8.33192729949951

> <i_i_glide_confnum>
25

> <i_i_glide_posenum>
287

> <r_i_glide_eff_state_penalty>
0

> <s_user_duplicate_titles>
CHEMBL301_lig389,312914

> <s_m_subgroup_title>
dock_pv

> <s_m_subgroupid>
dock_pv

> <b_m_subgroup_collapsed>
1

$$$$
CHEMBL301_lig1395
                    3D
 Schrodinger Suite 2021-1.
 40 41  0  0  1  0            999 V2000
    1.2417   27.4999   10.5915 C   0  0  0  0  0  0
   -0.2917   27.6478   10.6664 C   0  0  1  0  0  0
   -0.8689   26.8068   11.8270 C   0  0  0  0  0  0
   -0.3420   27.2102   13.0793 O   0  0  0  0  0  0
   -0.9361   29.3618   10.6708 S   0  0  0  0  0  0
   -0.2719   30.3566    9.3554 C   0  0  0  0  0  0
    0.7486   29.8517    8.6116 N   0  0  0  0  0  0
    1.3045   30.6643    7.6740 C   0  0  0  0  0  0
    2.3757   30.2172    6.8934 N   0  0  0  0  0  0
    3.2889   29.1659    7.0454 C   0  0  0  0  0  0
    3.8860   28.6341    5.9011 C   0  0  0  0  0  0
    4.8454   27.6283    6.0007 C   0  0  0  0  0  0
    5.2437   27.1828    7.2604 C   0  0  0  0  0  0
    4.6859   27.7546    8.4029 C   0  0  0  0  0  0
    3.6994   28.7267    8.2992 C   0  0  0  0  0  0
    6.4432   25.8617    7.4500 S   0  0  2  0  0  0
    5.5591   24.6195    7.3760 N   0  0  0  0  0  0
    7.3271   26.1790    8.5760 O   0  0  0  0  0  0
    7.4409   25.7198    5.8623 C   0  0  0  0  0  0
    0.9117   31.9362    7.4153 N   0  0  0  0  0  0
   -0.1008   32.4261    8.1761 C   0  0  0  0  0  0
   -0.7428   31.6658    9.1545 C   0  0  0  0  0  0
   -2.1583   32.4432   10.1734 Br  0  0  0  0  0  0
    1.5747   26.5072   10.8961 H   0  0  0  0  0  0
    1.5962   27.6287    9.5728 H   0  0  0  0  0  0
    1.7457   28.2262   11.2295 H   0  0  0  0  0  0
   -0.6918   27.2169    9.7475 H   0  0  0  0  0  0
   -0.6374   25.7513   11.6787 H   0  0  0  0  0  0
   -1.9569   26.8849   11.8584 H   0  0  0  0  0  0
    0.6204   27.2301   13.0195 H   0  0  0  0  0  0
    2.6973   30.9051    6.2277 H   0  0  0  0  0  0
    3.6150   29.0034    4.9297 H   0  0  0  0  0  0
    5.2774   27.2167    5.1015 H   0  0  0  0  0  0
    5.0177   27.4504    9.3760 H   0  0  0  0  0  0
    3.2754   29.1550    9.1932 H   0  0  0  0  0  0
    6.0969   23.7781    7.2410 H   0  0  0  0  0  0
    6.7762   25.5106    5.0257 H   0  0  0  0  0  0
    7.9758   26.6518    5.6976 H   0  0  0  0  0  0
    8.1583   24.9090    5.9754 H   0  0  0  0  0  0
   -0.3965   33.4480    7.9807 H   0  0  0  0  0  0
  1  2  1  0  0  0
  1 24  1  0  0  0
  1 25  1  0  0  0
  1 26  1  0  0  0
  2  3  1  0  0  0
  2  5  1  0  0  0
  2 27  1  0  0  0
  3  4  1  0  0  0
  3 28  1  0  0  0
  3 29  1  0  0  0
  4 30  1  0  0  0
  5  6  1  0  0  0
  6  7  2  0  0  0
  6 22  1  0  0  0
  7  8  1  0  0  0
  8  9  1  0  0  0
  8 20  2  0  0  0
  9 10  1  0  0  0
  9 31  1  0  0  0
 10 11  2  0  0  0
 10 15  1  0  0  0
 11 12  1  0  0  0
 11 32  1  0  0  0
 12 13  2  0  0  0
 12 33  1  0  0  0
 13 14  1  0  0  0
 13 16  1  0  0  0
 14 15  2  0  0  0
 14 34  1  0  0  0
 15 35  1  0  0  0
 16 17  2  0  0  0
 16 18  2  0  0  0
 16 19  1  0  0  0
 17 36  1  0  0  0
 19 37  1  0  0  0
 19 38  1  0  0  0
 19 39  1  0  0  0
 20 21  1  0  0  0
 21 22  2  0  0  0
 21 40  1  0  0  0
 22 23  1  0  0  0
M  END
> <s_m_entry_id>
33001

> <s_m_entry_name>
dock_pv.402

> <s_m_Source_Path>
/home/csk/Desktop/cluster/DUD-E-result/cdk2

> <s_m_Source_File>
dock_pv.maegz

> <i_m_Source_File_Index>
402

> <chembl_id>
CHEMBL3648106

> <chembl_pref_name>
None

> <i_lp_mmshare_version>
53161

> <i_f3d_flags>
0

> <r_lp_tautomer_probability>
0.999999987636

> <s_lp_Force_Field>
OPLS_2005

> <r_lp_Energy>
1.554876

> <b_lp_Chiralities_Consistent>
1

> <s_lp_Variant>
CHEMBL301_lig1395-2

> <s_i_glide_gridfile>
glide-grid_1h00

> <i_i_glide_lignum>
1891

> <i_i_glide_rotatable_bonds>
7

> <r_i_docking_score>
-7.25795646061437

> <r_i_glide_ligand_efficiency>
-0.315563324374538

> <r_i_glide_ligand_efficiency_sa>
-0.897420117302985

> <r_i_glide_ligand_efficiency_ln>
-1.75503968368716

> <r_i_glide_gscore>
-7.25795646061437

> <r_i_glide_lipo>
-2.57906105161591

> <r_i_glide_hbond>
-0.50788466278329

> <r_i_glide_metal>
0

> <r_i_glide_rewards>
-1.58843898535952

> <r_i_glide_evdw>
-39.8458976745605

> <r_i_glide_ecoul>
-7.71757316589355

> <r_i_glide_erotb>
0.567359097756403

> <r_i_glide_esite>
0

> <r_i_glide_emodel>
-67.1153169168784

> <r_i_glide_energy>
-47.5634708404541

> <r_i_glide_einternal>
3.15967869758606

> <i_i_glide_confnum>
35

> <i_i_glide_posenum>
17

> <r_i_glide_eff_state_penalty>
0

> <s_user_duplicate_titles>
CHEMBL301_lig1395

> <s_m_subgroup_title>
dock_pv

> <s_m_subgroupid>
dock_pv

> <b_m_subgroup_collapsed>
1

$$$$
CHEMBL301_lig234
                    3D
 Schrodinger Suite 2021-1.
 41 44  0  0  1  0            999 V2000
    0.8118   27.5720   10.7052 C   0  0  0  0  0  0
    1.8139   26.4616   10.8932 C   0  0  0  0  0  0
    1.3282   28.4095    9.7531 C   0  0  0  0  0  0
   -0.4460   27.8667   11.2455 C   0  0  0  0  0  0
    2.8580   26.8266   10.1162 N   0  0  0  0  0  0
    2.5734   27.9650    9.3760 C   0  0  0  0  0  0
    0.6733   29.5327    9.2121 C   0  0  0  0  0  0
   -0.6209   29.8369    9.7481 C   0  0  0  0  0  0
   -1.1402   28.9914   10.7587 C   0  0  0  0  0  0
   -1.0663   27.0393   12.3202 C   0  0  0  0  0  0
   -0.3420   26.5074   13.3593 N   0  0  0  0  0  0
    1.3881   30.2207    8.1760 C   0  0  0  0  0  0
    1.7521   25.4520   11.5940 O   0  0  0  0  0  0
    3.2646   28.6520    8.3828 C   0  0  0  0  0  0
   -2.3853   26.6520   12.5397 C   0  0  0  0  0  0
   -1.1493   25.7795   14.1926 C   0  0  0  0  0  0
   -2.4368   25.8589   13.6926 C   0  0  0  0  0  0
   -1.3548   30.9198    9.2188 N   0  0  0  0  0  0
    2.6601   29.7655    7.7824 C   0  0  0  0  0  0
    0.8580   31.3024    7.5585 F   0  0  0  0  0  0
   -2.7420   34.6861   12.1760 N   0  0  0  0  0  0
   -2.0267   32.9683   10.5245 C   0  0  0  0  0  0
   -2.4360   31.6097    9.9195 C   0  0  0  0  0  0
   -2.9420   33.3318   11.7037 C   0  0  0  0  0  0
    3.7551   26.3490   10.1361 H   0  0  0  0  0  0
   -2.1136   29.1793   11.1817 H   0  0  0  0  0  0
    0.6602   26.6140   13.4589 H   0  0  0  0  0  0
    4.2413   28.3284    8.0536 H   0  0  0  0  0  0
   -3.2292   26.9069   11.9155 H   0  0  0  0  0  0
   -0.7325   25.2698   15.0467 H   0  0  0  0  0  0
   -3.3212   25.3990   14.1078 H   0  0  0  0  0  0
   -0.8954   31.4418    8.4841 H   0  0  0  0  0  0
    3.1881   30.2712    6.9898 H   0  0  0  0  0  0
   -2.5326   35.2728   11.3787 H   0  0  0  0  0  0
   -3.6190   35.0493   12.5250 H   0  0  0  0  0  0
   -0.9867   32.9618   10.8482 H   0  0  0  0  0  0
   -2.0835   33.7298    9.7466 H   0  0  0  0  0  0
   -3.2681   31.7575    9.2301 H   0  0  0  0  0  0
   -2.8481   30.9794   10.7036 H   0  0  0  0  0  0
   -3.9840   33.2045   11.4179 H   0  0  0  0  0  0
   -2.7420   32.6520   12.5287 H   0  0  0  0  0  0
  1  2  1  0  0  0
  1  3  1  0  0  0
  1  4  2  0  0  0
  2  5  1  0  0  0
  2 13  2  0  0  0
  3  6  1  0  0  0
  3  7  2  0  0  0
  4  9  1  0  0  0
  4 10  1  0  0  0
  5  6  1  0  0  0
  5 25  1  0  0  0
  6 14  2  0  0  0
  7 12  1  0  0  0
  7  8  1  0  0  0
  8  9  2  0  0  0
  8 18  1  0  0  0
  9 26  1  0  0  0
 10 11  1  0  0  0
 10 15  2  0  0  0
 11 16  1  0  0  0
 11 27  1  0  0  0
 12 19  2  0  0  0
 12 20  1  0  0  0
 14 19  1  0  0  0
 14 28  1  0  0  0
 15 17  1  0  0  0
 15 29  1  0  0  0
 16 17  2  0  0  0
 16 30  1  0  0  0
 17 31  1  0  0  0
 18 23  1  0  0  0
 18 32  1  0  0  0
 19 33  1  0  0  0
 21 24  1  0  0  0
 21 34  1  0  0  0
 21 35  1  0  0  0
 22 23  1  0  0  0
 22 24  1  0  0  0
 22 36  1  0  0  0
 22 37  1  0  0  0
 23 38  1  0  0  0
 23 39  1  0  0  0
 24 40  1  0  0  0
 24 41  1  0  0  0
M  END
> <s_m_entry_id>
33002

> <s_m_entry_name>
dock_pv.403

> <s_m_Source_Path>
/home/csk/Desktop/cluster/DUD-E-result/cdk2

> <s_m_Source_File>
dock_pv.maegz

> <i_m_Source_File_Index>
403

> <chembl_id>
CHEMBL81196

> <chembl_pref_name>
None

> <i_lp_mmshare_version>
53161

> <i_f3d_flags>
0

> <r_lp_tautomer_probability>
1

> <s_lp_Force_Field>
OPLS_2005

> <r_lp_Energy>
59.788245

> <b_lp_Chiralities_Consistent>
1

> <s_lp_Variant>
CHEMBL301_lig234-1

> <s_i_glide_gridfile>
glide-grid_1h00

> <i_i_glide_lignum>
376

> <i_i_glide_rotatable_bonds>
5

> <r_i_docking_score>
-7.2546012450133

> <r_i_glide_ligand_efficiency>
-0.302275051875554

> <r_i_glide_ligand_efficiency_sa>
-0.871912126440674

> <r_i_glide_ligand_efficiency_ln>
-1.73635896989129

> <r_i_glide_gscore>
-7.2546012450133

> <r_i_glide_lipo>
-2.52588548532781

> <r_i_glide_hbond>
-0.642161881504891

> <r_i_glide_metal>
0

> <r_i_glide_rewards>
-1.75811983538414

> <r_i_glide_evdw>
-33.240406036377

> <r_i_glide_ecoul>
-8.72747325897217

> <r_i_glide_erotb>
0.712004616951739

> <r_i_glide_esite>
-0.0692973690835327

> <r_i_glide_emodel>
-57.5332490389672

> <r_i_glide_energy>
-41.9678792953491

> <r_i_glide_einternal>
3.58146810531616

> <i_i_glide_confnum>
82

> <i_i_glide_posenum>
292

> <r_i_glide_eff_state_penalty>
0

> <s_user_duplicate_titles>
CHEMBL301_lig234,130965

> <s_m_subgroup_title>
dock_pv

> <s_m_subgroupid>
dock_pv

> <b_m_subgroup_collapsed>
1

$$$$
CHEMBL301_lig963
                    3D
 Schrodinger Suite 2021-1.
 55 59  0  0  1  0            999 V2000
    1.5972   31.3102    7.3760 C   0  0  0  0  0  0
    0.5626   32.1703    7.7341 C   0  0  0  0  0  0
   -0.4382   31.8576    8.5814 N   0  0  0  0  0  0
    1.7305   30.0612    8.0033 C   0  0  0  0  0  0
    0.7085   29.6902    8.9382 C   0  0  0  0  0  0
   -0.3421   30.6500    9.1451 C   0  0  0  0  0  0
   -1.2619   30.1180   10.0238 N   0  0  0  0  0  0
   -0.8013   28.8912   10.4185 C   0  0  0  0  0  0
    0.3751   28.5380    9.7735 C   0  0  0  0  0  0
    1.0516   27.2499    9.9037 C   0  0  0  0  0  0
    0.7885   26.2454   10.7666 C   0  0  0  0  0  0
   -0.2126   26.2792   11.6830 O   0  0  0  0  0  0
    1.4896   24.9591   10.8505 C   0  0  0  0  0  0
    0.7552   24.2282   11.8837 C   0  0  0  0  0  0
   -0.2317   25.0791   12.3256 C   0  0  0  0  0  0
   -1.1417   24.7099   13.3117 C   0  0  0  0  0  0
   -1.0413   23.4261   13.8559 C   0  0  0  0  0  0
   -0.0422   22.5479   13.4162 C   0  0  0  0  0  0
    0.8659   22.9477   12.4294 C   0  0  0  0  0  0
    1.8386   22.0820   12.0054 O   0  0  0  0  0  0
    2.4580   24.6104   10.1756 O   0  0  0  0  0  0
   -2.4741   30.7563   10.5163 C   0  0  0  0  0  0
    2.9025   29.2081    7.6320 C   0  0  0  0  0  0
    3.6786   28.5551    8.5920 C   0  0  0  0  0  0
    4.6984   27.6873    8.2173 C   0  0  0  0  0  0
    4.9853   27.4619    6.8727 C   0  0  0  0  0  0
    4.2842   28.1917    5.9035 C   0  0  0  0  0  0
    3.2580   29.0520    6.2854 C   0  0  0  0  0  0
    6.0178   26.4237    6.5037 C   0  0  0  0  0  0
    5.8298   25.8263    5.3183 N   0  0  0  0  0  0
    6.9272   26.1149    7.2770 O   0  0  0  0  0  0
    6.6324   24.7317    4.7815 C   0  0  0  0  0  0
    6.1682   24.3156    3.3752 C   0  0  0  0  0  0
    4.7872   24.0018    3.3760 O   0  0  0  0  0  0
    2.3405   31.6388    6.6645 H   0  0  0  0  0  0
    0.4940   33.1502    7.2839 H   0  0  0  0  0  0
   -1.3894   28.3279   11.1289 H   0  0  0  0  0  0
    1.8480   27.0858    9.2013 H   0  0  0  0  0  0
   -1.9147   25.3886   13.6409 H   0  0  0  0  0  0
   -1.7417   23.1072   14.6130 H   0  0  0  0  0  0
    0.0179   21.5567   13.8417 H   0  0  0  0  0  0
    1.6906   21.1938   12.3380 H   0  0  0  0  0  0
   -3.0042   31.2247    9.6864 H   0  0  0  0  0  0
   -3.1310   30.0162   10.9751 H   0  0  0  0  0  0
   -2.2153   31.5161   11.2530 H   0  0  0  0  0  0
    3.4587   28.6538    9.6445 H   0  0  0  0  0  0
    5.2417   27.1473    8.9761 H   0  0  0  0  0  0
    4.5073   28.0833    4.8519 H   0  0  0  0  0  0
    2.7168   29.5810    5.5170 H   0  0  0  0  0  0
    4.9964   26.0495    4.7957 H   0  0  0  0  0  0
    7.6804   25.0347    4.7360 H   0  0  0  0  0  0
    6.5984   23.8696    5.4504 H   0  0  0  0  0  0
    6.2896   25.1519    2.6847 H   0  0  0  0  0  0
    6.7445   23.4738    2.9901 H   0  0  0  0  0  0
    4.4580   24.1265    2.4628 H   0  0  0  0  0  0
  1  2  1  0  0  0
  1  4  2  0  0  0
  1 35  1  0  0  0
  2  3  2  0  0  0
  2 36  1  0  0  0
  3  6  1  0  0  0
  4  5  1  0  0  0
  4 23  1  0  0  0
  5  9  1  0  0  0
  5  6  2  0  0  0
  6  7  1  0  0  0
  7  8  1  0  0  0
  7 22  1  0  0  0
  8  9  2  0  0  0
  8 37  1  0  0  0
  9 10  1  0  0  0
 10 11  2  0  0  0
 10 38  1  0  0  0
 11 12  1  0  0  0
 11 13  1  0  0  0
 12 15  1  0  0  0
 13 21  2  0  0  0
 13 14  1  0  0  0
 14 19  1  0  0  0
 14 15  2  0  0  0
 15 16  1  0  0  0
 16 17  2  0  0  0
 16 39  1  0  0  0
 17 18  1  0  0  0
 17 40  1  0  0  0
 18 19  2  0  0  0
 18 41  1  0  0  0
 19 20  1  0  0  0
 20 42  1  0  0  0
 22 43  1  0  0  0
 22 44  1  0  0  0
 22 45  1  0  0  0
 23 24  2  0  0  0
 23 28  1  0  0  0
 24 25  1  0  0  0
 24 46  1  0  0  0
 25 26  2  0  0  0
 25 47  1  0  0  0
 26 27  1  0  0  0
 26 29  1  0  0  0
 27 28  2  0  0  0
 27 48  1  0  0  0
 28 49  1  0  0  0
 29 30  1  0  0  0
 29 31  2  0  0  0
 30 32  1  0  0  0
 30 50  1  0  0  0
 32 33  1  0  0  0
 32 51  1  0  0  0
 32 52  1  0  0  0
 33 34  1  0  0  0
 33 53  1  0  0  0
 33 54  1  0  0  0
 34 55  1  0  0  0
M  END
> <s_m_entry_id>
33003

> <s_m_entry_name>
dock_pv.404

> <s_m_Source_Path>
/home/csk/Desktop/cluster/DUD-E-result/cdk2

> <s_m_Source_File>
dock_pv.maegz

> <i_m_Source_File_Index>
404

> <chembl_id>
CHEMBL1092754

> <chembl_pref_name>
None

> <i_lp_mmshare_version>
53161

> <i_f3d_flags>
0

> <r_lp_tautomer_probability>
1

> <s_lp_Force_Field>
OPLS_2005

> <r_lp_Energy>
37.259768

> <b_lp_Chiralities_Consistent>
1

> <s_lp_Variant>
CHEMBL301_lig963-1

> <s_i_glide_gridfile>
glide-grid_1h00

> <i_i_glide_lignum>
1357

> <i_i_glide_rotatable_bonds>
8

> <r_i_docking_score>
-7.25276759033363

> <r_i_glide_ligand_efficiency>
-0.213316693833342

> <r_i_glide_ligand_efficiency_sa>
-0.691063277939678

> <r_i_glide_ligand_efficiency_ln>
-1.60233979394487

> <r_i_glide_gscore>
-7.25276759033363

> <r_i_glide_lipo>
-3.20723820518592

> <r_i_glide_hbond>
-0.16

> <r_i_glide_metal>
0

> <r_i_glide_rewards>
-1.22560934806508

> <r_i_glide_evdw>
-43.7991485595703

> <r_i_glide_ecoul>
-7.00672626495361

> <r_i_glide_erotb>
0.581046330638931

> <r_i_glide_esite>
0

> <r_i_glide_emodel>
-71.7604518824986

> <r_i_glide_energy>
-50.8058748245239

> <r_i_glide_einternal>
3.80978751182556

> <i_i_glide_confnum>
24

> <i_i_glide_posenum>
218

> <r_i_glide_eff_state_penalty>
0

> <s_user_duplicate_titles>
CHEMBL301_lig963,620576

> <s_m_subgroup_title>
dock_pv

> <s_m_subgroupid>
dock_pv

> <b_m_subgroup_collapsed>
1

$$$$
CHEMBL301_lig1402
                    3D
 Schrodinger Suite 2021-1.
 46 47  0  0  1  0            999 V2000
   -1.8899   25.6140   11.0686 C   0  0  0  0  0  0
   -1.1418   26.1118    9.8255 C   0  0  0  0  0  0
   -0.1606   27.2768   10.0746 C   0  0  1  0  0  0
   -0.9951   28.8750   10.4242 S   0  0  0  0  0  0
   -0.2852   30.1081    9.3501 C   0  0  0  0  0  0
    0.8186   29.7533    8.6456 N   0  0  0  0  0  0
    1.3475   30.6418    7.7760 C   0  0  0  0  0  0
    2.4578   30.2514    7.0087 N   0  0  0  0  0  0
    3.2831   29.1064    7.0237 C   0  0  0  0  0  0
    3.5864   28.3923    8.1761 C   0  0  0  0  0  0
    4.4580   27.3085    8.1120 C   0  0  0  0  0  0
    5.0863   26.9599    6.9218 C   0  0  0  0  0  0
    4.7893   27.6646    5.7612 C   0  0  0  0  0  0
    3.8910   28.7219    5.8329 C   0  0  0  0  0  0
    6.2933   25.6358    6.9401 S   0  0  2  0  0  0
    5.4153   24.3963    6.7813 N   0  0  0  0  0  0
    7.2126   25.8520    8.0620 O   0  0  0  0  0  0
    7.2326   25.6810    5.3108 C   0  0  0  0  0  0
    0.8580   31.8936    7.5723 N   0  0  0  0  0  0
   -0.2302   32.2530    8.3090 C   0  0  0  0  0  0
   -0.8542   31.3822    9.2078 C   0  0  0  0  0  0
   -2.3955   31.9536   10.1759 Br  0  0  0  0  0  0
    0.9753   26.9009   11.0643 C   0  0  1  0  0  0
    1.6669   25.5461   10.8140 C   0  0  0  0  0  0
    2.0001   27.8519   10.9760 O   0  0  0  0  0  0
   -2.3420   24.6520   10.8467 H   0  0  0  0  0  0
   -1.2293   25.4558   11.9199 H   0  0  0  0  0  0
   -2.6741   26.3071   11.3756 H   0  0  0  0  0  0
   -1.8608   26.4057    9.0665 H   0  0  0  0  0  0
   -0.6068   25.2746    9.3761 H   0  0  0  0  0  0
    0.3174   27.4520    9.1185 H   0  0  0  0  0  0
    2.8103   30.9805    6.4050 H   0  0  0  0  0  0
    3.1660   28.6904    9.1162 H   0  0  0  0  0  0
    4.6564   26.7231    8.9760 H   0  0  0  0  0  0
    5.2635   27.4325    4.8204 H   0  0  0  0  0  0
    3.7118   29.3185    4.9760 H   0  0  0  0  0  0
    5.9549   23.5621    6.6108 H   0  0  0  0  0  0
    6.5393   25.5155    4.4874 H   0  0  0  0  0  0
    7.7169   26.6518    5.2133 H   0  0  0  0  0  0
    7.9874   24.8969    5.3250 H   0  0  0  0  0  0
   -0.5997   33.2596    8.1753 H   0  0  0  0  0  0
    0.5885   26.9262   12.0842 H   0  0  0  0  0  0
    0.9944   24.7094   10.9990 H   0  0  0  0  0  0
    2.5291   25.4120   11.4696 H   0  0  0  0  0  0
    2.0227   25.4666    9.7853 H   0  0  0  0  0  0
    2.4580   27.8519   11.8314 H   0  0  0  0  0  0
  1  2  1  0  0  0
  1 26  1  0  0  0
  1 27  1  0  0  0
  1 28  1  0  0  0
  2  3  1  0  0  0
  2 29  1  0  0  0
  2 30  1  0  0  0
  3  4  1  0  0  0
  3 23  1  0  0  0
  3 31  1  0  0  0
  4  5  1  0  0  0
  5  6  2  0  0  0
  5 21  1  0  0  0
  6  7  1  0  0  0
  7  8  1  0  0  0
  7 19  2  0  0  0
  8  9  1  0  0  0
  8 32  1  0  0  0
  9 10  2  0  0  0
  9 14  1  0  0  0
 10 11  1  0  0  0
 10 33  1  0  0  0
 11 12  2  0  0  0
 11 34  1  0  0  0
 12 13  1  0  0  0
 12 15  1  0  0  0
 13 14  2  0  0  0
 13 35  1  0  0  0
 14 36  1  0  0  0
 15 16  2  0  0  0
 15 17  2  0  0  0
 15 18  1  0  0  0
 16 37  1  0  0  0
 18 38  1  0  0  0
 18 39  1  0  0  0
 18 40  1  0  0  0
 19 20  1  0  0  0
 20 21  2  0  0  0
 20 41  1  0  0  0
 21 22  1  0  0  0
 23 24  1  0  0  0
 23 25  1  0  0  0
 23 42  1  0  0  0
 24 43  1  0  0  0
 24 44  1  0  0  0
 24 45  1  0  0  0
 25 46  1  0  0  0
M  END
> <s_m_entry_id>
33004

> <s_m_entry_name>
dock_pv.405

> <s_m_Source_Path>
/home/csk/Desktop/cluster/DUD-E-result/cdk2

> <s_m_Source_File>
dock_pv.maegz

> <i_m_Source_File_Index>
405

> <chembl_id>
CHEMBL3648103

> <chembl_pref_name>
None

> <i_lp_mmshare_version>
53161

> <i_f3d_flags>
0

> <r_lp_tautomer_probability>
0.999999987636

> <s_lp_Force_Field>
OPLS_2005

> <r_lp_Energy>
5.958695

> <b_lp_Chiralities_Consistent>
1

> <s_lp_Variant>
CHEMBL301_lig1402-6

> <s_i_glide_gridfile>
glide-grid_1h00

> <i_i_glide_lignum>
1909

> <i_i_glide_rotatable_bonds>
8

> <r_i_docking_score>
-7.25135336445914

> <r_i_glide_ligand_efficiency>
-0.290054134578365

> <r_i_glide_ligand_efficiency_sa>
-0.848123433639121

> <r_i_glide_ligand_efficiency_ln>
-1.71878805290167

> <r_i_glide_gscore>
-7.25135336445914

> <r_i_glide_lipo>
-2.74625934099862

> <r_i_glide_hbond>
-0.496506470772234

> <r_i_glide_metal>
0

> <r_i_glide_rewards>
-1.29059312755182

> <r_i_glide_evdw>
-35.9695053100586

> <r_i_glide_ecoul>
-9.49199295043945

> <r_i_glide_erotb>
0.504279782932378

> <r_i_glide_esite>
0

> <r_i_glide_emodel>
-61.9200763527474

> <r_i_glide_energy>
-45.461498260498

> <r_i_glide_einternal>
5.4852991104126

> <i_i_glide_confnum>
12

> <i_i_glide_posenum>
10

> <r_i_glide_eff_state_penalty>
0

> <s_user_duplicate_titles>
CHEMBL301_lig1402

> <s_m_subgroup_title>
dock_pv

> <s_m_subgroupid>
dock_pv

> <b_m_subgroup_collapsed>
1

$$$$
CHEMBL301_lig469
                    3D
 Schrodinger Suite 2021-1.
 34 36  0  0  1  0            999 V2000
    0.5700   21.8046   14.1195 O   0  0  0  0  0  0
   -0.7417   22.3729   14.4401 S   0  0  0  0  0  0
   -1.1497   22.6258   15.8270 O   0  0  0  0  0  0
   -1.9424   21.3325   13.7265 N   0  0  0  0  0  0
   -0.8942   23.9258   13.5627 C   0  0  0  0  0  0
    0.0294   24.2806   12.5764 C   0  0  0  0  0  0
   -0.0948   25.5032   11.9202 C   0  0  0  0  0  0
   -1.1441   26.3709   12.2422 C   0  0  0  0  0  0
   -2.0616   26.0102   13.2327 C   0  0  0  0  0  0
   -1.9387   24.7911   13.8909 C   0  0  0  0  0  0
   -1.3115   27.6756   11.5397 C   0  0  0  0  0  0
   -0.3513   28.0536   10.6539 O   0  0  0  0  0  0
   -2.2907   28.6551   11.5719 C   0  0  0  0  0  0
   -1.9080   29.6494   10.6765 C   0  0  0  0  0  0
   -0.7022   29.2548   10.1186 C   0  0  0  0  0  0
    0.1396   29.8651    9.1102 C   0  0  0  0  0  0
    1.3934   29.5253    8.7381 C   0  0  0  0  0  0
    2.4575   28.2519    9.3736 S   0  0  0  0  0  0
    3.7180   28.6568    8.1813 C   0  0  0  0  0  0
    4.8086   28.0314    8.1167 N   0  0  0  0  0  0
    3.2579   29.6869    7.4565 N   0  0  0  0  0  0
    2.0579   30.2314    7.6689 C   0  0  0  0  0  0
    1.6308   31.1827    7.0135 O   0  0  0  0  0  0
   -1.5565   20.4863   13.2879 H   0  0  0  0  0  0
   -2.7333   21.1224   14.3376 H   0  0  0  0  0  0
    0.8447   23.6197   12.3193 H   0  0  0  0  0  0
    0.6261   25.7734   11.1612 H   0  0  0  0  0  0
   -2.8741   26.6731   13.4959 H   0  0  0  0  0  0
   -2.6559   24.5224   14.6523 H   0  0  0  0  0  0
   -3.1838   28.6514   12.1759 H   0  0  0  0  0  0
   -2.4540   30.5571   10.4631 H   0  0  0  0  0  0
   -0.3494   30.6994    8.6241 H   0  0  0  0  0  0
    5.4219   28.3727    7.3907 H   0  0  0  0  0  0
    3.8401   30.1086    6.7415 H   0  0  0  0  0  0
  1  2  2  0  0  0
  2  3  2  0  0  0
  2  4  1  0  0  0
  2  5  1  0  0  0
  4 24  1  0  0  0
  4 25  1  0  0  0
  5  6  2  0  0  0
  5 10  1  0  0  0
  6  7  1  0  0  0
  6 26  1  0  0  0
  7  8  2  0  0  0
  7 27  1  0  0  0
  8  9  1  0  0  0
  8 11  1  0  0  0
  9 10  2  0  0  0
  9 28  1  0  0  0
 10 29  1  0  0  0
 11 12  1  0  0  0
 11 13  2  0  0  0
 12 15  1  0  0  0
 13 14  1  0  0  0
 13 30  1  0  0  0
 14 15  2  0  0  0
 14 31  1  0  0  0
 15 16  1  0  0  0
 16 17  2  0  0  0
 16 32  1  0  0  0
 17 18  1  0  0  0
 17 22  1  0  0  0
 18 19  1  0  0  0
 19 20  2  0  0  0
 19 21  1  0  0  0
 20 33  1  0  0  0
 21 22  1  0  0  0
 21 34  1  0  0  0
 22 23  2  0  0  0
M  END
> <s_m_entry_id>
33005

> <s_m_entry_name>
dock_pv.406

> <s_m_Source_Path>
/home/csk/Desktop/cluster/DUD-E-result/cdk2

> <s_m_Source_File>
dock_pv.maegz

> <i_m_Source_File_Index>
406

> <chembl_id>
CHEMBL233149

> <chembl_pref_name>
None

> <i_lp_mmshare_version>
53161

> <i_f3d_flags>
0

> <r_lp_tautomer_probability>
1

> <s_lp_Force_Field>
OPLS_2005

> <r_lp_Energy>
12.507465

> <b_lp_Chiralities_Consistent>
1

> <s_lp_Variant>
CHEMBL301_lig469-1

> <s_i_glide_gridfile>
glide-grid_1h00

> <i_i_glide_lignum>
660

> <i_i_glide_rotatable_bonds>
3

> <r_i_docking_score>
-7.2503380470074

> <r_i_glide_ligand_efficiency>
-0.315232089000322

> <r_i_glide_ligand_efficiency_sa>
-0.896478127960677

> <r_i_glide_ligand_efficiency_ln>
-1.75319748219704

> <r_i_glide_gscore>
-7.2503380470074

> <r_i_glide_lipo>
-1.41314170031756

> <r_i_glide_hbond>
-0.357654723130609

> <r_i_glide_metal>
0

> <r_i_glide_rewards>
-2.48006357293131

> <r_i_glide_evdw>
-36.4963455200195

> <r_i_glide_ecoul>
-8.90067005157471

> <r_i_glide_erotb>
0.312082335184892

> <r_i_glide_esite>
-0.151642602075633

> <r_i_glide_emodel>
-65.6272489455248

> <r_i_glide_energy>
-45.3970155715942

> <r_i_glide_einternal>
0.388062357902527

> <i_i_glide_confnum>
1

> <i_i_glide_posenum>
226

> <r_i_glide_eff_state_penalty>
0

> <s_user_duplicate_titles>
CHEMBL301_lig469,396931

> <s_m_subgroup_title>
dock_pv

> <s_m_subgroupid>
dock_pv

> <b_m_subgroup_collapsed>
1

$$$$
CHEMBL301_lig1383
                    3D
 Schrodinger Suite 2021-1.
 48 49  0  0  1  0            999 V2000
    5.0563   27.3323    3.5933 C   0  0  0  0  0  0
    5.1250   26.7288    4.8774 O   0  0  0  0  0  0
    4.7139   27.4346    5.9880 C   0  0  0  0  0  0
    3.7806   28.4812    5.9197 C   0  0  0  0  0  0
    3.2926   29.0957    7.0707 C   0  0  0  0  0  0
    2.4417   30.1977    6.9249 N   0  0  0  0  0  0
    1.3720   30.6709    7.6885 C   0  0  0  0  0  0
    1.0133   31.9552    7.4399 N   0  0  0  0  0  0
   -0.0189   32.4467    8.1759 C   0  0  0  0  0  0
   -0.7420   31.6620    9.0741 C   0  0  0  0  0  0
   -2.2178   32.4130   10.0240 Br  0  0  0  0  0  0
   -0.3193   30.3360    9.2459 C   0  0  0  0  0  0
   -1.0107   29.5067   10.1414 N   0  0  0  0  0  0
   -0.3310   28.4981   10.9636 C   0  0  2  0  0  0
   -0.0268   27.2057   10.1789 C   0  0  0  0  0  0
   -1.1264   28.2543   12.2752 C   0  0  1  0  0  0
   -0.5914   27.1518   13.2053 C   0  0  0  0  0  0
   -1.1421   29.4522   13.0223 O   0  0  0  0  0  0
    0.7621   29.8496    8.5787 N   0  0  0  0  0  0
    3.7507   28.6757    8.3141 C   0  0  0  0  0  0
    4.7384   27.7009    8.3948 C   0  0  0  0  0  0
    5.2213   27.0690    7.2429 C   0  0  0  0  0  0
    6.4757   25.7926    7.4430 S   0  0  2  0  0  0
    5.6487   24.5097    7.3757 N   0  0  0  0  0  0
    7.3303   26.1553    8.5760 O   0  0  0  0  0  0
    7.5456   25.6586    5.8988 C   0  0  0  0  0  0
    5.4891   26.6532    2.8586 H   0  0  0  0  0  0
    4.0301   27.5315    3.2823 H   0  0  0  0  0  0
    5.6405   28.2522    3.5718 H   0  0  0  0  0  0
    3.3964   28.8144    4.9757 H   0  0  0  0  0  0
    2.8134   30.8886    6.2885 H   0  0  0  0  0  0
   -0.2900   33.4769    7.9956 H   0  0  0  0  0  0
   -1.7353   29.9974   10.6471 H   0  0  0  0  0  0
    0.6397   28.9097   11.2514 H   0  0  0  0  0  0
    0.4463   26.4484   10.8018 H   0  0  0  0  0  0
   -0.9289   26.7728    9.7461 H   0  0  0  0  0  0
    0.6785   27.3988    9.3760 H   0  0  0  0  0  0
   -2.1600   28.0087   12.0212 H   0  0  0  0  0  0
   -0.6826   26.1649   12.7526 H   0  0  0  0  0  0
   -1.1454   27.1218   14.1447 H   0  0  0  0  0  0
    0.4580   27.3139   13.4460 H   0  0  0  0  0  0
   -2.0103   29.5173   13.4432 H   0  0  0  0  0  0
    3.3758   29.1301    9.2166 H   0  0  0  0  0  0
    5.1251   27.4520    9.3703 H   0  0  0  0  0  0
    6.2234   23.6899    7.2633 H   0  0  0  0  0  0
    6.9794   25.1953    5.0933 H   0  0  0  0  0  0
    7.8764   26.6520    5.6086 H   0  0  0  0  0  0
    8.4108   25.0423    6.1349 H   0  0  0  0  0  0
  1  2  1  0  0  0
  1 27  1  0  0  0
  1 28  1  0  0  0
  1 29  1  0  0  0
  2  3  1  0  0  0
  3  4  2  0  0  0
  3 22  1  0  0  0
  4  5  1  0  0  0
  4 30  1  0  0  0
  5  6  1  0  0  0
  5 20  2  0  0  0
  6  7  1  0  0  0
  6 31  1  0  0  0
  7  8  2  0  0  0
  7 19  1  0  0  0
  8  9  1  0  0  0
  9 10  2  0  0  0
  9 32  1  0  0  0
 10 11  1  0  0  0
 10 12  1  0  0  0
 12 13  1  0  0  0
 12 19  2  0  0  0
 13 14  1  0  0  0
 13 33  1  0  0  0
 14 15  1  0  0  0
 14 16  1  0  0  0
 14 34  1  0  0  0
 15 35  1  0  0  0
 15 36  1  0  0  0
 15 37  1  0  0  0
 16 17  1  0  0  0
 16 18  1  0  0  0
 16 38  1  0  0  0
 17 39  1  0  0  0
 17 40  1  0  0  0
 17 41  1  0  0  0
 18 42  1  0  0  0
 20 21  1  0  0  0
 20 43  1  0  0  0
 21 22  2  0  0  0
 21 44  1  0  0  0
 22 23  1  0  0  0
 23 24  2  0  0  0
 23 25  2  0  0  0
 23 26  1  0  0  0
 24 45  1  0  0  0
 26 46  1  0  0  0
 26 47  1  0  0  0
 26 48  1  0  0  0
M  END
> <s_m_entry_id>
33006

> <s_m_entry_name>
dock_pv.407

> <s_m_Source_Path>
/home/csk/Desktop/cluster/DUD-E-result/cdk2

> <s_m_Source_File>
dock_pv.maegz

> <i_m_Source_File_Index>
407

> <chembl_id>
CHEMBL3648111

> <chembl_pref_name>
None

> <i_lp_mmshare_version>
53161

> <i_f3d_flags>
0

> <r_lp_tautomer_probability>
0.999999624730965

> <s_lp_Force_Field>
OPLS_2005

> <r_lp_Energy>
14.418712

> <b_lp_Chiralities_Consistent>
1

> <s_lp_Variant>
CHEMBL301_lig1383-1

> <s_i_glide_gridfile>
glide-grid_1h00

> <i_i_glide_lignum>
1864

> <i_i_glide_rotatable_bonds>
8

> <r_i_docking_score>
-7.24699282150583

> <r_i_glide_ligand_efficiency>
-0.27873049313484

> <r_i_glide_ligand_efficiency_sa>
-0.825737989160432

> <r_i_glide_ligand_efficiency_ln>
-1.70193248480767

> <r_i_glide_gscore>
-7.24699282150583

> <r_i_glide_lipo>
-2.83828280819256

> <r_i_glide_hbond>
-0.417019629997094

> <r_i_glide_metal>
0

> <r_i_glide_rewards>
-1.29026883751967

> <r_i_glide_evdw>
-41.950740814209

> <r_i_glide_ecoul>
-7.4022331237793

> <r_i_glide_erotb>
0.506450463480838

> <r_i_glide_esite>
0

> <r_i_glide_emodel>
-68.4586406651276

> <r_i_glide_energy>
-49.3529739379883

> <r_i_glide_einternal>
6.18551540374756

> <i_i_glide_confnum>
1

> <i_i_glide_posenum>
230

> <r_i_glide_eff_state_penalty>
0

> <s_user_duplicate_titles>
CHEMBL301_lig1383

> <s_m_subgroup_title>
dock_pv

> <s_m_subgroupid>
dock_pv

> <b_m_subgroup_collapsed>
1

$$$$
CHEMBL301_lig1504
                    3D
 Schrodinger Suite 2021-1.
 56 59  0  0  1  0            999 V2000
   -0.0943   19.9935   15.8683 C   0  0  0  0  0  0
   -1.1767   21.5125   15.6791 S   0  0  2  0  0  0
   -0.1675   22.6531   15.7893 N   0  0  0  0  0  0
   -2.3432   21.4003   16.5565 O   0  0  0  0  0  0
   -1.7261   21.5566   13.8670 C   0  0  0  0  0  0
   -0.6061   21.7990   12.8595 C   0  0  0  0  0  0
    0.2031   20.7428   12.4345 C   0  0  0  0  0  0
    1.1976   20.9582   11.4815 C   0  0  0  0  0  0
    1.3917   22.2340   10.9528 C   0  0  0  0  0  0
    0.6025   23.3070   11.3755 C   0  0  0  0  0  0
    0.8246   24.5531   10.7659 N   0  0  0  0  0  0
    0.4894   25.8679   11.1167 C   0  0  0  0  0  0
   -0.0778   26.1237   12.3273 N   0  0  0  0  0  0
   -0.3437   27.4224   12.6159 C   0  0  0  0  0  0
   -0.0440   28.4580   11.7333 C   0  0  0  0  0  0
   -0.3024   29.7416   12.0741 F   0  0  0  0  0  0
    0.5285   28.1098   10.4988 C   0  0  0  0  0  0
    0.7948   26.8092   10.1857 N   0  0  0  0  0  0
    0.8281   29.1224    9.4459 C   0  0  0  0  0  0
   -0.1623   30.0627    9.1283 C   0  0  0  0  0  0
    0.0590   31.0449    8.1704 C   0  0  0  0  0  0
    1.2685   31.0765    7.4855 C   0  0  0  0  0  0
    1.5164   32.0442    6.5763 F   0  0  0  0  0  0
    2.2598   30.1481    7.7762 C   0  0  0  0  0  0
    2.0700   29.1752    8.7724 C   0  0  0  0  0  0
    3.0579   28.2757    9.1462 O   0  0  0  0  0  0
    4.3706   28.3259    8.5762 C   0  0  0  0  0  0
    4.4579   27.4089    7.3704 C   0  0  0  0  0  0
    4.4587   26.0247    7.5686 C   0  0  0  0  0  0
    4.5022   25.1668    6.4717 C   0  0  0  0  0  0
    4.5397   25.6955    5.1844 C   0  0  0  0  0  0
    4.5725   24.8573    4.1232 F   0  0  0  0  0  0
    4.5459   27.0753    4.9821 C   0  0  0  0  0  0
    4.5074   27.9368    6.0765 C   0  0  0  0  0  0
   -0.4014   23.0770   12.3269 C   0  0  0  0  0  0
    0.7529   20.0729   15.1916 H   0  0  0  0  0  0
    0.2423   19.9329   16.9009 H   0  0  0  0  0  0
   -0.6876   19.1139   15.6158 H   0  0  0  0  0  0
   -0.0940   23.1853   14.9303 H   0  0  0  0  0  0
   -2.4819   22.3377   13.7974 H   0  0  0  0  0  0
   -2.2206   20.6070   13.6618 H   0  0  0  0  0  0
    0.0540   19.7423   12.8205 H   0  0  0  0  0  0
    1.8059   20.1309   11.1449 H   0  0  0  0  0  0
    2.1484   22.3800   10.1952 H   0  0  0  0  0  0
    1.2856   24.5067    9.8699 H   0  0  0  0  0  0
   -0.7959   27.6289   13.5742 H   0  0  0  0  0  0
   -1.1156   30.0447    9.6405 H   0  0  0  0  0  0
   -0.7024   31.7781    7.9556 H   0  0  0  0  0  0
    3.1859   30.2366    7.2314 H   0  0  0  0  0  0
    5.0594   27.9412    9.3288 H   0  0  0  0  0  0
    4.7358   29.3331    8.3705 H   0  0  0  0  0  0
    4.4142   25.6190    8.5698 H   0  0  0  0  0  0
    4.4981   24.0965    6.6133 H   0  0  0  0  0  0
    4.5844   27.4711    3.9794 H   0  0  0  0  0  0
    4.5186   29.0074    5.9158 H   0  0  0  0  0  0
   -1.0566   23.8755   12.6314 H   0  0  0  0  0  0
  1  2  1  0  0  0
  1 36  1  0  0  0
  1 37  1  0  0  0
  1 38  1  0  0  0
  2  3  2  0  0  0
  2  4  2  0  0  0
  2  5  1  0  0  0
  3 39  1  0  0  0
  5  6  1  0  0  0
  5 40  1  0  0  0
  5 41  1  0  0  0
  6  7  2  0  0  0
  6 35  1  0  0  0
  7  8  1  0  0  0
  7 42  1  0  0  0
  8  9  2  0  0  0
  8 43  1  0  0  0
  9 10  1  0  0  0
  9 44  1  0  0  0
 10 11  1  0  0  0
 10 35  2  0  0  0
 11 12  1  0  0  0
 11 45  1  0  0  0
 12 13  2  0  0  0
 12 18  1  0  0  0
 13 14  1  0  0  0
 14 15  2  0  0  0
 14 46  1  0  0  0
 15 16  1  0  0  0
 15 17  1  0  0  0
 17 18  2  0  0  0
 17 19  1  0  0  0
 19 20  2  0  0  0
 19 25  1  0  0  0
 20 21  1  0  0  0
 20 47  1  0  0  0
 21 22  2  0  0  0
 21 48  1  0  0  0
 22 23  1  0  0  0
 22 24  1  0  0  0
 24 25  2  0  0  0
 24 49  1  0  0  0
 25 26  1  0  0  0
 26 27  1  0  0  0
 27 28  1  0  0  0
 27 50  1  0  0  0
 27 51  1  0  0  0
 28 29  2  0  0  0
 28 34  1  0  0  0
 29 30  1  0  0  0
 29 52  1  0  0  0
 30 31  2  0  0  0
 30 53  1  0  0  0
 31 32  1  0  0  0
 31 33  1  0  0  0
 33 34  2  0  0  0
 33 54  1  0  0  0
 34 55  1  0  0  0
 35 56  1  0  0  0
M  END
> <s_m_entry_id>
33007

> <s_m_entry_name>
dock_pv.408

> <s_m_Source_Path>
/home/csk/Desktop/cluster/DUD-E-result/cdk2

> <s_m_Source_File>
dock_pv.maegz

> <i_m_Source_File_Index>
408

> <chembl_id>
CHEMBL3892881

> <chembl_pref_name>
None

> <i_lp_mmshare_version>
53161

> <i_f3d_flags>
0

> <r_lp_tautomer_probability>
0.999999987636

> <s_lp_Force_Field>
OPLS_2005

> <r_lp_Energy>
15.628215

> <b_lp_Chiralities_Consistent>
1

> <s_lp_Variant>
CHEMBL301_lig1504-2

> <s_i_glide_gridfile>
glide-grid_1h00

> <i_i_glide_lignum>
2049

> <i_i_glide_rotatable_bonds>
8

> <r_i_docking_score>
-7.2410860549178

> <r_i_glide_ligand_efficiency>
-0.206888172997651

> <r_i_glide_ligand_efficiency_sa>
-0.676744931867065

> <r_i_glide_ligand_efficiency_ln>
-1.58957909630077

> <r_i_glide_gscore>
-7.2410860549178

> <r_i_glide_lipo>
-3.25069530135185

> <r_i_glide_hbond>
0

> <r_i_glide_metal>
0

> <r_i_glide_rewards>
-1.06378872817302

> <r_i_glide_evdw>
-50.1595573425293

> <r_i_glide_ecoul>
-6.6142635345459

> <r_i_glide_erotb>
0.656890744437254

> <r_i_glide_esite>
-0.0833753725218322

> <r_i_glide_emodel>
-80.2825714083955

> <r_i_glide_energy>
-56.7738208770752

> <r_i_glide_einternal>
4.31860589981079

> <i_i_glide_confnum>
32

> <i_i_glide_posenum>
41

> <r_i_glide_eff_state_penalty>
0

> <s_user_duplicate_titles>
CHEMBL301_lig1504

> <s_m_subgroup_title>
dock_pv

> <s_m_subgroupid>
dock_pv

> <b_m_subgroup_collapsed>
1

$$$$
CHEMBL301_lig1115
                    3D
 Schrodinger Suite 2021-1.
 51 54  0  0  1  0            999 V2000
    3.6580   26.2036    8.7017 C   0  0  0  0  0  0
    3.2491   25.3669    9.9150 C   0  0  0  0  0  0
    0.4765   25.7765   11.4718 C   0  0  0  0  0  0
    0.7938   25.4558   10.0263 C   0  0  0  0  0  0
    1.9836   24.6428    9.7760 N   0  0  2  0  0  0
   -1.7978   27.3041   13.4243 C   0  0  0  0  0  0
   -1.0518   25.9616   13.4629 C   0  0  0  0  0  0
   -0.6941   25.4947   12.0667 C   0  0  0  0  0  0
   -0.9546   28.2157   12.7176 O   0  0  0  0  0  0
   -0.8641   30.1480    9.6238 C   0  0  0  0  0  0
   -0.4498   29.3974   10.7299 C   0  0  0  0  0  0
   -1.4040   28.8870   11.5984 C   0  0  0  0  0  0
   -2.7360   29.0520   11.3760 N   0  0  0  0  0  0
   -3.1229   29.8520   10.3507 C   0  0  0  0  0  0
   -2.2246   30.4192    9.4605 C   0  0  0  0  0  0
    1.1576   29.8520    8.3560 N   0  0  0  0  0  0
    0.1150   30.6721    8.6625 C   0  0  0  0  0  0
    0.0225   31.9794    8.1765 C   0  0  0  0  0  0
    1.0527   32.4167    7.3633 C   0  0  0  0  0  0
    2.0580   31.5961    6.9760 N   0  0  0  0  0  0
    2.0955   30.3480    7.5158 C   0  0  0  0  0  0
    3.2673   27.5446    8.5762 C   0  0  0  0  0  0
    3.6580   28.2840    7.4513 C   0  0  0  0  0  0
    4.4995   27.7012    6.5006 C   0  0  0  0  0  0
    4.8925   26.3715    6.6243 C   0  0  0  0  0  0
    4.4551   25.6190    7.7106 C   0  0  0  0  0  0
    3.2200   29.5839    7.1782 N   0  0  0  0  0  0
    1.9551   23.3904   10.5278 C   0  0  0  0  0  0
    3.2578   25.9690   10.8251 H   0  0  0  0  0  0
    4.0400   24.6271   10.0138 H   0  0  0  0  0  0
    1.2435   26.3042   12.0208 H   0  0  0  0  0  0
    0.9495   26.4086    9.5220 H   0  0  0  0  0  0
   -0.0709   24.9895    9.5529 H   0  0  0  0  0  0
   -2.7838   27.1591   12.9803 H   0  0  0  0  0  0
   -1.9420   27.6811   14.4365 H   0  0  0  0  0  0
   -0.1353   26.0827   14.0435 H   0  0  0  0  0  0
   -1.6413   25.1951   13.9657 H   0  0  0  0  0  0
   -1.4739   24.9896   11.5135 H   0  0  0  0  0  0
    0.5976   29.2147   10.9208 H   0  0  0  0  0  0
   -4.1767   30.0443   10.2529 H   0  0  0  0  0  0
   -2.5846   31.0263    8.6426 H   0  0  0  0  0  0
   -0.7814   32.6430    8.4600 H   0  0  0  0  0  0
    1.0586   33.4249    6.9765 H   0  0  0  0  0  0
    2.6498   27.9927    9.3390 H   0  0  0  0  0  0
    4.8265   28.2661    5.6389 H   0  0  0  0  0  0
    5.5243   25.9227    5.8718 H   0  0  0  0  0  0
    4.7552   24.5849    7.7936 H   0  0  0  0  0  0
    3.8544   30.1055    6.5812 H   0  0  0  0  0  0
    1.0069   22.8716   10.3817 H   0  0  0  0  0  0
    2.7423   22.7216   10.1793 H   0  0  0  0  0  0
    2.0888   23.5585   11.5976 H   0  0  0  0  0  0
  1  2  1  0  0  0
  1 22  2  0  0  0
  1 26  1  0  0  0
  2  5  1  0  0  0
  2 29  1  0  0  0
  2 30  1  0  0  0
  3  8  2  0  0  0
  3  4  1  0  0  0
  3 31  1  0  0  0
  4  5  1  0  0  0
  4 32  1  0  0  0
  4 33  1  0  0  0
  5 28  1  0  0  0
  6  9  1  0  0  0
  6  7  1  0  0  0
  6 34  1  0  0  0
  6 35  1  0  0  0
  7  8  1  0  0  0
  7 36  1  0  0  0
  7 37  1  0  0  0
  8 38  1  0  0  0
  9 12  1  0  0  0
 10 11  2  0  0  0
 10 17  1  0  0  0
 10 15  1  0  0  0
 11 12  1  0  0  0
 11 39  1  0  0  0
 12 13  2  0  0  0
 13 14  1  0  0  0
 14 15  2  0  0  0
 14 40  1  0  0  0
 15 41  1  0  0  0
 16 17  2  0  0  0
 16 21  1  0  0  0
 17 18  1  0  0  0
 18 19  2  0  0  0
 18 42  1  0  0  0
 19 20  1  0  0  0
 19 43  1  0  0  0
 20 21  2  0  0  0
 21 27  1  0  0  0
 22 23  1  0  0  0
 22 44  1  0  0  0
 23 24  2  0  0  0
 23 27  1  0  0  0
 24 25  1  0  0  0
 24 45  1  0  0  0
 25 26  2  0  0  0
 25 46  1  0  0  0
 26 47  1  0  0  0
 27 48  1  0  0  0
 28 49  1  0  0  0
 28 50  1  0  0  0
 28 51  1  0  0  0
M  END
> <s_m_entry_id>
33008

> <s_m_entry_name>
dock_pv.409

> <s_m_Source_Path>
/home/csk/Desktop/cluster/DUD-E-result/cdk2

> <s_m_Source_File>
dock_pv.maegz

> <i_m_Source_File_Index>
409

> <chembl_id>
CHEMBL2035044

> <chembl_pref_name>
None

> <i_lp_mmshare_version>
53161

> <i_f3d_flags>
0

> <r_lp_tautomer_probability>
0.999999993818

> <s_lp_Force_Field>
OPLS_2005

> <r_lp_Energy>
15.024407

> <b_lp_Chiralities_Consistent>
1

> <s_lp_Variant>
CHEMBL301_lig1115-1

> <s_i_glide_gridfile>
glide-grid_1h00

> <i_i_glide_lignum>
1523

> <i_i_glide_rotatable_bonds>
0

> <r_i_docking_score>
-7.23910869508993

> <r_i_glide_ligand_efficiency>
-0.258539596253212

> <r_i_glide_ligand_efficiency_sa>
-0.785078485903675

> <r_i_glide_ligand_efficiency_ln>
-1.6709988362939

> <r_i_glide_gscore>
-7.23910869508993

> <r_i_glide_lipo>
-2.66806650549393

> <r_i_glide_hbond>
-0.541906083740645

> <r_i_glide_metal>
0

> <r_i_glide_rewards>
-2.32792935170467

> <r_i_glide_evdw>
-28.7324275970459

> <r_i_glide_ecoul>
-1.64034903049469

> <r_i_glide_erotb>
0

> <r_i_glide_esite>
-0.0185330197241837

> <r_i_glide_emodel>
-30.731485072378

> <r_i_glide_energy>
-30.3727766275406

> <r_i_glide_einternal>
0

> <i_i_glide_confnum>
1

> <i_i_glide_posenum>
9

> <r_i_glide_eff_state_penalty>
0

> <s_user_duplicate_titles>
CHEMBL301_lig1115

> <s_m_subgroup_title>
dock_pv

> <s_m_subgroupid>
dock_pv

> <b_m_subgroup_collapsed>
1

$$$$
CHEMBL301_lig1321
                    3D
 Schrodinger Suite 2021-1.
 40 41  0  0  1  0            999 V2000
   -1.7126   27.8194   11.7650 C   0  0  0  0  0  0
   -0.6748   28.3206   10.7441 C   0  0  0  0  0  0
    0.7299   28.2629   11.3728 C   0  0  0  0  0  0
   -1.0463   29.6520   10.2710 N   0  0  0  0  0  0
   -0.3576   30.4056    9.3033 C   0  0  0  0  0  0
    0.6665   29.8547    8.5851 N   0  0  0  0  0  0
    1.3003   30.6644    7.6898 C   0  0  0  0  0  0
    2.3909   30.2052    6.9427 N   0  0  0  0  0  0
    3.2580   29.1140    7.0778 C   0  0  0  0  0  0
    3.5259   28.5421    8.3167 C   0  0  0  0  0  0
    4.4212   27.4866    8.4101 C   0  0  0  0  0  0
    5.0850   27.0138    7.2760 C   0  0  0  0  0  0
    4.8374   27.6031    6.0357 C   0  0  0  0  0  0
    3.9254   28.6519    5.9408 C   0  0  0  0  0  0
    6.2067   25.6182    7.4198 S   0  0  1  0  0  0
    7.1284   26.0070    8.5759 N   0  0  0  0  0  0
    5.4279   24.3782    7.3758 O   0  0  0  0  0  0
    7.3965   25.6783    5.9653 C   0  0  0  0  0  0
    0.9732   31.9551    7.4349 N   0  0  0  0  0  0
   -0.0316   32.4853    8.1760 C   0  0  0  0  0  0
   -0.7423   31.7427    9.1163 C   0  0  0  0  0  0
   -2.1520   32.5715   10.1033 Br  0  0  0  0  0  0
   -1.5129   26.7876   12.0564 H   0  0  0  0  0  0
   -2.7296   27.8525   11.3746 H   0  0  0  0  0  0
   -1.7045   28.4254   12.6730 H   0  0  0  0  0  0
   -0.6949   27.6519    9.8805 H   0  0  0  0  0  0
    0.9412   27.2719   11.7762 H   0  0  0  0  0  0
    1.5088   28.4689   10.6463 H   0  0  0  0  0  0
    0.8391   28.9811   12.1855 H   0  0  0  0  0  0
   -1.7689   30.1317   10.7900 H   0  0  0  0  0  0
    2.7537   30.9024    6.3081 H   0  0  0  0  0  0
    3.0560   28.9173    9.2096 H   0  0  0  0  0  0
    4.5902   27.0520    9.3759 H   0  0  0  0  0  0
    5.3373   27.2581    5.1435 H   0  0  0  0  0  0
    3.7484   29.1097    4.9790 H   0  0  0  0  0  0
    6.6293   25.9823    9.4677 H   0  0  0  0  0  0
    7.8808   26.6520    5.9407 H   0  0  0  0  0  0
    8.1442   24.8998    6.1047 H   0  0  0  0  0  0
    6.8463   25.4983    5.0439 H   0  0  0  0  0  0
   -0.2761   33.5203    7.9871 H   0  0  0  0  0  0
  1  2  1  0  0  0
  1 23  1  0  0  0
  1 24  1  0  0  0
  1 25  1  0  0  0
  2  3  1  0  0  0
  2  4  1  0  0  0
  2 26  1  0  0  0
  3 27  1  0  0  0
  3 28  1  0  0  0
  3 29  1  0  0  0
  4  5  1  0  0  0
  4 30  1  0  0  0
  5  6  2  0  0  0
  5 21  1  0  0  0
  6  7  1  0  0  0
  7  8  1  0  0  0
  7 19  2  0  0  0
  8  9  1  0  0  0
  8 31  1  0  0  0
  9 10  2  0  0  0
  9 14  1  0  0  0
 10 11  1  0  0  0
 10 32  1  0  0  0
 11 12  2  0  0  0
 11 33  1  0  0  0
 12 13  1  0  0  0
 12 15  1  0  0  0
 13 14  2  0  0  0
 13 34  1  0  0  0
 14 35  1  0  0  0
 15 16  2  0  0  0
 15 17  2  0  0  0
 15 18  1  0  0  0
 16 36  1  0  0  0
 18 37  1  0  0  0
 18 38  1  0  0  0
 18 39  1  0  0  0
 19 20  1  0  0  0
 20 21  2  0  0  0
 20 40  1  0  0  0
 21 22  1  0  0  0
M  END
> <s_m_entry_id>
33009

> <s_m_entry_name>
dock_pv.410

> <s_m_Source_Path>
/home/csk/Desktop/cluster/DUD-E-result/cdk2

> <s_m_Source_File>
dock_pv.maegz

> <i_m_Source_File_Index>
410

> <chembl_id>
CHEMBL3648126

> <chembl_pref_name>
None

> <i_lp_mmshare_version>
53161

> <i_f3d_flags>
0

> <r_lp_tautomer_probability>
0.999999624730965

> <s_lp_Force_Field>
OPLS_2005

> <r_lp_Energy>
2.051254

> <b_lp_Chiralities_Consistent>
1

> <s_lp_Variant>
CHEMBL301_lig1321-2

> <s_i_glide_gridfile>
glide-grid_1h00

> <i_i_glide_lignum>
1739

> <i_i_glide_rotatable_bonds>
5

> <r_i_docking_score>
-7.23632428219617

> <r_i_glide_ligand_efficiency>
-0.328923831008917

> <r_i_glide_ligand_efficiency_sa>
-0.921657510327203

> <r_i_glide_ligand_efficiency_ln>
-1.76882160591023

> <r_i_glide_gscore>
-7.23632428219617

> <r_i_glide_lipo>
-2.36046711838703

> <r_i_glide_hbond>
-0.338994009706573

> <r_i_glide_metal>
0

> <r_i_glide_rewards>
-1.66727918008281

> <r_i_glide_evdw>
-35.5033950805664

> <r_i_glide_ecoul>
-9.9289083480835

> <r_i_glide_erotb>
0.394922032221098

> <r_i_glide_esite>
0

> <r_i_glide_emodel>
-62.9203026303337

> <r_i_glide_energy>
-45.4323034286499

> <r_i_glide_einternal>
4.70902156829834

> <i_i_glide_confnum>
1

> <i_i_glide_posenum>
383

> <r_i_glide_eff_state_penalty>
0

> <s_user_duplicate_titles>
CHEMBL301_lig1321

> <s_m_subgroup_title>
dock_pv

> <s_m_subgroupid>
dock_pv

> <b_m_subgroup_collapsed>
1

$$$$
CHEMBL301_lig1164
                    3D
 Schrodinger Suite 2021-1.
 46 49  0  0  1  0            999 V2000
    0.3287   28.8798    9.8452 N   0  0  0  0  0  0
    1.3207   27.9560    9.9081 C   0  0  0  0  0  0
    2.4615   28.0123    9.1138 C   0  0  0  0  0  0
    2.6031   29.0520    8.1930 C   0  0  0  0  0  0
    0.4869   29.9009    9.0031 C   0  0  0  0  0  0
    1.6182   30.0124    8.1764 N   0  0  0  0  0  0
    1.5477   31.1163    7.3761 N   0  0  0  0  0  0
    0.4580   31.7472    7.7760 C   0  0  0  0  0  0
   -0.2964   31.0361    8.7012 C   0  0  0  0  0  0
    1.1918   26.8484   10.7540 N   0  0  0  0  0  0
   -0.0617   26.4963   11.4257 C   0  0  2  0  0  0
   -0.3971   27.5109   12.5513 C   0  0  0  0  0  0
   -1.6040   27.0525   13.3858 C   0  0  0  0  0  0
   -1.3973   25.6497   13.9854 C   0  0  2  0  0  0
   -1.0937   24.6355   12.8622 C   0  0  0  0  0  0
    0.1070   25.0677   11.9924 C   0  0  0  0  0  0
   -2.5158   25.2535   14.8174 N   0  0  0  0  0  0
    3.6097   29.0686    7.2172 N   0  0  0  0  0  0
    4.4591   28.0531    6.7733 C   0  0  0  0  0  0
    5.2948   27.3379    7.6356 C   0  0  0  0  0  0
    6.1043   26.3153    7.1351 C   0  0  0  0  0  0
    6.0815   26.0061    5.7716 C   0  0  0  0  0  0
    5.2574   26.7269    4.9091 C   0  0  0  0  0  0
    4.4578   27.7546    5.4087 C   0  0  0  0  0  0
    6.8587   25.0147    5.2790 F   0  0  0  0  0  0
    7.1471   25.4524    8.2043 Cl  0  0  0  0  0  0
   -1.9723   31.4394    9.5095 Br  0  0  0  0  0  0
    3.1846   27.2159    9.1759 H   0  0  0  0  0  0
    0.1821   32.7066    7.3591 H   0  0  0  0  0  0
    1.7864   26.0784   10.4948 H   0  0  0  0  0  0
   -0.8551   26.4927   10.6755 H   0  0  0  0  0  0
    0.4580   27.6524   13.2102 H   0  0  0  0  0  0
   -0.6257   28.4964   12.1479 H   0  0  0  0  0  0
   -2.4954   27.0634   12.7551 H   0  0  0  0  0  0
   -1.7835   27.7808   14.1771 H   0  0  0  0  0  0
   -0.5121   25.7024   14.6218 H   0  0  0  0  0  0
   -1.9661   24.5314   12.2155 H   0  0  0  0  0  0
   -0.9041   23.6500   13.2896 H   0  0  0  0  0  0
    0.2231   24.3580   11.1717 H   0  0  0  0  0  0
    1.0258   25.0018   12.5763 H   0  0  0  0  0  0
   -2.7822   26.0544   15.3733 H   0  0  0  0  0  0
   -3.3032   25.0803   14.2079 H   0  0  0  0  0  0
    3.6741   29.9417    6.7024 H   0  0  0  0  0  0
    5.3287   27.5745    8.6898 H   0  0  0  0  0  0
    5.2453   26.4917    3.8544 H   0  0  0  0  0  0
    3.8216   28.3054    4.7320 H   0  0  0  0  0  0
  1  5  1  0  0  0
  1  2  2  0  0  0
  2  3  1  0  0  0
  2 10  1  0  0  0
  3  4  2  0  0  0
  3 28  1  0  0  0
  4  6  1  0  0  0
  4 18  1  0  0  0
  5  6  1  0  0  0
  5  9  2  0  0  0
  6  7  1  0  0  0
  7  8  2  0  0  0
  8  9  1  0  0  0
  8 29  1  0  0  0
  9 27  1  0  0  0
 10 11  1  0  0  0
 10 30  1  0  0  0
 11 12  1  0  0  0
 11 16  1  0  0  0
 11 31  1  0  0  0
 12 13  1  0  0  0
 12 32  1  0  0  0
 12 33  1  0  0  0
 13 14  1  0  0  0
 13 34  1  0  0  0
 13 35  1  0  0  0
 14 15  1  0  0  0
 14 17  1  0  0  0
 14 36  1  0  0  0
 15 16  1  0  0  0
 15 37  1  0  0  0
 15 38  1  0  0  0
 16 39  1  0  0  0
 16 40  1  0  0  0
 17 41  1  0  0  0
 17 42  1  0  0  0
 18 19  1  0  0  0
 18 43  1  0  0  0
 19 20  2  0  0  0
 19 24  1  0  0  0
 20 21  1  0  0  0
 20 44  1  0  0  0
 21 22  2  0  0  0
 21 26  1  0  0  0
 22 23  1  0  0  0
 22 25  1  0  0  0
 23 24  2  0  0  0
 23 45  1  0  0  0
 24 46  1  0  0  0
M  END
> <s_m_entry_id>
33010

> <s_m_entry_name>
dock_pv.411

> <s_m_Source_Path>
/home/csk/Desktop/cluster/DUD-E-result/cdk2

> <s_m_Source_File>
dock_pv.maegz

> <i_m_Source_File_Index>
411

> <chembl_id>
CHEMBL2163995

> <chembl_pref_name>
None

> <i_lp_mmshare_version>
53161

> <i_f3d_flags>
0

> <r_lp_tautomer_probability>
1

> <s_lp_Force_Field>
OPLS_2005

> <r_lp_Energy>
26.732899

> <b_lp_Chiralities_Consistent>
1

> <s_lp_Variant>
CHEMBL301_lig1164-1

> <s_i_glide_gridfile>
glide-grid_1h00

> <i_i_glide_lignum>
1577

> <i_i_glide_rotatable_bonds>
4

> <r_i_docking_score>
-7.23409762493876

> <r_i_glide_ligand_efficiency>
-0.267929541664399

> <r_i_glide_ligand_efficiency_sa>
-0.803788624110144

> <r_i_glide_ligand_efficiency_ln>
-1.68397866366545

> <r_i_glide_gscore>
-7.23409762493876

> <r_i_glide_lipo>
-2.76496382539336

> <r_i_glide_hbond>
-0.32

> <r_i_glide_metal>
0

> <r_i_glide_rewards>
-1.69316022422936

> <r_i_glide_evdw>
-43.081127166748

> <r_i_glide_ecoul>
-4.50969982147217

> <r_i_glide_erotb>
0.390045495519445

> <r_i_glide_esite>
-0.0155077392772578

> <r_i_glide_emodel>
-64.1723165668474

> <r_i_glide_energy>
-47.5908269882202

> <r_i_glide_einternal>
7.19657182693481

> <i_i_glide_confnum>
8

> <i_i_glide_posenum>
377

> <r_i_glide_eff_state_penalty>
0

> <s_user_duplicate_titles>
CHEMBL301_lig1164

> <s_m_subgroup_title>
dock_pv

> <s_m_subgroupid>
dock_pv

> <b_m_subgroup_collapsed>
1

$$$$
CHEMBL301_lig1450
                    3D
 Schrodinger Suite 2021-1.
 40 42  0  0  1  0            999 V2000
    2.0530   25.6724   11.2999 C   0  0  0  0  0  0
    0.8279   26.5400   10.8998 C   0  0  0  0  0  0
   -0.1804   25.6047   10.1871 C   0  0  0  0  0  0
    0.1538   27.0712   12.1925 C   0  0  0  0  0  0
    1.1992   27.7362    9.9802 C   0  0  0  0  0  0
    2.4581   27.8855    9.3762 C   0  0  0  0  0  0
    2.6912   28.9686    8.5183 C   0  0  0  0  0  0
    3.9071   29.1730    7.8376 N   0  0  0  0  0  0
    5.0486   28.2650    7.9108 C   0  0  0  0  0  0
    4.8565   27.0657    6.9929 C   0  0  0  0  0  0
    4.8569   27.2293    5.6018 C   0  0  0  0  0  0
    4.6491   26.1094    4.7929 C   0  0  0  0  0  0
    4.4469   24.8652    5.2957 N   0  0  0  0  0  0
    4.4584   24.7192    6.6455 C   0  0  0  0  0  0
    4.6677   25.7845    7.5235 C   0  0  0  0  0  0
    1.6520   29.8521    8.3346 N   0  0  0  0  0  0
    1.6400   30.9570    7.5341 N   0  0  0  0  0  0
    0.4805   31.5358    7.7760 C   0  0  0  0  0  0
   -0.3542   30.7904    8.5966 C   0  0  0  0  0  0
   -2.1374   31.1199    9.1766 Br  0  0  0  0  0  0
    0.4213   29.6782    8.9857 C   0  0  0  0  0  0
    0.1880   28.6296    9.7771 N   0  0  0  0  0  0
    2.8428   26.2520   11.7746 H   0  0  0  0  0  0
    1.7737   24.8854   12.0003 H   0  0  0  0  0  0
    2.4964   25.1796   10.4342 H   0  0  0  0  0  0
   -1.0287   26.1505    9.7701 H   0  0  0  0  0  0
    0.2902   25.0524    9.3757 H   0  0  0  0  0  0
   -0.5860   24.8583   10.8707 H   0  0  0  0  0  0
   -0.8559   27.4376   12.0010 H   0  0  0  0  0  0
    0.0749   26.3062   12.9661 H   0  0  0  0  0  0
    0.7114   27.9122   12.6034 H   0  0  0  0  0  0
    3.2381   27.1662    9.5586 H   0  0  0  0  0  0
    3.9942   30.0024    7.2586 H   0  0  0  0  0  0
    5.9367   28.8082    7.5894 H   0  0  0  0  0  0
    5.2347   27.9458    8.9382 H   0  0  0  0  0  0
    5.0110   28.2029    5.1606 H   0  0  0  0  0  0
    4.6405   26.1950    3.7148 H   0  0  0  0  0  0
    4.2835   23.7216    7.0189 H   0  0  0  0  0  0
    4.6693   25.6189    8.5904 H   0  0  0  0  0  0
    0.2270   32.4886    7.3349 H   0  0  0  0  0  0
  1  2  1  0  0  0
  1 23  1  0  0  0
  1 24  1  0  0  0
  1 25  1  0  0  0
  2  3  1  0  0  0
  2  4  1  0  0  0
  2  5  1  0  0  0
  3 26  1  0  0  0
  3 27  1  0  0  0
  3 28  1  0  0  0
  4 29  1  0  0  0
  4 30  1  0  0  0
  4 31  1  0  0  0
  5  6  1  0  0  0
  5 22  2  0  0  0
  6  7  2  0  0  0
  6 32  1  0  0  0
  7  8  1  0  0  0
  7 16  1  0  0  0
  8  9  1  0  0  0
  8 33  1  0  0  0
  9 10  1  0  0  0
  9 34  1  0  0  0
  9 35  1  0  0  0
 10 11  2  0  0  0
 10 15  1  0  0  0
 11 12  1  0  0  0
 11 36  1  0  0  0
 12 13  2  0  0  0
 12 37  1  0  0  0
 13 14  1  0  0  0
 14 15  2  0  0  0
 14 38  1  0  0  0
 15 39  1  0  0  0
 16 17  1  0  0  0
 16 21  1  0  0  0
 17 18  2  0  0  0
 18 19  1  0  0  0
 18 40  1  0  0  0
 19 20  1  0  0  0
 19 21  2  0  0  0
 21 22  1  0  0  0
M  END
> <s_m_entry_id>
33011

> <s_m_entry_name>
dock_pv.412

> <s_m_Source_Path>
/home/csk/Desktop/cluster/DUD-E-result/cdk2

> <s_m_Source_File>
dock_pv.maegz

> <i_m_Source_File_Index>
412

> <chembl_id>
CHEMBL3642652

> <chembl_pref_name>
None

> <i_lp_mmshare_version>
53161

> <i_f3d_flags>
0

> <r_lp_tautomer_probability>
1

> <s_lp_Force_Field>
OPLS_2005

> <r_lp_Energy>
11.972307

> <b_lp_Chiralities_Consistent>
1

> <s_lp_Variant>
CHEMBL301_lig1450-1

> <s_i_glide_gridfile>
glide-grid_1h00

> <i_i_glide_lignum>
1963

> <i_i_glide_rotatable_bonds>
4

> <r_i_docking_score>
-7.22849341012928

> <r_i_glide_ligand_efficiency>
-0.328567882278604

> <r_i_glide_ligand_efficiency_sa>
-0.920660127986197

> <r_i_glide_ligand_efficiency_ln>
-1.76690745513908

> <r_i_glide_gscore>
-7.22849341012928

> <r_i_glide_lipo>
-2.55708502237248

> <r_i_glide_hbond>
-0.297135344168293

> <r_i_glide_metal>
0

> <r_i_glide_rewards>
-2.58672062538635

> <r_i_glide_evdw>
-35.1279144287109

> <r_i_glide_ecoul>
-3.16296529769897

> <r_i_glide_erotb>
0.44328809788823

> <r_i_glide_esite>
0

> <r_i_glide_emodel>
-53.7250329554668

> <r_i_glide_energy>
-38.2908797264099

> <r_i_glide_einternal>
1.0536527633667

> <i_i_glide_confnum>
13

> <i_i_glide_posenum>
53

> <r_i_glide_eff_state_penalty>
0

> <s_user_duplicate_titles>
CHEMBL301_lig1450

> <s_m_subgroup_title>
dock_pv

> <s_m_subgroupid>
dock_pv

> <b_m_subgroup_collapsed>
1

$$$$
CHEMBL301_lig214
                    3D
 Schrodinger Suite 2021-1.
 28 31  0  0  1  0            999 V2000
    1.2023   27.8522   10.3412 C   0  0  0  0  0  0
    1.2046   29.0110    9.3750 C   0  0  0  0  0  0
    0.0594   29.7219    9.6308 C   0  0  0  0  0  0
    0.0839   28.0371   11.0820 N   0  0  0  0  0  0
   -0.6288   29.1566   10.6728 C   0  0  0  0  0  0
    2.0589   29.4520    8.3436 C   0  0  0  0  0  0
   -0.3421   30.8799    8.9491 C   0  0  0  0  0  0
    3.3134   28.7347    7.9481 C   0  0  0  0  0  0
    1.6785   30.5945    7.6088 C   0  0  0  0  0  0
    4.0601   27.9659    8.8074 N   0  0  0  0  0  0
    0.5065   31.3138    7.9015 C   0  0  0  0  0  0
    2.0041   26.9314   10.4701 O   0  0  0  0  0  0
   -1.5337   31.5009    9.4040 C   0  0  0  0  0  0
   -1.8063   29.7597   11.1053 C   0  0  0  0  0  0
    3.9712   28.6521    6.7204 C   0  0  0  0  0  0
    5.1446   27.4266    8.1709 C   0  0  0  0  0  0
    5.1018   27.8427    6.8575 C   0  0  0  0  0  0
   -2.2486   30.9315   10.4697 C   0  0  0  0  0  0
   -1.9660   32.6472    8.8345 F   0  0  0  0  0  0
   -0.1790   27.4249   11.8377 H   0  0  0  0  0  0
    2.3178   30.9464    6.8116 H   0  0  0  0  0  0
    3.8159   27.7829    9.7734 H   0  0  0  0  0  0
    0.2576   32.2182    7.3696 H   0  0  0  0  0  0
   -2.3660   29.3564   11.9366 H   0  0  0  0  0  0
    3.6634   29.1382    5.8052 H   0  0  0  0  0  0
    5.8296   26.7859    8.7078 H   0  0  0  0  0  0
    5.8115   27.5919    6.0798 H   0  0  0  0  0  0
   -3.1474   31.4146   10.8241 H   0  0  0  0  0  0
  1  2  1  0  0  0
  1  4  1  0  0  0
  1 12  2  0  0  0
  2  3  1  0  0  0
  2  6  2  0  0  0
  3  7  2  0  0  0
  3  5  1  0  0  0
  4  5  1  0  0  0
  4 20  1  0  0  0
  5 14  2  0  0  0
  6  8  1  0  0  0
  6  9  1  0  0  0
  7 13  1  0  0  0
  7 11  1  0  0  0
  8 10  1  0  0  0
  8 15  2  0  0  0
  9 11  2  0  0  0
  9 21  1  0  0  0
 10 16  1  0  0  0
 10 22  1  0  0  0
 11 23  1  0  0  0
 13 19  1  0  0  0
 13 18  2  0  0  0
 14 18  1  0  0  0
 14 24  1  0  0  0
 15 17  1  0  0  0
 15 25  1  0  0  0
 16 17  2  0  0  0
 16 26  1  0  0  0
 17 27  1  0  0  0
 18 28  1  0  0  0
M  END
> <s_m_entry_id>
33012

> <s_m_entry_name>
dock_pv.413

> <s_m_Source_Path>
/home/csk/Desktop/cluster/DUD-E-result/cdk2

> <s_m_Source_File>
dock_pv.maegz

> <i_m_Source_File_Index>
413

> <chembl_id>
CHEMBL312018

> <chembl_pref_name>
None

> <i_lp_mmshare_version>
53161

> <i_f3d_flags>
0

> <r_lp_tautomer_probability>
1

> <s_lp_Force_Field>
OPLS_2005

> <r_lp_Energy>
56.527178

> <b_lp_Chiralities_Consistent>
1

> <s_lp_Variant>
CHEMBL301_lig214-1

> <s_i_glide_gridfile>
glide-grid_1h00

> <i_i_glide_lignum>
356

> <i_i_glide_rotatable_bonds>
1

> <r_i_docking_score>
-7.227029472618

> <r_i_glide_ligand_efficiency>
-0.380369972243052

> <r_i_glide_ligand_efficiency_sa>
-1.0149798600615

> <r_i_glide_ligand_efficiency_ln>
-1.83220719366921

> <r_i_glide_gscore>
-7.227029472618

> <r_i_glide_lipo>
-2.94544476298648

> <r_i_glide_hbond>
0

> <r_i_glide_metal>
0

> <r_i_glide_rewards>
-2.79866850594849

> <r_i_glide_evdw>
-30.1487922668457

> <r_i_glide_ecoul>
-1.67479562759399

> <r_i_glide_erotb>
0.275742753798351

> <r_i_glide_esite>
0

> <r_i_glide_emodel>
-47.4920668842703

> <r_i_glide_energy>
-31.8235878944397

> <r_i_glide_einternal>
0.25073304772377

> <i_i_glide_confnum>
3

> <i_i_glide_posenum>
3

> <r_i_glide_eff_state_penalty>
0

> <s_user_duplicate_titles>
CHEMBL301_lig214,130926

> <s_m_subgroup_title>
dock_pv

> <s_m_subgroupid>
dock_pv

> <b_m_subgroup_collapsed>
1

$$$$
CHEMBL301_lig906
                    3D
 Schrodinger Suite 2021-1.
 43 45  0  0  1  0            999 V2000
   -0.3893   31.4336    8.2454 N   0  0  0  0  0  0
   -0.9274   30.5518    9.1205 C   0  0  0  0  0  0
   -0.1952   29.4484    9.5882 C   0  0  0  0  0  0
    1.0597   29.2130    9.1090 N   0  0  0  0  0  0
    1.5869   30.0583    8.1775 C   0  0  0  0  0  0
    0.8581   31.1848    7.7763 C   0  0  0  0  0  0
    2.8512   29.8209    7.6094 N   0  0  0  0  0  0
    3.6902   28.7484    7.7601 C   0  0  0  0  0  0
   -0.7373   28.5663   10.5430 N   0  0  0  0  0  0
    0.1286   28.0189   11.5867 C   0  0  2  0  0  0
    0.3928   26.5334   11.3380 C   0  0  0  0  0  0
    1.6723   26.0954   10.9765 C   0  0  0  0  0  0
    1.8988   24.7287   10.8198 C   0  0  0  0  0  0
    0.8563   23.8325   11.0528 C   0  0  0  0  0  0
   -0.3945   24.3396   11.4088 C   0  0  0  0  0  0
   -0.6385   25.6677   11.5501 N   0  0  0  0  0  0
    4.6724   28.3331    6.8511 C   0  0  0  0  0  0
    5.2732   27.2132    7.3895 C   0  0  0  0  0  0
    4.6182   27.0519    8.5759 N   0  0  0  0  0  0
    3.6746   27.9616    8.8098 N   0  0  0  0  0  0
   -2.3099   30.8361    9.4860 C   0  0  0  0  0  0
   -0.4781   28.2802   12.9754 C   0  0  0  0  0  0
    6.3922   26.3063    6.9306 C   0  0  0  0  0  0
    1.0564   22.4993   10.9422 F   0  0  0  0  0  0
   -3.4083   31.0516    9.7701 N   0  0  0  0  0  0
    1.4471   32.2528    6.8826 C   0  0  0  0  0  0
    3.1196   30.5296    6.9418 H   0  0  0  0  0  0
   -1.6390   28.8620   10.8885 H   0  0  0  0  0  0
    1.0939   28.5286   11.5793 H   0  0  0  0  0  0
    2.4793   26.7993   10.8343 H   0  0  0  0  0  0
    2.8766   24.3743   10.5302 H   0  0  0  0  0  0
   -1.2267   23.6782   11.5958 H   0  0  0  0  0  0
    4.9177   28.8002    5.9081 H   0  0  0  0  0  0
    4.8620   26.3571    9.2764 H   0  0  0  0  0  0
    0.1321   27.8290   13.7572 H   0  0  0  0  0  0
   -0.5418   29.3490   13.1826 H   0  0  0  0  0  0
   -1.4861   27.8687   13.0687 H   0  0  0  0  0  0
    6.8353   26.6520    5.9950 H   0  0  0  0  0  0
    6.0421   25.2886    6.7622 H   0  0  0  0  0  0
    7.1971   26.2524    7.6638 H   0  0  0  0  0  0
    2.3253   32.6700    7.3751 H   0  0  0  0  0  0
    1.7429   31.8454    5.9161 H   0  0  0  0  0  0
    0.7339   33.0606    6.7127 H   0  0  0  0  0  0
  1  2  2  0  0  0
  1  6  1  0  0  0
  2 21  1  0  0  0
  2  3  1  0  0  0
  3  4  2  0  0  0
  3  9  1  0  0  0
  4  5  1  0  0  0
  5  7  1  0  0  0
  5  6  2  0  0  0
  6 26  1  0  0  0
  7  8  1  0  0  0
  7 27  1  0  0  0
  8 17  1  0  0  0
  8 20  2  0  0  0
  9 10  1  0  0  0
  9 28  1  0  0  0
 10 22  1  0  0  0
 10 11  1  0  0  0
 10 29  1  0  0  0
 11 16  1  0  0  0
 11 12  2  0  0  0
 12 13  1  0  0  0
 12 30  1  0  0  0
 13 14  2  0  0  0
 13 31  1  0  0  0
 14 15  1  0  0  0
 14 24  1  0  0  0
 15 16  2  0  0  0
 15 32  1  0  0  0
 17 18  2  0  0  0
 17 33  1  0  0  0
 18 19  1  0  0  0
 18 23  1  0  0  0
 19 20  1  0  0  0
 19 34  1  0  0  0
 21 25  3  0  0  0
 22 35  1  0  0  0
 22 36  1  0  0  0
 22 37  1  0  0  0
 23 38  1  0  0  0
 23 39  1  0  0  0
 23 40  1  0  0  0
 26 41  1  0  0  0
 26 42  1  0  0  0
 26 43  1  0  0  0
M  END
> <s_m_entry_id>
33013

> <s_m_entry_name>
dock_pv.414

> <s_m_Source_Path>
/home/csk/Desktop/cluster/DUD-E-result/cdk2

> <s_m_Source_File>
dock_pv.maegz

> <i_m_Source_File_Index>
414

> <chembl_id>
CHEMBL578201

> <chembl_pref_name>
None

> <i_lp_mmshare_version>
53161

> <i_f3d_flags>
0

> <r_lp_tautomer_probability>
0.842599999161192

> <s_lp_Force_Field>
OPLS_2005

> <r_lp_Energy>
14.620642

> <b_lp_Chiralities_Consistent>
1

> <s_lp_Variant>
CHEMBL301_lig906-1

> <s_i_glide_gridfile>
glide-grid_1h00

> <i_i_glide_lignum>
1277

> <i_i_glide_rotatable_bonds>
5

> <r_i_docking_score>
-7.22544516650523

> <r_i_glide_ligand_efficiency>
-0.277901737173278

> <r_i_glide_ligand_efficiency_sa>
-0.823282802885303

> <r_i_glide_ligand_efficiency_ln>
-1.6968720887344

> <r_i_glide_gscore>
-7.22544516650523

> <r_i_glide_lipo>
-2.61793480616999

> <r_i_glide_hbond>
-0.403194416696976

> <r_i_glide_metal>
0

> <r_i_glide_rewards>
-2.14808715422381

> <r_i_glide_evdw>
-43.5933952331543

> <r_i_glide_ecoul>
-4.10970783233643

> <r_i_glide_erotb>
0.768503439205812

> <r_i_glide_esite>
-0.0286062921120952

> <r_i_glide_emodel>
-63.2469487251318

> <r_i_glide_energy>
-47.7031030654907

> <r_i_glide_einternal>
9.18694400787354

> <i_i_glide_confnum>
10

> <i_i_glide_posenum>
170

> <r_i_glide_eff_state_penalty>
0

> <s_user_duplicate_titles>
CHEMBL301_lig906,579348

> <s_m_subgroup_title>
dock_pv

> <s_m_subgroupid>
dock_pv

> <b_m_subgroup_collapsed>
1

$$$$
CHEMBL301_lig931
                    3D
 Schrodinger Suite 2021-1.
 46 49  0  0  1  0            999 V2000
    4.9837   23.8652    7.1826 C   0  0  0  0  0  0
    4.0575   23.5531    8.1760 C   0  0  0  0  0  0
    3.3990   24.5405    8.9288 C   0  0  0  0  0  0
    3.6579   25.8874    8.6488 C   0  0  0  0  0  0
    6.1772   25.7309    6.0646 N   0  0  0  0  0  0
    5.2794   25.2129    6.9514 C   0  0  0  0  0  0
    4.6102   26.2295    7.6923 C   0  0  0  0  0  0
    5.1503   27.4454    7.2198 C   0  0  0  0  0  0
    6.0579   27.0518    6.2681 N   0  0  0  0  0  0
    4.8752   28.8838    7.5861 C   0  0  0  0  0  0
    2.3840   24.1782    9.9847 C   0  0  0  0  0  0
    1.6910   25.3706   11.0542 S   0  0  0  0  0  0
    0.6263   24.1337   11.6556 C   0  0  0  0  0  0
    0.8655   22.9546   11.1366 N   0  0  0  0  0  0
    1.8774   22.9802   10.1769 N   0  0  0  0  0  0
   -0.3764   24.4046   12.5601 N   0  0  0  0  0  0
   -0.6912   25.7052   13.1530 C   0  0  0  0  0  0
   -1.2796   26.7381   12.1552 C   0  0  2  0  0  0
   -0.8703   28.1948   12.4756 C   0  0  0  0  0  0
   -0.7110   29.0464   11.2238 C   0  0  0  0  0  0
    0.4597   28.9357   10.4679 C   0  0  0  0  0  0
    0.6403   29.7138    9.3281 C   0  0  0  0  0  0
   -0.3432   30.6221    8.9434 C   0  0  0  0  0  0
   -1.5265   30.7257    9.6788 C   0  0  0  0  0  0
   -1.7121   29.9330   10.8135 C   0  0  0  0  0  0
   -2.7298   26.6508   12.0831 N   0  0  0  0  0  0
   -2.4906   31.5938    9.2958 F   0  0  0  0  0  0
   -0.1252   31.4081    7.8674 F   0  0  0  0  0  0
    5.4744   23.0851    6.6195 H   0  0  0  0  0  0
    3.8315   22.5122    8.3540 H   0  0  0  0  0  0
    3.1673   26.6777    9.1933 H   0  0  0  0  0  0
    6.6553   27.7102    5.7727 H   0  0  0  0  0  0
    4.8026   29.0052    8.6673 H   0  0  0  0  0  0
    5.6580   29.5584    7.2523 H   0  0  0  0  0  0
    3.9366   29.2369    7.1583 H   0  0  0  0  0  0
   -1.0297   23.6772   12.8125 H   0  0  0  0  0  0
    0.2385   26.0823   13.5824 H   0  0  0  0  0  0
   -1.3591   25.5658   14.0051 H   0  0  0  0  0  0
   -0.9020   26.5023   11.1581 H   0  0  0  0  0  0
    0.1017   28.2103   12.9718 H   0  0  0  0  0  0
   -1.5451   28.6704   13.1914 H   0  0  0  0  0  0
    1.2434   28.2600   10.7745 H   0  0  0  0  0  0
    1.5547   29.6356    8.7589 H   0  0  0  0  0  0
   -2.6312   30.0156   11.3760 H   0  0  0  0  0  0
   -3.0484   25.7018   11.9279 H   0  0  0  0  0  0
   -3.1441   26.9791   12.9468 H   0  0  0  0  0  0
  1  6  1  0  0  0
  1 29  1  0  0  0
  1  2  2  0  0  0
  2 30  1  0  0  0
  2  3  1  0  0  0
  3 11  1  0  0  0
  3  4  2  0  0  0
  4 31  1  0  0  0
  4  7  1  0  0  0
  5  9  1  0  0  0
  5  6  2  0  0  0
  6  7  1  0  0  0
  7  8  2  0  0  0
  8  9  1  0  0  0
  8 10  1  0  0  0
  9 32  1  0  0  0
 10 33  1  0  0  0
 10 34  1  0  0  0
 10 35  1  0  0  0
 11 12  1  0  0  0
 11 15  2  0  0  0
 12 13  1  0  0  0
 13 14  2  0  0  0
 13 16  1  0  0  0
 14 15  1  0  0  0
 16 17  1  0  0  0
 16 36  1  0  0  0
 17 18  1  0  0  0
 17 37  1  0  0  0
 17 38  1  0  0  0
 18 19  1  0  0  0
 18 26  1  0  0  0
 18 39  1  0  0  0
 19 20  1  0  0  0
 19 40  1  0  0  0
 19 41  1  0  0  0
 20 21  2  0  0  0
 20 25  1  0  0  0
 21 22  1  0  0  0
 21 42  1  0  0  0
 22 23  2  0  0  0
 22 43  1  0  0  0
 23 24  1  0  0  0
 23 28  1  0  0  0
 24 25  2  0  0  0
 24 27  1  0  0  0
 25 44  1  0  0  0
 26 45  1  0  0  0
 26 46  1  0  0  0
M  END
> <s_m_entry_id>
33014

> <s_m_entry_name>
dock_pv.415

> <s_m_Source_Path>
/home/csk/Desktop/cluster/DUD-E-result/cdk2

> <s_m_Source_File>
dock_pv.maegz

> <i_m_Source_File_Index>
415

> <chembl_id>
CHEMBL1080913

> <chembl_pref_name>
None

> <i_lp_mmshare_version>
53161

> <i_f3d_flags>
0

> <r_lp_tautomer_probability>
0.0196078431372549

> <s_lp_Force_Field>
OPLS_2005

> <r_lp_Energy>
27.483883

> <b_lp_Chiralities_Consistent>
1

> <s_lp_Variant>
CHEMBL301_lig931-2

> <s_i_glide_gridfile>
glide-grid_1h00

> <i_i_glide_lignum>
1318

> <i_i_glide_rotatable_bonds>
6

> <r_i_docking_score>
-7.22284170614102

> <r_i_glide_ligand_efficiency>
-0.257958632362179

> <r_i_glide_ligand_efficiency_sa>
-0.783314337361067

> <r_i_glide_ligand_efficiency_ln>
-1.66724393762494

> <r_i_glide_gscore>
-7.22284170614102

> <r_i_glide_lipo>
-2.5327584149544

> <r_i_glide_hbond>
-0.56662812809739

> <r_i_glide_metal>
0

> <r_i_glide_rewards>
-1.77631495262267

> <r_i_glide_evdw>
-33.6343612670898

> <r_i_glide_ecoul>
-8.13976955413818

> <r_i_glide_erotb>
0.611263703255087

> <r_i_glide_esite>
-0.0557204172464167

> <r_i_glide_emodel>
-57.6438129525334

> <r_i_glide_energy>
-41.774130821228

> <r_i_glide_einternal>
6.17848491668701

> <i_i_glide_confnum>
32

> <i_i_glide_posenum>
355

> <r_i_glide_eff_state_penalty>
0

> <s_user_duplicate_titles>
CHEMBL301_lig931,612878

> <s_m_subgroup_title>
dock_pv

> <s_m_subgroupid>
dock_pv

> <b_m_subgroup_collapsed>
1

$$$$
CHEMBL301_lig335
                    3D
 Schrodinger Suite 2021-1.
 51 54  0  0  1  0            999 V2000
    4.2883   24.1510    3.7760 N   0  0  0  0  0  0
    5.6369   24.4813    4.8327 S   0  0  0  0  0  0
    6.7811   24.8328    3.9876 O   0  0  0  0  0  0
    5.7067   23.3923    5.8129 O   0  0  0  0  0  0
    5.1664   25.9687    5.7054 C   0  0  0  0  0  0
    4.8578   27.1137    4.9709 C   0  0  0  0  0  0
    4.4103   28.2544    5.6296 C   0  0  0  0  0  0
    4.2623   28.2518    7.0168 C   0  0  0  0  0  0
    3.6575   29.3502    7.6357 N   0  0  0  0  0  0
    2.6189   29.1279    8.5549 N   0  0  0  0  0  0
    1.5585   29.8435    8.5760 C   0  0  0  0  0  0
    1.1987   30.9971    7.7368 C   0  0  0  0  0  0
    1.8523   31.5087    6.8281 O   0  0  0  0  0  0
   -0.0001   31.4125    8.1760 N   0  0  0  0  0  0
   -0.5051   30.6041    9.1640 C   0  0  0  0  0  0
   -1.7295   30.6559    9.8280 C   0  0  0  0  0  0
   -2.0102   29.6846   10.7937 C   0  0  0  0  0  0
   -1.0707   28.6889   11.1044 C   0  0  0  0  0  0
    0.1569   28.6736   10.4240 C   0  0  0  0  0  0
    0.4256   29.6313    9.4473 C   0  0  0  0  0  0
   -1.3925   27.6272   12.1200 C   0  0  0  0  0  0
   -2.5116   27.1171   12.1745 O   0  0  0  0  0  0
   -0.3722   27.2699   12.9186 N   0  0  0  0  0  0
   -0.3901   26.1314   13.8344 C   0  0  0  0  0  0
   -0.3159   24.7462   13.1403 C   0  0  0  0  0  0
    0.7316   24.5765   12.0442 C   0  0  0  0  0  0
    0.9271   23.5823   11.0892 C   0  0  0  0  0  0
    1.9423   23.8220   10.2751 N   0  0  0  0  0  0
    2.4264   24.9628   10.6910 C   0  0  0  0  0  0
    1.7545   25.4519   11.7760 N   0  0  0  0  0  0
    4.6375   27.1232    7.7533 C   0  0  0  0  0  0
    5.0859   25.9792    7.0995 C   0  0  0  0  0  0
    4.4571   24.2765    2.7664 H   0  0  0  0  0  0
    3.7048   23.3502    4.0227 H   0  0  0  0  0  0
    4.9391   27.1088    3.8931 H   0  0  0  0  0  0
    4.1373   29.1278    5.0546 H   0  0  0  0  0  0
    3.4801   30.1497    7.0328 H   0  0  0  0  0  0
   -0.4728   32.2163    7.7914 H   0  0  0  0  0  0
   -2.4615   31.4191    9.6068 H   0  0  0  0  0  0
   -2.9614   29.7128   11.3081 H   0  0  0  0  0  0
    0.8884   27.9042   10.6273 H   0  0  0  0  0  0
    0.4740   27.8219   12.8941 H   0  0  0  0  0  0
   -1.2797   26.1858   14.4660 H   0  0  0  0  0  0
    0.4581   26.2516   14.5049 H   0  0  0  0  0  0
   -1.2988   24.5252   12.7208 H   0  0  0  0  0  0
   -0.1612   23.9862   13.9064 H   0  0  0  0  0  0
    0.3234   22.6942   10.9776 H   0  0  0  0  0  0
    1.9661   26.3071   12.2801 H   0  0  0  0  0  0
    3.2580   25.5108   10.2740 H   0  0  0  0  0  0
    4.5400   27.1180    8.8298 H   0  0  0  0  0  0
    5.3367   25.1007    7.6765 H   0  0  0  0  0  0
  1  2  1  0  0  0
  1 33  1  0  0  0
  1 34  1  0  0  0
  2  3  2  0  0  0
  2  4  2  0  0  0
  2  5  1  0  0  0
  5  6  2  0  0  0
  5 32  1  0  0  0
  6  7  1  0  0  0
  6 35  1  0  0  0
  7  8  2  0  0  0
  7 36  1  0  0  0
  8  9  1  0  0  0
  8 31  1  0  0  0
  9 10  1  0  0  0
  9 37  1  0  0  0
 10 11  2  0  0  0
 11 12  1  0  0  0
 11 20  1  0  0  0
 12 13  2  0  0  0
 12 14  1  0  0  0
 14 15  1  0  0  0
 14 38  1  0  0  0
 15 16  2  0  0  0
 15 20  1  0  0  0
 16 17  1  0  0  0
 16 39  1  0  0  0
 17 18  2  0  0  0
 17 40  1  0  0  0
 18 19  1  0  0  0
 18 21  1  0  0  0
 19 20  2  0  0  0
 19 41  1  0  0  0
 21 22  2  0  0  0
 21 23  1  0  0  0
 23 24  1  0  0  0
 23 42  1  0  0  0
 24 25  1  0  0  0
 24 43  1  0  0  0
 24 44  1  0  0  0
 25 45  1  0  0  0
 25 46  1  0  0  0
 25 26  1  0  0  0
 26 27  2  0  0  0
 26 30  1  0  0  0
 27 47  1  0  0  0
 27 28  1  0  0  0
 28 29  2  0  0  0
 29 30  1  0  0  0
 29 49  1  0  0  0
 30 48  1  0  0  0
 31 32  2  0  0  0
 31 50  1  0  0  0
 32 51  1  0  0  0
M  END
> <s_m_entry_id>
33015

> <s_m_entry_name>
dock_pv.416

> <s_m_Source_Path>
/home/csk/Desktop/cluster/DUD-E-result/cdk2

> <s_m_Source_File>
dock_pv.maegz

> <i_m_Source_File_Index>
416

> <chembl_id>
CHEMBL272028

> <chembl_pref_name>
GW300660X

> <i_lp_mmshare_version>
53161

> <i_f3d_flags>
0

> <r_lp_tautomer_probability>
0.499999999999999

> <s_lp_Force_Field>
OPLS_2005

> <r_lp_Energy>
50.260876

> <b_lp_Chiralities_Consistent>
1

> <s_lp_Variant>
CHEMBL301_lig335-2

> <s_i_glide_gridfile>
glide-grid_1h00

> <i_i_glide_lignum>
515

> <i_i_glide_rotatable_bonds>
8

> <r_i_docking_score>
-7.22224109584472

> <r_i_glide_ligand_efficiency>
-0.225695034245148

> <r_i_glide_ligand_efficiency_sa>
-0.716537068741716

> <r_i_glide_ligand_efficiency_ln>
-1.61725665221646

> <r_i_glide_gscore>
-7.22224109584472

> <r_i_glide_lipo>
-2.41288040778349

> <r_i_glide_hbond>
-0.788051778538388

> <r_i_glide_metal>
0

> <r_i_glide_rewards>
-0.523700399377428

> <r_i_glide_evdw>
-49.657585144043

> <r_i_glide_ecoul>
-9.56359767913818

> <r_i_glide_erotb>
0.585686682556367

> <r_i_glide_esite>
-0.165876283628909

> <r_i_glide_emodel>
-78.1261617671934

> <r_i_glide_energy>
-59.2211828231812

> <r_i_glide_einternal>
8.94473648071289

> <i_i_glide_confnum>
4

> <i_i_glide_posenum>
43

> <r_i_glide_eff_state_penalty>
0

> <s_user_duplicate_titles>
CHEMBL301_lig335,CHEMBL301_lig335,226544,440719

> <s_m_subgroup_title>
dock_pv

> <s_m_subgroupid>
dock_pv

> <b_m_subgroup_collapsed>
1

$$$$
CHEMBL301_lig242
                    3D
 Schrodinger Suite 2021-1.
 64 68  0  0  1  0            999 V2000
   -0.5065   30.6295    9.1342 C   0  0  0  0  0  0
   -0.0320   29.3998    9.5413 C   0  0  0  0  0  0
    1.4522   30.1093    8.0770 C   0  0  0  0  0  0
    1.1598   29.1146    8.9532 O   0  0  0  0  0  0
    0.4579   31.1629    8.1760 C   0  0  0  0  0  0
   -0.7190   28.5777   10.4465 C   0  0  0  0  0  0
   -1.6939   31.1251    9.6584 C   0  0  0  0  0  0
   -1.9414   29.0805   10.9312 C   0  0  0  0  0  0
   -2.4072   30.3428   10.5593 C   0  0  0  0  0  0
    6.2388   25.8592    6.7252 N   0  0  0  0  0  0
    2.4896   30.0797    7.2203 C   0  0  0  0  0  0
    0.8771   24.4581   10.8460 N   0  0  2  0  0  0
    8.9234   24.9663    5.9142 N   0  0  0  0  0  0
    5.3219   26.9006    6.8362 C   0  0  0  0  0  0
   -0.2109   27.2091   10.9515 C   0  0  0  0  0  0
    0.4916   32.2454    7.5948 O   0  0  0  0  0  0
    6.5072   25.0884    5.4984 C   0  0  0  0  0  0
    7.3144   25.6281    7.7075 C   0  0  0  0  0  0
    3.4894   29.0085    7.1172 C   0  0  0  0  0  0
    4.8405   27.2709    8.0954 C   0  0  0  0  0  0
    4.8581   27.5959    5.7134 C   0  0  0  0  0  0
   -1.0237   26.0166   10.4012 C   0  0  0  0  0  0
    1.2968   26.9176   10.7689 C   0  0  0  0  0  0
    8.7415   25.7784    7.1182 C   0  0  0  0  0  0
    7.9162   25.3696    4.9306 C   0  0  0  0  0  0
    1.6963   25.5572   11.3760 C   0  0  0  0  0  0
   -0.5627   24.6839   11.0258 C   0  0  0  0  0  0
   -2.1667   32.3554    9.2977 O   0  0  0  0  0  0
   -2.7188   28.3408   11.7760 O   0  0  0  0  0  0
    3.9333   28.3113    8.2407 C   0  0  0  0  0  0
    3.9668   28.6519    5.8556 C   0  0  0  0  0  0
    1.2746   23.1836   11.4337 C   0  0  0  0  0  0
   10.2644   25.1773    5.3741 C   0  0  0  0  0  0
   -3.3355   30.7115   10.9693 H   0  0  0  0  0  0
    2.6222   30.9104    6.5427 H   0  0  0  0  0  0
   -0.3777   27.2582   12.0299 H   0  0  0  0  0  0
    5.7652   25.2999    4.7295 H   0  0  0  0  0  0
    6.3864   24.0263    5.7174 H   0  0  0  0  0  0
    7.2365   26.3356    8.5321 H   0  0  0  0  0  0
    7.1630   24.6520    8.1595 H   0  0  0  0  0  0
    5.1523   26.7377    8.9759 H   0  0  0  0  0  0
    5.2216   27.3592    4.7254 H   0  0  0  0  0  0
   -2.0769   26.1201   10.6597 H   0  0  0  0  0  0
   -0.9733   25.9522    9.3145 H   0  0  0  0  0  0
    1.5976   26.9052    9.7215 H   0  0  0  0  0  0
    1.8864   27.6849   11.2728 H   0  0  0  0  0  0
    9.4665   25.4520    7.8651 H   0  0  0  0  0  0
    8.9513   26.8283    6.9046 H   0  0  0  0  0  0
    8.0183   26.4258    4.6705 H   0  0  0  0  0  0
    8.0542   24.8020    4.0087 H   0  0  0  0  0  0
    1.6078   25.5862   12.4635 H   0  0  0  0  0  0
    2.7473   25.3604   11.1574 H   0  0  0  0  0  0
   -0.8035   24.6619   12.0910 H   0  0  0  0  0  0
   -1.1187   23.8609   10.5767 H   0  0  0  0  0  0
   -2.9764   32.5849    9.7586 H   0  0  0  0  0  0
   -3.2500   28.8897   12.3705 H   0  0  0  0  0  0
    3.5806   28.5651    9.2296 H   0  0  0  0  0  0
    3.6527   29.1905    4.9760 H   0  0  0  0  0  0
    1.1167   23.1716   12.5136 H   0  0  0  0  0  0
    0.7039   22.3625   10.9973 H   0  0  0  0  0  0
    2.3287   22.9847   11.2398 H   0  0  0  0  0  0
   11.0238   24.8792    6.0984 H   0  0  0  0  0  0
   10.4398   26.2236    5.1139 H   0  0  0  0  0  0
   10.4172   24.5774    4.4759 H   0  0  0  0  0  0
  1  2  1  0  0  0
  1  5  1  0  0  0
  1  7  2  0  0  0
  2  4  1  0  0  0
  2  6  2  0  0  0
  3  5  1  0  0  0
  3 11  2  0  0  0
  3  4  1  0  0  0
  5 16  2  0  0  0
  6 15  1  0  0  0
  6  8  1  0  0  0
  7  9  1  0  0  0
  7 28  1  0  0  0
  8  9  2  0  0  0
  8 29  1  0  0  0
  9 34  1  0  0  0
 10 14  1  0  0  0
 10 17  1  0  0  0
 10 18  1  0  0  0
 11 19  1  0  0  0
 11 35  1  0  0  0
 12 26  1  0  0  0
 12 32  1  0  0  0
 12 27  1  0  0  0
 13 24  1  0  0  0
 13 33  1  0  0  0
 13 25  1  0  0  0
 14 21  1  0  0  0
 14 20  2  0  0  0
 15 22  1  0  0  0
 15 23  1  0  0  0
 15 36  1  0  0  0
 17 25  1  0  0  0
 17 37  1  0  0  0
 17 38  1  0  0  0
 18 24  1  0  0  0
 18 39  1  0  0  0
 18 40  1  0  0  0
 19 30  2  0  0  0
 19 31  1  0  0  0
 20 30  1  0  0  0
 20 41  1  0  0  0
 21 31  2  0  0  0
 21 42  1  0  0  0
 22 27  1  0  0  0
 22 43  1  0  0  0
 22 44  1  0  0  0
 23 26  1  0  0  0
 23 45  1  0  0  0
 23 46  1  0  0  0
 24 47  1  0  0  0
 24 48  1  0  0  0
 25 49  1  0  0  0
 25 50  1  0  0  0
 26 51  1  0  0  0
 26 52  1  0  0  0
 27 53  1  0  0  0
 27 54  1  0  0  0
 28 55  1  0  0  0
 29 56  1  0  0  0
 30 57  1  0  0  0
 31 58  1  0  0  0
 32 59  1  0  0  0
 32 60  1  0  0  0
 32 61  1  0  0  0
 33 62  1  0  0  0
 33 63  1  0  0  0
 33 64  1  0  0  0
M  END
> <s_m_entry_id>
33016

> <s_m_entry_name>
dock_pv.417

> <s_m_Source_Path>
/home/csk/Desktop/cluster/DUD-E-result/cdk2

> <s_m_Source_File>
dock_pv.maegz

> <i_m_Source_File_Index>
417

> <chembl_id>
CHEMBL46181

> <chembl_pref_name>
None

> <i_lp_mmshare_version>
53161

> <i_f3d_flags>
0

> <r_lp_tautomer_probability>
1

> <s_lp_Force_Field>
OPLS_2005

> <r_lp_Energy>
68.941129

> <b_lp_Chiralities_Consistent>
1

> <s_lp_Variant>
CHEMBL301_lig242-1

> <s_i_glide_gridfile>
glide-grid_1h00

> <i_i_glide_lignum>
385

> <i_i_glide_rotatable_bonds>
5

> <r_i_docking_score>
-7.22069365443092

> <r_i_glide_ligand_efficiency>
-0.218808898619119

> <r_i_glide_ligand_efficiency_sa>
-0.701837053211407

> <r_i_glide_ligand_efficiency_ln>
-1.60584488199459

> <r_i_glide_gscore>
-7.22069365443092

> <r_i_glide_lipo>
-3.41974174657339

> <r_i_glide_hbond>
-0.212647580725924

> <r_i_glide_metal>
0

> <r_i_glide_rewards>
-1.03690329705395

> <r_i_glide_evdw>
-44.3995018005371

> <r_i_glide_ecoul>
-4.1929726600647

> <r_i_glide_erotb>
0.297519958958904

> <r_i_glide_esite>
0

> <r_i_glide_emodel>
-67.1079661931917

> <r_i_glide_energy>
-48.5924744606018

> <r_i_glide_einternal>
4.99453115463257

> <i_i_glide_confnum>
5

> <i_i_glide_posenum>
304

> <r_i_glide_eff_state_penalty>
0

> <s_user_duplicate_titles>
CHEMBL301_lig242

> <s_m_subgroup_title>
dock_pv

> <s_m_subgroupid>
dock_pv

> <b_m_subgroup_collapsed>
1

$$$$
CHEMBL301_lig1199
                    3D
 Schrodinger Suite 2021-1.
 27 29  0  0  1  0            999 V2000
    0.8015   30.2158    8.3964 C   0  0  0  0  0  0
    0.9083   31.4587    7.7760 C   0  0  0  0  0  0
    0.0573   32.5051    8.0980 C   0  0  0  0  0  0
   -0.9997   32.3368    8.9851 C   0  0  0  0  0  0
   -0.2237   30.0402    9.3449 C   0  0  0  0  0  0
   -1.1570   31.0957    9.6174 C   0  0  0  0  0  0
   -2.1062   30.5927   10.5487 C   0  0  0  0  0  0
   -1.7175   29.3131   10.8546 C   0  0  0  0  0  0
   -0.5758   28.9569   10.1594 N   0  0  0  0  0  0
    0.1072   27.7255   10.3430 C   0  0  0  0  0  0
    1.4966   27.6148   10.1763 C   0  0  0  0  0  0
    2.0700   26.3650   10.4183 C   0  0  0  0  0  0
    1.3389   25.2859   10.8023 N   0  0  0  0  0  0
    0.0078   25.4891   10.9456 C   0  0  0  0  0  0
   -0.6473   26.6546   10.7273 N   0  0  0  0  0  0
   -0.7545   24.4119   11.3736 N   0  0  0  0  0  0
    1.9016   31.6839    6.8616 O   0  0  0  0  0  0
    1.4931   29.4304    8.1436 H   0  0  0  0  0  0
    0.1943   33.4523    7.6038 H   0  0  0  0  0  0
   -1.6794   33.1514    9.1882 H   0  0  0  0  0  0
   -2.9549   31.1074   10.9761 H   0  0  0  0  0  0
   -2.1635   28.6218   11.5585 H   0  0  0  0  0  0
    2.1261   28.4542    9.9255 H   0  0  0  0  0  0
    3.1380   26.2264   10.3281 H   0  0  0  0  0  0
   -0.2799   23.5726   11.6637 H   0  0  0  0  0  0
   -1.7343   24.5662   11.5615 H   0  0  0  0  0  0
    2.5491   30.9768    6.7864 H   0  0  0  0  0  0
  1  5  1  0  0  0
  1  2  2  0  0  0
  1 18  1  0  0  0
  2  3  1  0  0  0
  2 17  1  0  0  0
  3  4  2  0  0  0
  3 19  1  0  0  0
  4  6  1  0  0  0
  4 20  1  0  0  0
  5  6  2  0  0  0
  5  9  1  0  0  0
  6  7  1  0  0  0
  7  8  2  0  0  0
  7 21  1  0  0  0
  8  9  1  0  0  0
  8 22  1  0  0  0
  9 10  1  0  0  0
 10 11  2  0  0  0
 10 15  1  0  0  0
 11 12  1  0  0  0
 11 23  1  0  0  0
 12 13  2  0  0  0
 12 24  1  0  0  0
 13 14  1  0  0  0
 14 15  2  0  0  0
 14 16  1  0  0  0
 16 25  1  0  0  0
 16 26  1  0  0  0
 17 27  1  0  0  0
M  END
> <s_m_entry_id>
33017

> <s_m_entry_name>
dock_pv.418

> <s_m_Source_Path>
/home/csk/Desktop/cluster/DUD-E-result/cdk2

> <s_m_Source_File>
dock_pv.maegz

> <i_m_Source_File_Index>
418

> <chembl_id>
CHEMBL2348173

> <chembl_pref_name>
None

> <i_lp_mmshare_version>
53161

> <i_f3d_flags>
0

> <r_lp_tautomer_probability>
1

> <s_lp_Force_Field>
OPLS_2005

> <r_lp_Energy>
1.485218

> <b_lp_Chiralities_Consistent>
1

> <s_lp_Variant>
CHEMBL301_lig1199-1

> <s_i_glide_gridfile>
glide-grid_1h00

> <i_i_glide_lignum>
1613

> <i_i_glide_rotatable_bonds>
2

> <r_i_docking_score>
-7.2133497990331

> <r_i_glide_ligand_efficiency>
-0.424314694060771

> <r_i_glide_ligand_efficiency_sa>
-1.09103256045387

> <r_i_glide_ligand_efficiency_ln>
-1.88180232916546

> <r_i_glide_gscore>
-7.2133497990331

> <r_i_glide_lipo>
-1.68745896966083

> <r_i_glide_hbond>
-0.293873101576232

> <r_i_glide_metal>
0

> <r_i_glide_rewards>
-3.3350828755422

> <r_i_glide_evdw>
-28.5961608886719

> <r_i_glide_ecoul>
-5.32721090316772

> <r_i_glide_erotb>
0.331954827654907

> <r_i_glide_esite>
0

> <r_i_glide_emodel>
-48.7984150936053

> <r_i_glide_energy>
-33.9233717918396

> <r_i_glide_einternal>
0.198455959558487

> <i_i_glide_confnum>
4

> <i_i_glide_posenum>
379

> <r_i_glide_eff_state_penalty>
0

> <s_user_duplicate_titles>
CHEMBL301_lig1199

> <s_m_subgroup_title>
dock_pv

> <s_m_subgroupid>
dock_pv

> <b_m_subgroup_collapsed>
1

$$$$
CHEMBL301_lig403
                    3D
 Schrodinger Suite 2021-1.
 43 46  0  0  1  0            999 V2000
    6.4640   25.1379    6.7844 S   0  0  0  0  0  0
    0.5861   30.6409    8.3907 C   0  0  0  0  0  0
    0.7763   31.9413    7.7552 C   0  0  0  0  0  0
    6.9556   25.1551    5.0841 N   0  0  0  0  0  0
   -0.2448   32.7118    8.1866 N   0  0  0  0  0  0
    8.0588   25.7904    4.5763 C   0  0  0  0  0  0
    1.5751   29.7198    8.4239 C   0  0  0  0  0  0
   -0.7980   30.6520    8.9810 C   0  0  2  0  0  0
   -0.8937   32.1287    9.3383 C   0  0  2  0  0  0
    9.1700   26.0641    5.2194 N   0  0  0  0  0  0
    5.3138   26.4824    7.0243 C   0  0  0  0  0  0
    8.0494   26.2521    2.9053 S   0  0  0  0  0  0
    5.7079   23.8963    6.9777 O   0  0  0  0  0  0
    7.6328   25.4520    7.6131 O   0  0  0  0  0  0
    2.8243   29.7508    7.8271 N   0  0  0  0  0  0
    1.6580   32.2940    6.9758 O   0  0  0  0  0  0
   10.0552   26.6520    4.4378 C   0  0  0  0  0  0
   -1.2689   29.8305   10.1787 C   0  0  0  0  0  0
   -2.3207   32.4520    9.7218 C   0  0  0  0  0  0
    9.6583   26.8681    3.1208 C   0  0  0  0  0  0
   -2.3419   30.2859   10.8652 C   0  0  0  0  0  0
   -2.9719   31.5656   10.5090 C   0  0  0  0  0  0
    5.2393   27.5448    6.1274 C   0  0  0  0  0  0
    4.5360   26.4848    8.1757 C   0  0  0  0  0  0
    3.6578   28.6520    7.5863 C   0  0  0  0  0  0
    4.4132   28.6301    6.4122 C   0  0  0  0  0  0
    3.7261   27.5753    8.4746 C   0  0  0  0  0  0
    6.3091   24.6743    4.4775 H   0  0  0  0  0  0
   -0.3133   33.6909    7.9448 H   0  0  0  0  0  0
    1.3977   28.8004    8.9633 H   0  0  0  0  0  0
   -1.4974   30.4174    8.1759 H   0  0  0  0  0  0
   -0.3420   32.3714   10.2437 H   0  0  0  0  0  0
    3.0158   30.5340    7.2110 H   0  0  0  0  0  0
   11.0152   26.9283    4.8522 H   0  0  0  0  0  0
   -0.7997   28.8930   10.4397 H   0  0  0  0  0  0
   -2.7421   33.3967    9.4324 H   0  0  0  0  0  0
   10.2064   27.3143    2.3033 H   0  0  0  0  0  0
   -2.7098   29.7196   11.7095 H   0  0  0  0  0  0
   -3.9795   31.7823   10.8340 H   0  0  0  0  0  0
    5.8337   27.5512    5.2260 H   0  0  0  0  0  0
    4.5915   25.6616    8.8747 H   0  0  0  0  0  0
    4.3621   29.4517    5.7117 H   0  0  0  0  0  0
    3.1675   27.5707    9.3981 H   0  0  0  0  0  0
  1  4  1  0  0  0
  1 11  1  0  0  0
  1 13  2  0  0  0
  1 14  2  0  0  0
  2  7  2  0  0  0
  2  3  1  0  0  0
  2  8  1  0  0  0
  3  5  1  0  0  0
  3 16  2  0  0  0
  4  6  1  0  0  0
  4 28  1  0  0  0
  5  9  1  0  0  0
  5 29  1  0  0  0
  6 10  2  0  0  0
  6 12  1  0  0  0
  7 15  1  0  0  0
  7 30  1  0  0  0
  8  9  1  0  0  0
  8 18  1  0  0  0
  8 31  1  0  0  0
  9 19  1  0  0  0
  9 32  1  0  0  0
 10 17  1  0  0  0
 11 23  1  0  0  0
 11 24  2  0  0  0
 12 20  1  0  0  0
 15 25  1  0  0  0
 15 33  1  0  0  0
 17 20  2  0  0  0
 17 34  1  0  0  0
 18 21  2  0  0  0
 18 35  1  0  0  0
 19 22  2  0  0  0
 19 36  1  0  0  0
 20 37  1  0  0  0
 21 22  1  0  0  0
 21 38  1  0  0  0
 22 39  1  0  0  0
 23 26  2  0  0  0
 23 40  1  0  0  0
 24 27  1  0  0  0
 24 41  1  0  0  0
 25 27  2  0  0  0
 25 26  1  0  0  0
 26 42  1  0  0  0
 27 43  1  0  0  0
M  END
> <s_m_entry_id>
33018

> <s_m_entry_name>
dock_pv.419

> <s_m_Source_Path>
/home/csk/Desktop/cluster/DUD-E-result/cdk2

> <s_m_Source_File>
dock_pv.maegz

> <i_m_Source_File_Index>
419

> <chembl_id>
CHEMBL191845

> <chembl_pref_name>
None

> <i_lp_mmshare_version>
53161

> <i_f3d_flags>
0

> <r_lp_tautomer_probability>
0.499999999999422

> <s_lp_Force_Field>
OPLS_2005

> <r_lp_Energy>
44.335637

> <b_lp_Chiralities_Consistent>
1

> <s_lp_Variant>
CHEMBL301_lig403-1

> <s_i_glide_gridfile>
glide-grid_1h00

> <i_i_glide_lignum>
587

> <i_i_glide_rotatable_bonds>
5

> <r_i_docking_score>
-7.21083533275686

> <r_i_glide_ligand_efficiency>
-0.267067975287291

> <r_i_glide_ligand_efficiency_sa>
-0.801203924981661

> <r_i_glide_ligand_efficiency_ln>
-1.67856358555437

> <r_i_glide_gscore>
-7.21083533275686

> <r_i_glide_lipo>
-2.73108507385938

> <r_i_glide_hbond>
-0.564248474193126

> <r_i_glide_metal>
0

> <r_i_glide_rewards>
-0.955708285559889

> <r_i_glide_evdw>
-37.2404670715332

> <r_i_glide_ecoul>
-10.1373023986816

> <r_i_glide_erotb>
0.427831866000864

> <r_i_glide_esite>
-0.00500665176642785

> <r_i_glide_emodel>
-58.8230232095573

> <r_i_glide_energy>
-47.3777694702148

> <r_i_glide_einternal>
9.68780422210693

> <i_i_glide_confnum>
18

> <i_i_glide_posenum>
269

> <r_i_glide_eff_state_penalty>
0

> <s_user_duplicate_titles>
CHEMBL301_lig403

> <s_m_subgroup_title>
dock_pv

> <s_m_subgroupid>
dock_pv

> <b_m_subgroup_collapsed>
1

$$$$
CHEMBL301_lig191
                    3D
 Schrodinger Suite 2021-1.
 39 41  0  0  1  0            999 V2000
   -0.9892   30.8020    9.0520 C   0  0  0  0  0  0
   -0.3420   31.6821    8.1765 C   0  0  0  0  0  0
    0.9420   31.3942    7.7090 C   0  0  0  0  0  0
   -0.3108   29.6875    9.5440 C   0  0  0  0  0  0
    0.9859   29.4290    9.1028 C   0  0  0  0  0  0
    1.5894   30.2519    8.1779 C   0  0  0  0  0  0
    2.8438   29.7597    7.8943 N   0  0  0  0  0  0
    3.1001   28.6289    8.5746 C   0  0  0  0  0  0
    1.8911   28.3464    9.3760 C   0  0  0  0  0  0
    4.1331   27.9639    8.5148 O   0  0  0  0  0  0
    1.6301   27.3525   10.1346 N   0  0  0  0  0  0
    2.4596   26.2314   10.1781 N   0  0  0  0  0  0
    2.0309   24.9961   10.6634 C   0  0  0  0  0  0
    1.1886   24.9142   11.7748 C   0  0  0  0  0  0
    0.7999   23.6738   12.2689 C   0  0  0  0  0  0
    1.2526   22.5108   11.6454 C   0  0  0  0  0  0
    2.0575   22.5854   10.5070 C   0  0  0  0  0  0
    2.4563   23.8303   10.0268 C   0  0  0  0  0  0
    0.8420   20.9119   12.3268 S   0  0  0  0  0  0
   -0.3420   20.2521   11.2362 N   0  0  0  0  0  0
    2.0490   20.0871   12.2197 O   0  0  0  0  0  0
    0.1866   21.1383   13.6188 O   0  0  0  0  0  0
   -2.7086   31.0375    9.4575 S   0  0  0  0  0  0
   -2.7423   32.3659   10.5761 N   0  0  0  0  0  0
   -3.1675   29.8518   10.1811 O   0  0  0  0  0  0
   -3.3674   31.4519    8.2183 O   0  0  0  0  0  0
   -0.8526   32.5617    7.8133 H   0  0  0  0  0  0
    1.4164   32.0592    7.0030 H   0  0  0  0  0  0
   -0.8007   29.0074   10.2273 H   0  0  0  0  0  0
    3.5098   30.1892    7.2648 H   0  0  0  0  0  0
    3.2658   26.2888    9.5630 H   0  0  0  0  0  0
    0.8590   25.8162   12.2718 H   0  0  0  0  0  0
    0.1674   23.6255   13.1442 H   0  0  0  0  0  0
    2.3888   21.6853   10.0080 H   0  0  0  0  0  0
    3.0819   23.8890    9.1469 H   0  0  0  0  0  0
    0.1029   19.6901   10.5091 H   0  0  0  0  0  0
   -1.0069   19.6379   11.7380 H   0  0  0  0  0  0
   -3.2620   33.1754   10.2266 H   0  0  0  0  0  0
   -3.0724   32.0597   11.5016 H   0  0  0  0  0  0
  1  2  2  0  0  0
  1  4  1  0  0  0
  1 23  1  0  0  0
  2  3  1  0  0  0
  2 27  1  0  0  0
  3  6  2  0  0  0
  3 28  1  0  0  0
  4  5  2  0  0  0
  4 29  1  0  0  0
  5  9  1  0  0  0
  5  6  1  0  0  0
  6  7  1  0  0  0
  7  8  1  0  0  0
  7 30  1  0  0  0
  8  9  1  0  0  0
  8 10  2  0  0  0
  9 11  2  0  0  0
 11 12  1  0  0  0
 12 13  1  0  0  0
 12 31  1  0  0  0
 13 14  2  0  0  0
 13 18  1  0  0  0
 14 15  1  0  0  0
 14 32  1  0  0  0
 15 16  2  0  0  0
 15 33  1  0  0  0
 16 17  1  0  0  0
 16 19  1  0  0  0
 17 18  2  0  0  0
 17 34  1  0  0  0
 18 35  1  0  0  0
 19 20  1  0  0  0
 19 21  2  0  0  0
 19 22  2  0  0  0
 20 36  1  0  0  0
 20 37  1  0  0  0
 23 24  1  0  0  0
 23 25  2  0  0  0
 23 26  2  0  0  0
 24 38  1  0  0  0
 24 39  1  0  0  0
M  END
> <s_m_entry_id>
33019

> <s_m_entry_name>
dock_pv.420

> <s_m_Source_Path>
/home/csk/Desktop/cluster/DUD-E-result/cdk2

> <s_m_Source_File>
dock_pv.maegz

> <i_m_Source_File_Index>
420

> <chembl_id>
CHEMBL272387

> <chembl_pref_name>
None

> <i_lp_mmshare_version>
53161

> <i_f3d_flags>
0

> <r_lp_tautomer_probability>
1

> <s_lp_Force_Field>
OPLS_2005

> <r_lp_Energy>
49.460374

> <b_lp_Chiralities_Consistent>
1

> <s_lp_Variant>
CHEMBL301_lig191-1

> <s_i_glide_gridfile>
glide-grid_1h00

> <i_i_glide_lignum>
332

> <i_i_glide_rotatable_bonds>
4

> <r_i_docking_score>
-7.20953080831763

> <r_i_glide_ligand_efficiency>
-0.277289646473755

> <r_i_glide_ligand_efficiency_sa>
-0.821469486596426

> <r_i_glide_ligand_efficiency_ln>
-1.69313465393331

> <r_i_glide_gscore>
-7.20953080831763

> <r_i_glide_lipo>
-1.53974498988278

> <r_i_glide_hbond>
-0.461938535019148

> <r_i_glide_metal>
0

> <r_i_glide_rewards>
-1.82572248849413

> <r_i_glide_evdw>
-38.3462944030762

> <r_i_glide_ecoul>
-9.76803874969482

> <r_i_glide_erotb>
0.250134018927136

> <r_i_glide_esite>
-0.249738281240665

> <r_i_glide_emodel>
-66.0927522149986

> <r_i_glide_energy>
-48.114333152771

> <r_i_glide_einternal>
7.35265016555786

> <i_i_glide_confnum>
3

> <i_i_glide_posenum>
214

> <r_i_glide_eff_state_penalty>
0

> <s_user_duplicate_titles>
CHEMBL301_lig191,440875,136957

> <s_m_subgroup_title>
dock_pv

> <s_m_subgroupid>
dock_pv

> <b_m_subgroup_collapsed>
1

$$$$
CHEMBL301_lig1395
                    3D
 Schrodinger Suite 2021-1.
 40 41  0  0  1  0            999 V2000
   -1.1652   26.4666   10.8719 C   0  0  0  0  0  0
   -0.2887   27.6398   10.4013 C   0  0  2  0  0  0
    1.0153   27.7485   11.2105 C   0  0  0  0  0  0
    1.8617   26.6385   10.9760 O   0  0  0  0  0  0
   -1.2122   29.2120   10.3533 S   0  0  0  0  0  0
   -0.3774   30.3262    9.2497 C   0  0  0  0  0  0
    0.7022   29.8516    8.5757 N   0  0  0  0  0  0
    1.3157   30.6870    7.6998 C   0  0  0  0  0  0
    2.4148   30.2373    6.9578 N   0  0  0  0  0  0
    3.2585   29.1219    7.0856 C   0  0  0  0  0  0
    3.9154   28.6520    5.9433 C   0  0  0  0  0  0
    4.8550   27.6293    6.0365 C   0  0  0  0  0  0
    5.1349   27.0637    7.2804 C   0  0  0  0  0  0
    4.4504   27.5026    8.4144 C   0  0  0  0  0  0
    3.5263   28.5371    8.3227 C   0  0  0  0  0  0
    6.3767   25.7828    7.4553 S   0  0  2  0  0  0
    5.5379   24.5100    7.3755 N   0  0  0  0  0  0
    7.2581   26.1242    8.5759 O   0  0  0  0  0  0
    7.3713   25.6914    5.8610 C   0  0  0  0  0  0
    0.9395   31.9683    7.4581 N   0  0  0  0  0  0
   -0.1141   32.4393    8.1760 C   0  0  0  0  0  0
   -0.8267   31.6444    9.0767 C   0  0  0  0  0  0
   -2.3294   32.3690   10.0045 Br  0  0  0  0  0  0
   -0.5872   25.5498   10.9862 H   0  0  0  0  0  0
   -1.6401   26.6802   11.8300 H   0  0  0  0  0  0
   -1.9474   26.2531   10.1467 H   0  0  0  0  0  0
   -0.0102   27.4315    9.3718 H   0  0  0  0  0  0
    0.7942   27.8283   12.2746 H   0  0  0  0  0  0
    1.5583   28.6515   10.9402 H   0  0  0  0  0  0
    2.5948   26.6920   11.5996 H   0  0  0  0  0  0
    2.7847   30.9313    6.3242 H   0  0  0  0  0  0
    3.7346   29.1069    4.9793 H   0  0  0  0  0  0
    5.3727   27.3091    5.1450 H   0  0  0  0  0  0
    4.6357   27.0554    9.3749 H   0  0  0  0  0  0
    3.0449   28.8932    9.2188 H   0  0  0  0  0  0
    6.1052   23.6898    7.2307 H   0  0  0  0  0  0
    6.7112   25.4458    5.0305 H   0  0  0  0  0  0
    7.8550   26.6518    5.6926 H   0  0  0  0  0  0
    8.1307   24.9189    5.9695 H   0  0  0  0  0  0
   -0.3996   33.4656    7.9924 H   0  0  0  0  0  0
  1  2  1  0  0  0
  1 24  1  0  0  0
  1 25  1  0  0  0
  1 26  1  0  0  0
  2  3  1  0  0  0
  2  5  1  0  0  0
  2 27  1  0  0  0
  3  4  1  0  0  0
  3 28  1  0  0  0
  3 29  1  0  0  0
  4 30  1  0  0  0
  5  6  1  0  0  0
  6  7  2  0  0  0
  6 22  1  0  0  0
  7  8  1  0  0  0
  8  9  1  0  0  0
  8 20  2  0  0  0
  9 10  1  0  0  0
  9 31  1  0  0  0
 10 11  2  0  0  0
 10 15  1  0  0  0
 11 12  1  0  0  0
 11 32  1  0  0  0
 12 13  2  0  0  0
 12 33  1  0  0  0
 13 14  1  0  0  0
 13 16  1  0  0  0
 14 15  2  0  0  0
 14 34  1  0  0  0
 15 35  1  0  0  0
 16 17  2  0  0  0
 16 18  2  0  0  0
 16 19  1  0  0  0
 17 36  1  0  0  0
 19 37  1  0  0  0
 19 38  1  0  0  0
 19 39  1  0  0  0
 20 21  1  0  0  0
 21 22  2  0  0  0
 21 40  1  0  0  0
 22 23  1  0  0  0
M  END
> <s_m_entry_id>
33020

> <s_m_entry_name>
dock_pv.421

> <s_m_Source_Path>
/home/csk/Desktop/cluster/DUD-E-result/cdk2

> <s_m_Source_File>
dock_pv.maegz

> <i_m_Source_File_Index>
421

> <chembl_id>
CHEMBL3648106

> <chembl_pref_name>
None

> <i_lp_mmshare_version>
53161

> <i_f3d_flags>
0

> <r_lp_tautomer_probability>
0.999999987636

> <s_lp_Force_Field>
OPLS_2005

> <r_lp_Energy>
0.707952

> <b_lp_Chiralities_Consistent>
1

> <s_lp_Variant>
CHEMBL301_lig1395-1

> <s_i_glide_gridfile>
glide-grid_1h00

> <i_i_glide_lignum>
1890

> <i_i_glide_rotatable_bonds>
7

> <r_i_docking_score>
-7.20645922913806

> <r_i_glide_ligand_efficiency>
-0.31332431431035

> <r_i_glide_ligand_efficiency_sa>
-0.891052670520542

> <r_i_glide_ligand_efficiency_ln>
-1.74258718616511

> <r_i_glide_gscore>
-7.20645922913806

> <r_i_glide_lipo>
-2.56499406209455

> <r_i_glide_hbond>
-0.458825455632742

> <r_i_glide_metal>
0

> <r_i_glide_rewards>
-1.58529672748687

> <r_i_glide_evdw>
-38.714916229248

> <r_i_glide_ecoul>
-8.19304180145264

> <r_i_glide_erotb>
0.567359097756403

> <r_i_glide_esite>
0

> <r_i_glide_emodel>
-67.0392189519005

> <r_i_glide_energy>
-46.9079580307007

> <r_i_glide_einternal>
3.15805983543396

> <i_i_glide_confnum>
19

> <i_i_glide_posenum>
126

> <r_i_glide_eff_state_penalty>
0

> <s_user_duplicate_titles>
CHEMBL301_lig1395

> <s_m_subgroup_title>
dock_pv

> <s_m_subgroupid>
dock_pv

> <b_m_subgroup_collapsed>
1

$$$$
CHEMBL301_lig287
                    3D
 Schrodinger Suite 2021-1.
 39 41  0  0  1  0            999 V2000
    7.0274   27.1527    1.2460 S   0  0  0  0  0  0
    2.9428   27.9902    9.0531 C   0  0  0  0  0  0
    2.3701   29.9136    8.0697 N   0  0  0  0  0  0
    3.8819   28.2289    8.0727 C   0  0  0  0  0  0
    2.0032   29.0322    8.9761 C   0  0  0  0  0  0
    3.5187   29.4494    7.5680 N   0  0  0  0  0  0
    6.4581   25.9946    2.4613 N   0  0  0  0  0  0
    0.7285   29.1618    9.7538 C   0  0  0  0  0  0
    4.9571   27.4932    7.6497 N   0  0  0  0  0  0
    6.0582   28.2520    1.1504 O   0  0  0  0  0  0
    7.3828   26.3731    0.0571 O   0  0  0  0  0  0
   -0.3388   29.9320    9.2702 C   0  0  0  0  0  0
    6.0386   26.3632    3.7448 C   0  0  0  0  0  0
    5.2584   27.1111    6.3278 C   0  0  0  0  0  0
    8.6129   27.7994    2.0172 C   0  0  0  0  0  0
   -1.5275   30.0318    9.9935 C   0  0  0  0  0  0
   -2.9787   31.0524    9.3066 Br  0  0  0  0  0  0
    6.7289   25.8687    4.8520 C   0  0  0  0  0  0
    6.3444   26.2513    6.1371 C   0  0  0  0  0  0
    4.9211   27.1790    3.9275 C   0  0  0  0  0  0
    4.5276   27.5495    5.2134 C   0  0  0  0  0  0
    0.5795   28.4963   10.9782 C   0  0  0  0  0  0
   -0.6047   28.6035   11.7083 C   0  0  0  0  0  0
   -1.6578   29.3719   11.2152 C   0  0  0  0  0  0
    2.9077   27.1273    9.6993 H   0  0  0  0  0  0
    4.0402   29.9609    6.8647 H   0  0  0  0  0  0
    6.6568   25.0226    2.2766 H   0  0  0  0  0  0
    5.4017   26.8924    8.3309 H   0  0  0  0  0  0
   -0.2529   30.4489    8.3246 H   0  0  0  0  0  0
    9.0557   28.5375    1.3494 H   0  0  0  0  0  0
    9.3019   26.9680    2.1529 H   0  0  0  0  0  0
    8.3756   28.2517    2.9756 H   0  0  0  0  0  0
    7.5849   25.2219    4.7200 H   0  0  0  0  0  0
    6.9108   25.8906    6.9838 H   0  0  0  0  0  0
    4.3609   27.5245    3.0714 H   0  0  0  0  0  0
    3.6632   28.1848    5.3259 H   0  0  0  0  0  0
    1.3856   27.9004   11.3792 H   0  0  0  0  0  0
   -0.7041   28.0952   12.6563 H   0  0  0  0  0  0
   -2.5776   29.4519   11.7758 H   0  0  0  0  0  0
  1  7  1  0  0  0
  1 10  2  0  0  0
  1 11  2  0  0  0
  1 15  1  0  0  0
  2  4  2  0  0  0
  2  5  1  0  0  0
  2 25  1  0  0  0
  3  5  2  0  0  0
  3  6  1  0  0  0
  4  6  1  0  0  0
  4  9  1  0  0  0
  5  8  1  0  0  0
  6 26  1  0  0  0
  7 13  1  0  0  0
  7 27  1  0  0  0
  8 12  2  0  0  0
  8 22  1  0  0  0
  9 14  1  0  0  0
  9 28  1  0  0  0
 12 16  1  0  0  0
 12 29  1  0  0  0
 13 18  2  0  0  0
 13 20  1  0  0  0
 14 21  1  0  0  0
 14 19  2  0  0  0
 15 30  1  0  0  0
 15 31  1  0  0  0
 15 32  1  0  0  0
 16 17  1  0  0  0
 16 24  2  0  0  0
 18 19  1  0  0  0
 18 33  1  0  0  0
 19 34  1  0  0  0
 20 21  2  0  0  0
 20 35  1  0  0  0
 21 36  1  0  0  0
 22 23  2  0  0  0
 22 37  1  0  0  0
 23 24  1  0  0  0
 23 38  1  0  0  0
 24 39  1  0  0  0
M  END
> <s_m_entry_id>
33021

> <s_m_entry_name>
dock_pv.422

> <s_m_Source_Path>
/home/csk/Desktop/cluster/DUD-E-result/cdk2

> <s_m_Source_File>
dock_pv.maegz

> <i_m_Source_File_Index>
422

> <chembl_id>
CHEMBL418985

> <chembl_pref_name>
None

> <i_lp_mmshare_version>
53161

> <i_f3d_flags>
0

> <r_lp_tautomer_probability>
0.157399999843308

> <s_lp_Force_Field>
OPLS_2005

> <r_lp_Energy>
7.57964

> <b_lp_Chiralities_Consistent>
1

> <s_lp_Variant>
CHEMBL301_lig287-2

> <s_i_glide_gridfile>
glide-grid_1h00

> <i_i_glide_lignum>
457

> <i_i_glide_rotatable_bonds>
5

> <r_i_docking_score>
-7.20563793456516

> <r_i_glide_ligand_efficiency>
-0.300234913940215

> <r_i_glide_ligand_efficiency_sa>
-0.866027350325686

> <r_i_glide_ligand_efficiency_ln>
-1.72463980292113

> <r_i_glide_gscore>
-7.20563793456516

> <r_i_glide_lipo>
-2.40356679830174

> <r_i_glide_hbond>
-0.32

> <r_i_glide_metal>
0

> <r_i_glide_rewards>
-1.63214159090909

> <r_i_glide_evdw>
-41.3953285217285

> <r_i_glide_ecoul>
-7.079674243927

> <r_i_glide_erotb>
0.474322699560288

> <r_i_glide_esite>
-0.192534682239144

> <r_i_glide_emodel>
-66.6224643120189

> <r_i_glide_energy>
-48.4750027656555

> <r_i_glide_einternal>
8.67539882659912

> <i_i_glide_confnum>
7

> <i_i_glide_posenum>
223

> <r_i_glide_eff_state_penalty>
0

> <s_user_duplicate_titles>
CHEMBL301_lig287,166104

> <s_m_subgroup_title>
dock_pv

> <s_m_subgroupid>
dock_pv

> <b_m_subgroup_collapsed>
1

$$$$
CHEMBL301_lig1239
                    3D
 Schrodinger Suite 2021-1.
 61 64  0  0  1  0            999 V2000
    5.5096   25.9883    7.0398 S   0  0  0  0  0  0
    6.6546   26.2523    7.9159 O   0  0  0  0  0  0
    5.4742   24.7583    6.2431 O   0  0  0  0  0  0
   -0.1187   29.3575    9.6231 C   0  0  0  0  0  0
   -1.1377   28.7955   10.3916 C   0  0  0  0  0  0
   -0.9787   27.5466   10.9710 C   0  0  0  0  0  0
    1.0891   28.6764    9.4568 C   0  0  0  0  0  0
    1.2859   27.3840   10.0020 C   0  0  0  0  0  0
    0.2157   26.8231   10.7660 C   0  0  0  0  0  0
    0.2759   25.5787   11.2854 N   0  0  0  0  0  0
    1.3742   24.8153   11.0600 C   0  0  0  0  0  0
    2.4578   25.2820   10.3246 C   0  0  0  0  0  0
    2.4510   26.5694    9.7763 C   0  0  0  0  0  0
   -0.2511   30.6874    8.9760 C   0  0  0  0  0  0
    3.6107   26.9857    8.8996 C   0  0  0  0  0  0
    1.3937   23.4274   11.6500 C   0  0  0  0  0  0
    0.2655   23.0767   12.2912 N   0  0  0  0  0  0
    2.3837   22.6991   11.5720 O   0  0  0  0  0  0
   -0.0175   21.9086   13.1270 C   0  0  2  0  0  0
    0.1619   20.6504   12.2847 C   0  0  0  0  0  0
   -1.4429   22.0485   13.7411 C   0  0  0  0  0  0
   -1.8765   23.3934   14.3580 C   0  0  0  0  0  0
   -0.5689   20.6761   11.1353 O   0  0  0  0  0  0
    0.9246   19.7459   12.6265 O   0  0  0  0  0  0
   -0.4568   19.6348   10.1741 C   0  0  0  0  0  0
   -3.2253   23.5592   14.7387 C   0  0  0  0  0  0
   -3.6879   24.7865   15.2591 C   0  0  0  0  0  0
   -2.8086   25.8793   15.3756 C   0  0  0  0  0  0
   -1.4688   25.7392   14.9759 C   0  0  0  0  0  0
   -0.9965   24.4917   14.5314 C   0  0  0  0  0  0
   -3.2326   27.0519   15.9270 O   0  0  0  0  0  0
    0.5408   31.2400    7.9670 C   0  0  0  0  0  0
    0.3078   32.5974    7.7761 C   0  0  0  0  0  0
   -0.7425   33.0521    8.5551 C   0  0  0  0  0  0
   -1.4279   31.8366    9.5569 S   0  0  0  0  0  0
    4.0970   28.1157    8.9324 O   0  0  0  0  0  0
    4.0640   25.9764    8.0203 N   0  0  0  0  0  0
    5.2516   27.4468    5.8845 C   0  0  0  0  0  0
   -2.0723   29.3180   10.5412 H   0  0  0  0  0  0
   -1.7774   27.1125   11.5553 H   0  0  0  0  0  0
    1.8800   29.1254    8.8794 H   0  0  0  0  0  0
    3.3187   24.6453   10.1763 H   0  0  0  0  0  0
   -0.4339   23.8017   12.3615 H   0  0  0  0  0  0
    0.6982   21.9117   13.9510 H   0  0  0  0  0  0
   -1.5736   21.2761   14.5009 H   0  0  0  0  0  0
   -2.1867   21.8197   12.9757 H   0  0  0  0  0  0
   -1.1112   19.8469    9.3295 H   0  0  0  0  0  0
    0.5647   19.5579    9.7999 H   0  0  0  0  0  0
   -0.7422   18.6643   10.5764 H   0  0  0  0  0  0
   -3.9164   22.7377   14.6298 H   0  0  0  0  0  0
   -4.7187   24.8897   15.5645 H   0  0  0  0  0  0
   -0.7823   26.5686   15.0738 H   0  0  0  0  0  0
    0.0548   24.4199   14.3147 H   0  0  0  0  0  0
   -3.5264   27.7193   15.2750 H   0  0  0  0  0  0
    1.3232   30.7069    7.4451 H   0  0  0  0  0  0
    0.8550   33.2157    7.0808 H   0  0  0  0  0  0
   -1.1379   34.0516    8.5752 H   0  0  0  0  0  0
    3.5373   25.1019    7.9642 H   0  0  0  0  0  0
    6.0576   27.4507    5.1528 H   0  0  0  0  0  0
    4.2946   27.3281    5.3791 H   0  0  0  0  0  0
    5.2669   28.3687    6.4643 H   0  0  0  0  0  0
  1  2  2  0  0  0
  1  3  2  0  0  0
  1 37  1  0  0  0
  1 38  1  0  0  0
  4  5  2  0  0  0
  4  7  1  0  0  0
  4 14  1  0  0  0
  5  6  1  0  0  0
  5 39  1  0  0  0
  6  9  2  0  0  0
  6 40  1  0  0  0
  7  8  2  0  0  0
  7 41  1  0  0  0
  8  9  1  0  0  0
  8 13  1  0  0  0
  9 10  1  0  0  0
 10 11  2  0  0  0
 11 12  1  0  0  0
 11 16  1  0  0  0
 12 13  2  0  0  0
 12 42  1  0  0  0
 13 15  1  0  0  0
 14 32  2  0  0  0
 14 35  1  0  0  0
 15 36  2  0  0  0
 15 37  1  0  0  0
 16 17  1  0  0  0
 16 18  2  0  0  0
 17 19  1  0  0  0
 17 43  1  0  0  0
 19 20  1  0  0  0
 19 21  1  0  0  0
 19 44  1  0  0  0
 20 23  1  0  0  0
 20 24  2  0  0  0
 21 22  1  0  0  0
 21 45  1  0  0  0
 21 46  1  0  0  0
 22 26  2  0  0  0
 22 30  1  0  0  0
 23 25  1  0  0  0
 25 47  1  0  0  0
 25 48  1  0  0  0
 25 49  1  0  0  0
 26 27  1  0  0  0
 26 50  1  0  0  0
 27 28  2  0  0  0
 27 51  1  0  0  0
 28 29  1  0  0  0
 28 31  1  0  0  0
 29 30  2  0  0  0
 29 52  1  0  0  0
 30 53  1  0  0  0
 31 54  1  0  0  0
 32 33  1  0  0  0
 32 55  1  0  0  0
 33 34  2  0  0  0
 33 56  1  0  0  0
 34 35  1  0  0  0
 34 57  1  0  0  0
 37 58  1  0  0  0
 38 59  1  0  0  0
 38 60  1  0  0  0
 38 61  1  0  0  0
M  END
> <s_m_entry_id>
33022

> <s_m_entry_name>
dock_pv.423

> <s_m_Source_Path>
/home/csk/Desktop/cluster/DUD-E-result/cdk2

> <s_m_Source_File>
dock_pv.maegz

> <i_m_Source_File_Index>
423

> <chembl_id>
CHEMBL3099742

> <chembl_pref_name>
None

> <i_lp_mmshare_version>
53161

> <i_f3d_flags>
0

> <r_lp_tautomer_probability>
0.999999999997365

> <s_lp_Force_Field>
OPLS_2005

> <r_lp_Energy>
22.597868

> <b_lp_Chiralities_Consistent>
1

> <s_lp_Variant>
CHEMBL301_lig1239-1

> <s_i_glide_gridfile>
glide-grid_1h00

> <i_i_glide_lignum>
1653

> <i_i_glide_rotatable_bonds>
12

> <r_i_docking_score>
-7.20095810307727

> <r_i_glide_ligand_efficiency>
-0.189498897449402

> <r_i_glide_ligand_efficiency_sa>
-0.637090632067917

> <r_i_glide_ligand_efficiency_ln>
-1.55273839774917

> <r_i_glide_gscore>
-7.20095810307727

> <r_i_glide_lipo>
-2.41920526685836

> <r_i_glide_hbond>
-0.496094202601135

> <r_i_glide_metal>
0

> <r_i_glide_rewards>
-0.678134894770694

> <r_i_glide_evdw>
-46.1694679260254

> <r_i_glide_ecoul>
-11.5243654251099

> <r_i_glide_erotb>
0.536783814697014

> <r_i_glide_esite>
-0.107179343476343

> <r_i_glide_emodel>
-76.9956406415229

> <r_i_glide_energy>
-57.6938333511353

> <r_i_glide_einternal>
11.8171920776367

> <i_i_glide_confnum>
18

> <i_i_glide_posenum>
304

> <r_i_glide_eff_state_penalty>
0

> <s_user_duplicate_titles>
CHEMBL301_lig1239

> <s_m_subgroup_title>
dock_pv

> <s_m_subgroupid>
dock_pv

> <b_m_subgroup_collapsed>
1

$$$$
CHEMBL301_lig685
                    3D
 Schrodinger Suite 2021-1.
 32 33  0  0  1  0            999 V2000
    0.1657   30.5399    8.4093 C   0  0  0  0  0  0
   -0.6135   31.6768    8.5761 C   0  0  0  0  0  0
    0.1250   32.6448    7.9353 N   0  0  0  0  0  0
    1.2579   32.1937    7.3760 N   0  0  0  0  0  0
    1.3221   30.9241    7.7067 C   0  0  0  0  0  0
    2.4207   30.1563    7.3405 N   0  0  0  0  0  0
    2.8580   29.0636    8.0102 C   0  0  0  0  0  0
    3.9856   28.2833    7.3744 C   0  0  0  0  0  0
    2.3905   28.6853    9.0866 O   0  0  0  0  0  0
   -1.9594   31.9266    9.2506 C   0  0  0  0  0  0
    4.1588   28.2523    5.9809 C   0  0  0  0  0  0
    5.1069   27.4062    5.4110 C   0  0  0  0  0  0
    5.8998   26.6042    6.2290 C   0  0  0  0  0  0
    5.7554   26.6429    7.6104 C   0  0  0  0  0  0
    4.7997   27.4759    8.1767 C   0  0  0  0  0  0
    7.2032   25.4521    5.4569 Br  0  0  0  0  0  0
   -1.9552   33.1833   10.1427 C   0  0  0  0  0  0
   -2.4488   30.6959   10.0401 C   0  0  0  0  0  0
   -0.0585   29.5504    8.7803 H   0  0  0  0  0  0
   -0.1563   33.6125    7.8399 H   0  0  0  0  0  0
    3.0602   30.5704    6.6751 H   0  0  0  0  0  0
   -2.6921   32.1045    8.4608 H   0  0  0  0  0  0
    3.5391   28.8477    5.3255 H   0  0  0  0  0  0
    5.2324   27.3718    4.3394 H   0  0  0  0  0  0
    6.3684   26.0183    8.2442 H   0  0  0  0  0  0
    4.6766   27.4630    9.2520 H   0  0  0  0  0  0
   -1.9409   34.0915    9.5459 H   0  0  0  0  0  0
   -1.0925   33.2068   10.8081 H   0  0  0  0  0  0
   -2.8511   33.2362   10.7636 H   0  0  0  0  0  0
   -2.5767   29.8316    9.3879 H   0  0  0  0  0  0
   -1.7440   30.4224   10.8266 H   0  0  0  0  0  0
   -3.4093   30.8847   10.5226 H   0  0  0  0  0  0
  1  5  1  0  0  0
  1  2  2  0  0  0
  1 19  1  0  0  0
  2 10  1  0  0  0
  2  3  1  0  0  0
  3  4  1  0  0  0
  3 20  1  0  0  0
  4  5  2  0  0  0
  5  6  1  0  0  0
  6  7  1  0  0  0
  6 21  1  0  0  0
  7  9  2  0  0  0
  7  8  1  0  0  0
  8 11  2  0  0  0
  8 15  1  0  0  0
 10 17  1  0  0  0
 10 18  1  0  0  0
 10 22  1  0  0  0
 11 12  1  0  0  0
 11 23  1  0  0  0
 12 13  2  0  0  0
 12 24  1  0  0  0
 13 14  1  0  0  0
 13 16  1  0  0  0
 14 15  2  0  0  0
 14 25  1  0  0  0
 15 26  1  0  0  0
 17 27  1  0  0  0
 17 28  1  0  0  0
 17 29  1  0  0  0
 18 30  1  0  0  0
 18 31  1  0  0  0
 18 32  1  0  0  0
M  END
> <s_m_entry_id>
33023

> <s_m_entry_name>
dock_pv.424

> <s_m_Source_Path>
/home/csk/Desktop/cluster/DUD-E-result/cdk2

> <s_m_Source_File>
dock_pv.maegz

> <i_m_Source_File_Index>
424

> <chembl_id>
CHEMBL430703

> <chembl_pref_name>
None

> <i_lp_mmshare_version>
53161

> <i_f3d_flags>
0

> <r_lp_tautomer_probability>
0.5

> <s_lp_Force_Field>
OPLS_2005

> <r_lp_Energy>
10.602294

> <b_lp_Chiralities_Consistent>
1

> <s_lp_Variant>
CHEMBL301_lig685-1

> <s_i_glide_gridfile>
glide-grid_1h00

> <i_i_glide_lignum>
954

> <i_i_glide_rotatable_bonds>
4

> <r_i_docking_score>
-7.20061942260393

> <r_i_glide_ligand_efficiency>
-0.400034412366885

> <r_i_glide_ligand_efficiency_sa>
-1.04838674258785

> <r_i_glide_ligand_efficiency_ln>
-1.85088209320589

> <r_i_glide_gscore>
-7.20061942260393

> <r_i_glide_lipo>
-2.34522526032682

> <r_i_glide_hbond>
-0.477182243006049

> <r_i_glide_metal>
0

> <r_i_glide_rewards>
-2.81648350962905

> <r_i_glide_evdw>
-30.9501647949219

> <r_i_glide_ecoul>
-3.99023056030273

> <r_i_glide_erotb>
0.584314414149491

> <r_i_glide_esite>
0

> <r_i_glide_emodel>
-47.2232538398881

> <r_i_glide_energy>
-34.9403953552246

> <r_i_glide_einternal>
3.71689939498901

> <i_i_glide_confnum>
12

> <i_i_glide_posenum>
55

> <r_i_glide_eff_state_penalty>
0

> <s_user_duplicate_titles>
CHEMBL301_lig685,187160

> <s_m_subgroup_title>
dock_pv

> <s_m_subgroupid>
dock_pv

> <b_m_subgroup_collapsed>
1

$$$$
CHEMBL301_lig682
                    3D
 Schrodinger Suite 2021-1.
 26 27  0  0  1  0            999 V2000
    0.3274   30.6523    8.3793 C   0  0  0  0  0  0
   -0.3429   31.8496    8.5673 C   0  0  0  0  0  0
    0.3621   32.7226    7.7793 N   0  0  0  0  0  0
    1.3855   32.1698    7.1163 N   0  0  0  0  0  0
    1.4200   30.9262    7.5308 C   0  0  0  0  0  0
    2.4586   30.1000    7.1369 N   0  0  0  0  0  0
    2.9361   29.0667    7.8667 C   0  0  0  0  0  0
    4.0578   28.2522    7.2562 C   0  0  0  0  0  0
    2.5006   28.7572    8.9771 O   0  0  0  0  0  0
   -1.5410   32.2575    9.3866 C   0  0  0  0  0  0
    4.2545   28.1969    5.8662 C   0  0  0  0  0  0
    5.2016   27.3294    5.3256 C   0  0  0  0  0  0
    5.9722   26.5314    6.1683 C   0  0  0  0  0  0
    5.8061   26.5948    7.5476 C   0  0  0  0  0  0
    4.8525   27.4504    8.0884 C   0  0  0  0  0  0
    7.2752   25.3560    5.4324 Br  0  0  0  0  0  0
    0.0937   29.7067    8.8469 H   0  0  0  0  0  0
    0.1222   33.6991    7.6486 H   0  0  0  0  0  0
    3.0723   30.4679    6.4221 H   0  0  0  0  0  0
   -1.9561   31.4186    9.9455 H   0  0  0  0  0  0
   -2.3402   32.6538    8.7611 H   0  0  0  0  0  0
   -1.2884   33.0299   10.1134 H   0  0  0  0  0  0
    3.6563   28.7897    5.1896 H   0  0  0  0  0  0
    5.3460   27.2775    4.2564 H   0  0  0  0  0  0
    6.4041   25.9741    8.1992 H   0  0  0  0  0  0
    4.7176   27.4568    9.1622 H   0  0  0  0  0  0
  1  5  1  0  0  0
  1  2  2  0  0  0
  1 17  1  0  0  0
  2 10  1  0  0  0
  2  3  1  0  0  0
  3  4  1  0  0  0
  3 18  1  0  0  0
  4  5  2  0  0  0
  5  6  1  0  0  0
  6  7  1  0  0  0
  6 19  1  0  0  0
  7  8  1  0  0  0
  7  9  2  0  0  0
  8 11  2  0  0  0
  8 15  1  0  0  0
 10 20  1  0  0  0
 10 21  1  0  0  0
 10 22  1  0  0  0
 11 12  1  0  0  0
 11 23  1  0  0  0
 12 13  2  0  0  0
 12 24  1  0  0  0
 13 14  1  0  0  0
 13 16  1  0  0  0
 14 15  2  0  0  0
 14 25  1  0  0  0
 15 26  1  0  0  0
M  END
> <s_m_entry_id>
33024

> <s_m_entry_name>
dock_pv.425

> <s_m_Source_Path>
/home/csk/Desktop/cluster/DUD-E-result/cdk2

> <s_m_Source_File>
dock_pv.maegz

> <i_m_Source_File_Index>
425

> <chembl_id>
CHEMBL323594

> <chembl_pref_name>
None

> <i_lp_mmshare_version>
53161

> <i_f3d_flags>
0

> <r_lp_tautomer_probability>
0.5

> <s_lp_Force_Field>
OPLS_2005

> <r_lp_Energy>
9.378736

> <b_lp_Chiralities_Consistent>
1

> <s_lp_Variant>
CHEMBL301_lig682-1

> <s_i_glide_gridfile>
glide-grid_1h00

> <i_i_glide_lignum>
948

> <i_i_glide_rotatable_bonds>
3

> <r_i_docking_score>
-7.19776718540082

> <r_i_glide_ligand_efficiency>
-0.449860449087551

> <r_i_glide_ligand_efficiency_sa>
-1.13357729759349

> <r_i_glide_ligand_efficiency_ln>
-1.90791197115373

> <r_i_glide_gscore>
-7.19776718540082

> <r_i_glide_lipo>
-1.99353007078504

> <r_i_glide_hbond>
-0.722404368802516

> <r_i_glide_metal>
0

> <r_i_glide_rewards>
-2.85646640558701

> <r_i_glide_evdw>
-27.6124000549316

> <r_i_glide_ecoul>
-4.85291624069214

> <r_i_glide_erotb>
0.483191098624141

> <r_i_glide_esite>
0

> <r_i_glide_emodel>
-43.6676130271578

> <r_i_glide_energy>
-32.4653162956238

> <r_i_glide_einternal>
3.40629887580872

> <i_i_glide_confnum>
7

> <i_i_glide_posenum>
52

> <r_i_glide_eff_state_penalty>
0

> <s_user_duplicate_titles>
CHEMBL301_lig682

> <s_m_subgroup_title>
dock_pv

> <s_m_subgroupid>
dock_pv

> <b_m_subgroup_collapsed>
1

$$$$
CHEMBL301_lig1403
                    3D
 Schrodinger Suite 2021-1.
 44 45  0  0  1  0            999 V2000
    0.7004   26.4408   11.2763 C   0  0  0  0  0  0
    0.4855   27.9409   11.0124 C   0  0  2  0  0  0
    0.8524   28.6522   12.1759 O   0  0  0  0  0  0
   -0.9631   28.3205   10.5650 C   0  0  1  0  0  0
   -2.0270   27.8667   11.5923 C   0  0  0  0  0  0
   -1.1707   29.7417   10.2678 N   0  0  0  0  0  0
   -0.4904   30.5024    9.3009 C   0  0  0  0  0  0
    0.5264   29.9539    8.5764 N   0  0  0  0  0  0
    1.1788   30.7713    7.7067 C   0  0  0  0  0  0
    2.2720   30.3003    6.9757 N   0  0  0  0  0  0
    3.1020   29.1816    7.1077 C   0  0  0  0  0  0
    3.4109   28.6266    8.3477 C   0  0  0  0  0  0
    4.2539   27.5197    8.4171 C   0  0  0  0  0  0
    4.8111   26.9862    7.2515 C   0  0  0  0  0  0
    4.5248   27.5619    6.0124 C   0  0  0  0  0  0
    3.6650   28.6522    5.9446 C   0  0  0  0  0  0
    5.8678   25.5463    7.3656 S   0  0  2  0  0  0
    4.8579   24.4450    7.6994 N   0  0  0  0  0  0
    7.0437   25.8758    8.1757 O   0  0  0  0  0  0
    6.4016   25.0682    5.6252 C   0  0  0  0  0  0
    0.8596   32.0656    7.4594 N   0  0  0  0  0  0
   -0.1659   32.5873    8.1761 C   0  0  0  0  0  0
   -0.8769   31.8396    9.1155 C   0  0  0  0  0  0
   -2.2906   32.6542   10.1074 Br  0  0  0  0  0  0
    0.4162   25.8482   10.4052 H   0  0  0  0  0  0
    0.1160   26.0853   12.1268 H   0  0  0  0  0  0
    1.7506   26.2282   11.4855 H   0  0  0  0  0  0
    1.1963   28.2310   10.2443 H   0  0  0  0  0  0
    1.5918   28.1958   12.6073 H   0  0  0  0  0  0
   -1.1641   27.7797    9.6396 H   0  0  0  0  0  0
   -2.0778   26.7806   11.6696 H   0  0  0  0  0  0
   -1.8158   28.2650   12.5851 H   0  0  0  0  0  0
   -3.0288   28.2105   11.3333 H   0  0  0  0  0  0
   -1.8714   30.2205   10.8161 H   0  0  0  0  0  0
    2.6737   31.0053    6.3730 H   0  0  0  0  0  0
    3.0064   29.0509    9.2529 H   0  0  0  0  0  0
    4.4585   27.0687    9.3755 H   0  0  0  0  0  0
    4.9498   27.1767    5.0980 H   0  0  0  0  0  0
    3.4550   29.0879    4.9783 H   0  0  0  0  0  0
    4.2636   24.2091    6.9178 H   0  0  0  0  0  0
    5.5245   24.8960    5.0039 H   0  0  0  0  0  0
    7.0050   25.8756    5.2128 H   0  0  0  0  0  0
    6.9979   24.1596    5.6863 H   0  0  0  0  0  0
   -0.4087   33.6248    7.9934 H   0  0  0  0  0  0
  1  2  1  0  0  0
  1 25  1  0  0  0
  1 26  1  0  0  0
  1 27  1  0  0  0
  2  3  1  0  0  0
  2  4  1  0  0  0
  2 28  1  0  0  0
  3 29  1  0  0  0
  4  5  1  0  0  0
  4  6  1  0  0  0
  4 30  1  0  0  0
  5 31  1  0  0  0
  5 32  1  0  0  0
  5 33  1  0  0  0
  6  7  1  0  0  0
  6 34  1  0  0  0
  7  8  2  0  0  0
  7 23  1  0  0  0
  8  9  1  0  0  0
  9 10  1  0  0  0
  9 21  2  0  0  0
 10 11  1  0  0  0
 10 35  1  0  0  0
 11 12  2  0  0  0
 11 16  1  0  0  0
 12 13  1  0  0  0
 12 36  1  0  0  0
 13 14  2  0  0  0
 13 37  1  0  0  0
 14 15  1  0  0  0
 14 17  1  0  0  0
 15 16  2  0  0  0
 15 38  1  0  0  0
 16 39  1  0  0  0
 17 18  2  0  0  0
 17 19  2  0  0  0
 17 20  1  0  0  0
 18 40  1  0  0  0
 20 41  1  0  0  0
 20 42  1  0  0  0
 20 43  1  0  0  0
 21 22  1  0  0  0
 22 23  2  0  0  0
 22 44  1  0  0  0
 23 24  1  0  0  0
M  END
> <s_m_entry_id>
33025

> <s_m_entry_name>
dock_pv.426

> <s_m_Source_Path>
/home/csk/Desktop/cluster/DUD-E-result/cdk2

> <s_m_Source_File>
dock_pv.maegz

> <i_m_Source_File_Index>
426

> <chembl_id>
CHEMBL3648117

> <chembl_pref_name>
None

> <i_lp_mmshare_version>
53161

> <i_f3d_flags>
0

> <r_lp_tautomer_probability>
0.999999624730965

> <s_lp_Force_Field>
OPLS_2005

> <r_lp_Energy>
4.176934

> <b_lp_Chiralities_Consistent>
1

> <s_lp_Variant>
CHEMBL301_lig1403-1

> <s_i_glide_gridfile>
glide-grid_1h00

> <i_i_glide_lignum>
1912

> <i_i_glide_rotatable_bonds>
7

> <r_i_docking_score>
-7.19618008606381

> <r_i_glide_ligand_efficiency>
-0.299840836919326

> <r_i_glide_ligand_efficiency_sa>
-0.864890635498799

> <r_i_glide_ligand_efficiency_ln>
-1.72237610578237

> <r_i_glide_gscore>
-7.19618008606381

> <r_i_glide_lipo>
-2.42281406679805

> <r_i_glide_hbond>
-0.477531506636036

> <r_i_glide_metal>
0

> <r_i_glide_rewards>
-1.39465687007747

> <r_i_glide_evdw>
-35.8772811889648

> <r_i_glide_ecoul>
-11.2145051956177

> <r_i_glide_erotb>
0.574862196238635

> <r_i_glide_esite>
0

> <r_i_glide_emodel>
-66.3716502363806

> <r_i_glide_energy>
-47.0917863845825

> <r_i_glide_einternal>
3.17539143562317

> <i_i_glide_confnum>
1

> <i_i_glide_posenum>
86

> <r_i_glide_eff_state_penalty>
0

> <s_user_duplicate_titles>
CHEMBL301_lig1403

> <s_m_subgroup_title>
dock_pv

> <s_m_subgroupid>
dock_pv

> <b_m_subgroup_collapsed>
1

$$$$
CHEMBL301_lig157
                    3D
 Schrodinger Suite 2021-1.
 49 53  0  0  1  0            999 V2000
    1.0351   29.5858    8.8356 C   0  0  0  0  0  0
    5.0939   27.1129    7.7616 C   0  0  0  0  0  0
    1.1882   30.6253    7.8184 C   0  0  0  0  0  0
    3.2330   28.2150    8.4923 C   0  0  0  0  0  0
    1.9340   28.5866    9.0496 C   0  0  0  0  0  0
    3.8586   26.9653    8.4290 C   0  0  0  0  0  0
   -0.2767   29.8421    9.4793 C   0  0  0  0  0  0
    0.1437   31.4437    7.9689 N   0  0  0  0  0  0
    5.2089   28.4621    7.4813 C   0  0  0  0  0  0
   -0.7551   31.0023    8.8962 C   0  0  0  0  0  0
    4.0801   29.1081    7.8942 N   0  0  0  0  0  0
    6.0560   26.0476    7.5644 C   0  0  0  0  0  0
   -1.0534   29.1987   10.4704 C   0  0  0  0  0  0
    5.5062   24.8281    7.7716 N   0  0  0  0  0  0
    2.0595   30.7936    6.9753 O   0  0  0  0  0  0
    7.2558   26.1331    7.3151 O   0  0  0  0  0  0
   -0.7827   25.2367   12.4104 N   0  0  1  0  0  0
   -0.5875   27.9300   11.2041 C   0  0  0  0  0  0
    3.3876   25.5692    8.8164 C   0  0  0  0  0  0
    4.0581   24.5652    7.8439 C   0  0  0  0  0  0
   -1.9815   31.5630    9.2320 C   0  0  0  0  0  0
   -2.3120   29.7424   10.7782 C   0  0  0  0  0  0
   -2.7682   30.9157   10.1754 C   0  0  0  0  0  0
   -0.6054   26.4145   13.2653 C   0  0  0  0  0  0
   -0.2414   25.4049   11.0601 C   0  0  0  0  0  0
   -1.1723   27.6963   12.6173 C   0  0  0  0  0  0
   -0.8175   26.6556   10.3658 C   0  0  0  0  0  0
    1.6668   27.8427    9.7751 H   0  0  0  0  0  0
    0.0185   32.2714    7.4061 H   0  0  0  0  0  0
    5.9878   29.0066    6.9779 H   0  0  0  0  0  0
    3.8779   30.0869    7.7381 H   0  0  0  0  0  0
    6.1463   24.0493    7.7568 H   0  0  0  0  0  0
   -0.3759   24.4218   12.8482 H   0  0  0  0  0  0
    0.4735   28.0943   11.3811 H   0  0  0  0  0  0
    2.3038   25.4678    8.7651 H   0  0  0  0  0  0
    3.6576   25.3347    9.8423 H   0  0  0  0  0  0
    3.8860   23.5400    8.1743 H   0  0  0  0  0  0
    3.6350   24.6521    6.8411 H   0  0  0  0  0  0
   -2.3390   32.4705    8.7671 H   0  0  0  0  0  0
   -2.9574   29.2826   11.5070 H   0  0  0  0  0  0
   -3.7293   31.3207   10.4536 H   0  0  0  0  0  0
    0.4577   26.5409   13.4834 H   0  0  0  0  0  0
   -1.1096   26.2260   14.2148 H   0  0  0  0  0  0
    0.8455   25.4855   11.1242 H   0  0  0  0  0  0
   -0.4669   24.5143   10.4753 H   0  0  0  0  0  0
   -0.9145   28.5337   13.2672 H   0  0  0  0  0  0
   -2.2597   27.6087   12.6214 H   0  0  0  0  0  0
   -1.8789   26.4896   10.1752 H   0  0  0  0  0  0
   -0.3411   26.7517    9.3921 H   0  0  0  0  0  0
  1  3  1  0  0  0
  1  5  2  0  0  0
  1  7  1  0  0  0
  2  6  1  0  0  0
  2 12  1  0  0  0
  2  9  2  0  0  0
  3  8  1  0  0  0
  3 15  2  0  0  0
  4  5  1  0  0  0
  4  6  2  0  0  0
  4 11  1  0  0  0
  5 28  1  0  0  0
  6 19  1  0  0  0
  7 10  2  0  0  0
  7 13  1  0  0  0
  8 10  1  0  0  0
  8 29  1  0  0  0
  9 11  1  0  0  0
  9 30  1  0  0  0
 10 21  1  0  0  0
 11 31  1  0  0  0
 12 16  2  0  0  0
 12 14  1  0  0  0
 13 18  1  0  0  0
 13 22  2  0  0  0
 14 20  1  0  0  0
 14 32  1  0  0  0
 17 25  1  0  0  0
 17 24  1  0  0  0
 17 33  1  0  0  0
 18 26  1  0  0  0
 18 27  1  0  0  0
 18 34  1  0  0  0
 19 20  1  0  0  0
 19 35  1  0  0  0
 19 36  1  0  0  0
 20 37  1  0  0  0
 20 38  1  0  0  0
 21 23  2  0  0  0
 21 39  1  0  0  0
 22 23  1  0  0  0
 22 40  1  0  0  0
 23 41  1  0  0  0
 24 26  1  0  0  0
 24 42  1  0  0  0
 24 43  1  0  0  0
 25 27  1  0  0  0
 25 44  1  0  0  0
 25 45  1  0  0  0
 26 46  1  0  0  0
 26 47  1  0  0  0
 27 48  1  0  0  0
 27 49  1  0  0  0
M  END
> <s_m_entry_id>
33026

> <s_m_entry_name>
dock_pv.427

> <s_m_Source_Path>
/home/csk/Desktop/cluster/DUD-E-result/cdk2

> <s_m_Source_File>
dock_pv.maegz

> <i_m_Source_File_Index>
427

> <chembl_id>
CHEMBL58466

> <chembl_pref_name>
None

> <i_lp_mmshare_version>
53161

> <i_f3d_flags>
0

> <r_lp_tautomer_probability>
1

> <s_lp_Force_Field>
OPLS_2005

> <r_lp_Energy>
56.709313

> <b_lp_Chiralities_Consistent>
1

> <s_lp_Variant>
CHEMBL301_lig157-1

> <s_i_glide_gridfile>
glide-grid_1h00

> <i_i_glide_lignum>
297

> <i_i_glide_rotatable_bonds>
2

> <r_i_docking_score>
-7.19489311823989

> <r_i_glide_ligand_efficiency>
-0.266477522897774

> <r_i_glide_ligand_efficiency_sa>
-0.799432567815054

> <r_i_glide_ligand_efficiency_ln>
-1.67485250084276

> <r_i_glide_gscore>
-7.19489311823989

> <r_i_glide_lipo>
-3.10219470005806

> <r_i_glide_hbond>
-0.0355611894031311

> <r_i_glide_metal>
0

> <r_i_glide_rewards>
-1.84336267747165

> <r_i_glide_evdw>
-39.702262878418

> <r_i_glide_ecoul>
-2.4393835067749

> <r_i_glide_erotb>
0.146186300043408

> <r_i_glide_esite>
-0.00894018141332239

> <r_i_glide_emodel>
-59.5437496895497

> <r_i_glide_energy>
-42.1416463851929

> <r_i_glide_einternal>
1.84477472305298

> <i_i_glide_confnum>
1

> <i_i_glide_posenum>
120

> <r_i_glide_eff_state_penalty>
0

> <s_user_duplicate_titles>
CHEMBL301_lig157,90458

> <s_m_subgroup_title>
dock_pv

> <s_m_subgroupid>
dock_pv

> <b_m_subgroup_collapsed>
1

$$$$
CHEMBL301_lig568
                    3D
 Schrodinger Suite 2021-1.
 43 46  0  0  1  0            999 V2000
    7.2070   25.9552    7.6161 C   0  0  0  0  0  0
    5.7237   25.6174    7.3955 C   0  0  0  0  0  0
    5.5294   24.6212    6.2313 C   0  0  0  0  0  0
    4.8789   26.8870    7.2655 C   0  0  0  0  0  0
    4.3045   27.4399    8.4109 C   0  0  0  0  0  0
    3.5135   28.5723    8.3335 C   0  0  0  0  0  0
    3.2606   29.1526    7.0941 C   0  0  0  0  0  0
    2.4559   30.2888    6.9691 N   0  0  0  0  0  0
    1.3331   30.7100    7.6953 C   0  0  0  0  0  0
    0.9116   31.9787    7.4615 N   0  0  0  0  0  0
   -0.1642   32.4030    8.1761 C   0  0  0  0  0  0
   -0.8427   31.5752    9.0781 C   0  0  0  0  0  0
   -0.3411   30.2788    9.2534 C   0  0  0  0  0  0
    0.7507   29.8522    8.5717 N   0  0  0  0  0  0
   -0.9169   29.2904   10.2172 C   0  0  0  0  0  0
   -2.0819   29.4122   10.9762 C   0  0  0  0  0  0
   -2.3418   28.3816   11.7522 N   0  0  0  0  0  0
   -1.3317   27.5140   11.5510 N   0  0  0  0  0  0
   -1.2859   26.3388   12.2064 N   0  0  0  0  0  0
   -0.2118   25.5723   11.8961 C   0  0  0  0  0  0
    0.7745   25.9380   10.9793 C   0  0  0  0  0  0
    0.6768   27.1651   10.3200 C   0  0  0  0  0  0
   -0.4148   28.0076   10.6042 C   0  0  0  0  0  0
    3.8699   28.6435    5.9472 C   0  0  0  0  0  0
    4.6784   27.5125    6.0307 C   0  0  0  0  0  0
    7.3407   26.5383    8.5284 H   0  0  0  0  0  0
    7.6124   26.5301    6.7815 H   0  0  0  0  0  0
    7.8104   25.0521    7.7172 H   0  0  0  0  0  0
    5.3761   25.0957    8.2900 H   0  0  0  0  0  0
    4.4711   24.4205    6.0533 H   0  0  0  0  0  0
    5.9621   24.9910    5.3002 H   0  0  0  0  0  0
    6.0085   23.6669    6.4501 H   0  0  0  0  0  0
    4.4579   26.9961    9.3760 H   0  0  0  0  0  0
    3.0983   28.9895    9.2369 H   0  0  0  0  0  0
    2.9027   31.0102    6.4140 H   0  0  0  0  0  0
   -0.4850   33.4208    8.0006 H   0  0  0  0  0  0
   -1.7003   31.9350    9.6278 H   0  0  0  0  0  0
   -2.7507   30.2621   10.9763 H   0  0  0  0  0  0
   -0.1436   24.6250   12.4101 H   0  0  0  0  0  0
    1.6075   25.2805   10.7748 H   0  0  0  0  0  0
    1.4302   27.4511    9.6056 H   0  0  0  0  0  0
    3.7179   29.1155    4.9888 H   0  0  0  0  0  0
    5.1392   27.1275    5.1347 H   0  0  0  0  0  0
  1  2  1  0  0  0
  1 26  1  0  0  0
  1 27  1  0  0  0
  1 28  1  0  0  0
  2  3  1  0  0  0
  2  4  1  0  0  0
  2 29  1  0  0  0
  3 30  1  0  0  0
  3 31  1  0  0  0
  3 32  1  0  0  0
  4  5  2  0  0  0
  4 25  1  0  0  0
  5  6  1  0  0  0
  5 33  1  0  0  0
  6  7  2  0  0  0
  6 34  1  0  0  0
  7  8  1  0  0  0
  7 24  1  0  0  0
  8  9  1  0  0  0
  8 35  1  0  0  0
  9 10  2  0  0  0
  9 14  1  0  0  0
 10 11  1  0  0  0
 11 12  2  0  0  0
 11 36  1  0  0  0
 12 13  1  0  0  0
 12 37  1  0  0  0
 13 14  2  0  0  0
 13 15  1  0  0  0
 15 16  1  0  0  0
 15 23  2  0  0  0
 16 17  2  0  0  0
 16 38  1  0  0  0
 17 18  1  0  0  0
 18 19  1  0  0  0
 18 23  1  0  0  0
 19 20  2  0  0  0
 20 21  1  0  0  0
 20 39  1  0  0  0
 21 22  2  0  0  0
 21 40  1  0  0  0
 22 23  1  0  0  0
 22 41  1  0  0  0
 24 25  2  0  0  0
 24 42  1  0  0  0
 25 43  1  0  0  0
M  END
> <s_m_entry_id>
33027

> <s_m_entry_name>
dock_pv.428

> <s_m_Source_Path>
/home/csk/Desktop/cluster/DUD-E-result/cdk2

> <s_m_Source_File>
dock_pv.maegz

> <i_m_Source_File_Index>
428

> <chembl_id>
CHEMBL359963

> <chembl_pref_name>
GW805758X

> <i_lp_mmshare_version>
53161

> <i_f3d_flags>
0

> <r_lp_tautomer_probability>
0.999999987636

> <s_lp_Force_Field>
OPLS_2005

> <r_lp_Energy>
16.894327

> <b_lp_Chiralities_Consistent>
1

> <s_lp_Variant>
CHEMBL301_lig568-1

> <s_i_glide_gridfile>
glide-grid_1h00

> <i_i_glide_lignum>
798

> <i_i_glide_rotatable_bonds>
4

> <r_i_docking_score>
-7.19439540305732

> <r_i_glide_ligand_efficiency>
-0.287775816122293

> <r_i_glide_ligand_efficiency_sa>
-0.841461590067415

> <r_i_glide_ligand_efficiency_ln>
-1.70528730915707

> <r_i_glide_gscore>
-7.19439540305732

> <r_i_glide_lipo>
-2.69226546356605

> <r_i_glide_hbond>
-0.231673470808733

> <r_i_glide_metal>
0

> <r_i_glide_rewards>
-2.44868415167495

> <r_i_glide_evdw>
-37.7246894836426

> <r_i_glide_ecoul>
-3.01625275611877

> <r_i_glide_erotb>
0.516900070592351

> <r_i_glide_esite>
0

> <r_i_glide_emodel>
-58.5222359630644

> <r_i_glide_energy>
-40.7409422397614

> <r_i_glide_einternal>
1.37717604637146

> <i_i_glide_confnum>
2

> <i_i_glide_posenum>
189

> <r_i_glide_eff_state_penalty>
0

> <s_user_duplicate_titles>
CHEMBL301_lig568,312758

> <s_m_subgroup_title>
dock_pv

> <s_m_subgroupid>
dock_pv

> <b_m_subgroup_collapsed>
1

$$$$
CHEMBL301_lig300
                    3D
 Schrodinger Suite 2021-1.
 49 51  0  0  1  0            999 V2000
    3.3321   27.3130    8.6640 N   0  0  0  0  0  0
    4.9470   27.9780    7.0366 N   0  0  0  0  0  0
    3.8914   28.2217    7.8368 C   0  0  0  0  0  0
    3.7518   26.0188    8.5754 C   0  0  0  0  0  0
    4.7619   25.6401    7.6606 C   0  0  0  0  0  0
    5.3708   26.6960    6.9648 C   0  0  0  0  0  0
    5.2099   24.2508    7.3815 N   0  0  0  0  0  0
    3.2681   29.4538    7.6222 N   0  0  0  0  0  0
    3.1254   25.0768    9.3790 O   0  0  0  0  0  0
    4.4574   23.3859    7.7761 O   0  0  0  0  0  0
    6.4573   26.4802    6.1249 N   0  0  0  0  0  0
    2.0310   30.0007    8.0081 C   0  0  0  0  0  0
   -0.3716   31.2433    8.7313 C   0  0  0  0  0  0
    2.2498   25.4727   10.4496 C   0  0  0  0  0  0
   -1.8625   32.0851    9.1831 S   0  0  0  0  0  0
    1.2019   29.4424    8.9898 C   0  0  0  0  0  0
    1.6309   31.1806    7.3760 C   0  0  0  0  0  0
    0.4582   31.8228    7.7759 C   0  0  0  0  0  0
   -0.0048   30.0417    9.3340 C   0  0  0  0  0  0
    0.9856   24.5882   10.3945 C   0  0  0  0  0  0
   -2.8658   30.9828   10.2156 C   0  0  0  0  0  0
    1.2428   23.1240   10.8409 C   0  0  0  0  0  0
   -0.2138   25.1667   11.1845 C   0  0  0  0  0  0
    1.4533   23.0003   12.3661 C   0  0  0  0  0  0
    0.0068   25.0846   12.7060 C   0  0  0  0  0  0
    0.2777   23.6296   13.1456 C   0  0  0  0  0  0
    3.7821   30.0205    6.9584 H   0  0  0  0  0  0
    6.8245   25.5485    6.0093 H   0  0  0  0  0  0
    6.8955   27.2896    5.6929 H   0  0  0  0  0  0
    1.9354   26.5138   10.4252 H   0  0  0  0  0  0
    2.7833   25.3610   11.3935 H   0  0  0  0  0  0
    1.4682   28.5456    9.5185 H   0  0  0  0  0  0
    2.2536   31.6302    6.6172 H   0  0  0  0  0  0
    0.1851   32.7685    7.3297 H   0  0  0  0  0  0
   -0.6180   29.5824   10.0929 H   0  0  0  0  0  0
    0.6640   24.5846    9.3543 H   0  0  0  0  0  0
   -3.8091   31.4660   10.4716 H   0  0  0  0  0  0
   -3.0865   30.0545    9.6885 H   0  0  0  0  0  0
   -2.3429   30.7492   11.1435 H   0  0  0  0  0  0
    2.1003   22.7119   10.3069 H   0  0  0  0  0  0
    0.3916   22.4975   10.5767 H   0  0  0  0  0  0
   -1.1237   24.6227   10.9239 H   0  0  0  0  0  0
   -0.3919   26.2039   10.8965 H   0  0  0  0  0  0
    2.3889   23.4773   12.6568 H   0  0  0  0  0  0
    1.5550   21.9496   12.6405 H   0  0  0  0  0  0
    0.8458   25.7253   12.9798 H   0  0  0  0  0  0
   -0.8644   25.4782   13.2313 H   0  0  0  0  0  0
    0.4587   23.5837   14.2196 H   0  0  0  0  0  0
   -0.6205   23.0334   12.9765 H   0  0  0  0  0  0
  1  3  1  0  0  0
  1  4  2  0  0  0
  2  3  2  0  0  0
  2  6  1  0  0  0
  3  8  1  0  0  0
  4  5  1  0  0  0
  4  9  1  0  0  0
  5  6  2  0  0  0
  5  7  1  0  0  0
  6 11  1  0  0  0
  7 10  2  0  0  0
  8 12  1  0  0  0
  8 27  1  0  0  0
  9 14  1  0  0  0
 11 28  1  0  0  0
 11 29  1  0  0  0
 12 16  2  0  0  0
 12 17  1  0  0  0
 13 18  1  0  0  0
 13 15  1  0  0  0
 13 19  2  0  0  0
 14 20  1  0  0  0
 14 30  1  0  0  0
 14 31  1  0  0  0
 15 21  1  0  0  0
 16 19  1  0  0  0
 16 32  1  0  0  0
 17 18  2  0  0  0
 17 33  1  0  0  0
 18 34  1  0  0  0
 19 35  1  0  0  0
 20 22  1  0  0  0
 20 23  1  0  0  0
 20 36  1  0  0  0
 21 37  1  0  0  0
 21 38  1  0  0  0
 21 39  1  0  0  0
 22 24  1  0  0  0
 22 40  1  0  0  0
 22 41  1  0  0  0
 23 25  1  0  0  0
 23 42  1  0  0  0
 23 43  1  0  0  0
 24 26  1  0  0  0
 24 44  1  0  0  0
 24 45  1  0  0  0
 25 26  1  0  0  0
 25 46  1  0  0  0
 25 47  1  0  0  0
 26 48  1  0  0  0
 26 49  1  0  0  0
M  END
> <s_m_entry_id>
33028

> <s_m_entry_name>
dock_pv.429

> <s_m_Source_Path>
/home/csk/Desktop/cluster/DUD-E-result/cdk2

> <s_m_Source_File>
dock_pv.maegz

> <i_m_Source_File_Index>
429

> <chembl_id>
CHEMBL322568

> <chembl_pref_name>
None

> <i_lp_mmshare_version>
53161

> <i_f3d_flags>
0

> <r_lp_tautomer_probability>
1

> <s_lp_Force_Field>
OPLS_2005

> <r_lp_Energy>
17.302154

> <b_lp_Chiralities_Consistent>
1

> <s_lp_Variant>
CHEMBL301_lig300-1

> <s_i_glide_gridfile>
glide-grid_1h00

> <i_i_glide_lignum>
476

> <i_i_glide_rotatable_bonds>
7

> <r_i_docking_score>
-7.19292820654303

> <r_i_glide_ligand_efficiency>
-0.27665108486704

> <r_i_glide_ligand_efficiency_sa>
-0.819577750349151

> <r_i_glide_ligand_efficiency_ln>
-1.68923558738413

> <r_i_glide_gscore>
-7.19292820654303

> <r_i_glide_lipo>
-2.50445672853271

> <r_i_glide_hbond>
-0.608

> <r_i_glide_metal>
0

> <r_i_glide_rewards>
-1.99517586007333

> <r_i_glide_evdw>
-35.8299942016602

> <r_i_glide_ecoul>
-6.1420841217041

> <r_i_glide_erotb>
0.692756450901078

> <r_i_glide_esite>
-0.0652397404994481

> <r_i_glide_emodel>
-56.7380039051524

> <r_i_glide_energy>
-41.9720783233643

> <r_i_glide_einternal>
7.01040935516357

> <i_i_glide_confnum>
109

> <i_i_glide_posenum>
160

> <r_i_glide_eff_state_penalty>
0

> <s_user_duplicate_titles>
CHEMBL301_lig300,171288

> <s_m_subgroup_title>
dock_pv

> <s_m_subgroupid>
dock_pv

> <b_m_subgroup_collapsed>
1

$$$$
CHEMBL301_lig283
                    3D
 Schrodinger Suite 2021-1.
 49 52  0  0  1  0            999 V2000
   -1.2019   21.9203   14.9125 S   0  0  0  0  0  0
   -0.0021   28.2618   11.3035 C   0  0  0  0  0  0
   -0.9890   30.2389   10.9438 N   0  0  0  0  0  0
   -1.0055   28.3943   12.2532 C   0  0  0  0  0  0
   -0.0549   29.4204   10.5056 C   0  0  0  0  0  0
   -1.5419   29.6176   11.9804 N   0  0  0  0  0  0
    3.6940   28.4938    7.4168 N   0  0  0  0  0  0
   -1.2999   23.6214   14.3700 C   0  0  0  0  0  0
    2.6624   29.3387    7.8162 C   0  0  0  0  0  0
    0.7657   29.7682    9.3032 C   0  0  0  0  0  0
    1.9262   29.0517    8.9760 C   0  0  0  0  0  0
   -1.5420   27.6559   13.2756 N   0  0  0  0  0  0
    0.1810   21.4745   14.7160 O   0  0  0  0  0  0
   -1.8464   21.8521   16.2292 O   0  0  0  0  0  0
   -2.2099   21.0520   13.7876 N   0  0  0  0  0  0
    5.9232   26.8511    6.5979 O   0  0  0  0  0  0
   -2.3313   24.4359   14.8363 C   0  0  0  0  0  0
   -0.3423   24.1347   13.4949 C   0  0  0  0  0  0
   -1.4153   26.2987   13.5961 C   0  0  0  0  0  0
   -2.3800   25.7730   14.4570 C   0  0  0  0  0  0
   -0.3940   25.4739   13.1156 C   0  0  0  0  0  0
    4.7967   28.1550    8.3282 C   0  0  0  0  0  0
    4.1730   28.4358    6.0230 C   0  0  0  0  0  0
    2.2428   30.4094    7.0201 C   0  0  0  0  0  0
    0.3782   30.8294    8.4770 C   0  0  0  0  0  0
    1.1409   31.1774    7.3724 C   0  0  0  0  0  0
    4.8610   27.0955    5.6889 C   0  0  0  0  0  0
    5.4794   26.8224    7.9445 C   0  0  0  0  0  0
    0.6758   27.4365   11.1673 H   0  0  0  0  0  0
   -2.3218   30.0233   12.4872 H   0  0  0  0  0  0
    2.2210   28.2171    9.5940 H   0  0  0  0  0  0
   -2.3189   28.0784   13.7764 H   0  0  0  0  0  0
   -1.7696   20.2067   13.3917 H   0  0  0  0  0  0
   -3.1360   20.8321   14.1576 H   0  0  0  0  0  0
   -3.0882   24.0399   15.4964 H   0  0  0  0  0  0
    0.4569   23.5079   13.1264 H   0  0  0  0  0  0
   -3.1770   26.4018   14.8287 H   0  0  0  0  0  0
    0.3773   25.8539   12.4698 H   0  0  0  0  0  0
    4.4274   28.0571    9.3490 H   0  0  0  0  0  0
    5.5197   28.9714    8.3397 H   0  0  0  0  0  0
    4.8437   29.2711    5.8219 H   0  0  0  0  0  0
    3.3220   28.5409    5.3486 H   0  0  0  0  0  0
    2.7741   30.6517    6.1132 H   0  0  0  0  0  0
   -0.4997   31.4172    8.7033 H   0  0  0  0  0  0
    0.8582   32.0228    6.7648 H   0  0  0  0  0  0
    5.2728   27.1319    4.6803 H   0  0  0  0  0  0
    4.1452   26.2715    5.7044 H   0  0  0  0  0  0
    6.3498   26.6545    8.5769 H   0  0  0  0  0  0
    4.8085   25.9773    8.1110 H   0  0  0  0  0  0
  1  8  1  0  0  0
  1 13  2  0  0  0
  1 14  2  0  0  0
  1 15  1  0  0  0
  2  4  2  0  0  0
  2  5  1  0  0  0
  2 29  1  0  0  0
  3  5  2  0  0  0
  3  6  1  0  0  0
  4  6  1  0  0  0
  4 12  1  0  0  0
  5 10  1  0  0  0
  6 30  1  0  0  0
  7  9  1  0  0  0
  7 22  1  0  0  0
  7 23  1  0  0  0
  8 17  2  0  0  0
  8 18  1  0  0  0
  9 11  2  0  0  0
  9 24  1  0  0  0
 10 11  1  0  0  0
 10 25  2  0  0  0
 11 31  1  0  0  0
 12 19  1  0  0  0
 12 32  1  0  0  0
 15 33  1  0  0  0
 15 34  1  0  0  0
 16 27  1  0  0  0
 16 28  1  0  0  0
 17 20  1  0  0  0
 17 35  1  0  0  0
 18 21  2  0  0  0
 18 36  1  0  0  0
 19 21  1  0  0  0
 19 20  2  0  0  0
 20 37  1  0  0  0
 21 38  1  0  0  0
 22 28  1  0  0  0
 22 39  1  0  0  0
 22 40  1  0  0  0
 23 27  1  0  0  0
 23 41  1  0  0  0
 23 42  1  0  0  0
 24 26  2  0  0  0
 24 43  1  0  0  0
 25 26  1  0  0  0
 25 44  1  0  0  0
 26 45  1  0  0  0
 27 46  1  0  0  0
 27 47  1  0  0  0
 28 48  1  0  0  0
 28 49  1  0  0  0
M  END
> <s_m_entry_id>
33029

> <s_m_entry_name>
dock_pv.430

> <s_m_Source_Path>
/home/csk/Desktop/cluster/DUD-E-result/cdk2

> <s_m_Source_File>
dock_pv.maegz

> <i_m_Source_File_Index>
430

> <chembl_id>
CHEMBL103039

> <chembl_pref_name>
None

> <i_lp_mmshare_version>
53161

> <i_f3d_flags>
0

> <r_lp_tautomer_probability>
0.157399999843308

> <s_lp_Force_Field>
OPLS_2005

> <r_lp_Energy>
38.354566

> <b_lp_Chiralities_Consistent>
1

> <s_lp_Variant>
CHEMBL301_lig283-2

> <s_i_glide_gridfile>
glide-grid_1h00

> <i_i_glide_lignum>
449

> <i_i_glide_rotatable_bonds>
5

> <r_i_docking_score>
-7.18607527488502

> <r_i_glide_ligand_efficiency>
-0.256645545531608

> <r_i_glide_ligand_efficiency_sa>
-0.779327032376668

> <r_i_glide_ligand_efficiency_ln>
-1.65875716578172

> <r_i_glide_gscore>
-7.18607527488502

> <r_i_glide_lipo>
-2.84370121036847

> <r_i_glide_hbond>
-0.418696206879844

> <r_i_glide_metal>
0

> <r_i_glide_rewards>
-1.03231846093455

> <r_i_glide_evdw>
-39.7017822265625

> <r_i_glide_ecoul>
-7.30589151382446

> <r_i_glide_erotb>
0.491175753677743

> <r_i_glide_esite>
-0.301562311978101

> <r_i_glide_emodel>
-68.3268874279355

> <r_i_glide_energy>
-47.007673740387

> <r_i_glide_einternal>
1.20387578010559

> <i_i_glide_confnum>
2

> <i_i_glide_posenum>
135

> <r_i_glide_eff_state_penalty>
0

> <s_user_duplicate_titles>
CHEMBL301_lig283,165978

> <s_m_subgroup_title>
dock_pv

> <s_m_subgroupid>
dock_pv

> <b_m_subgroup_collapsed>
1

$$$$
CHEMBL301_lig1377
                    3D
 Schrodinger Suite 2021-1.
 53 54  0  0  1  0            999 V2000
   10.6594   26.6700    4.7656 C   0  0  0  0  0  0
    9.2806   26.0765    5.0538 C   0  0  0  0  0  0
    9.0255   26.0964    6.4584 O   0  0  0  0  0  0
    7.8205   25.7913    7.0238 C   0  0  0  0  0  0
    7.6579   25.8535    8.2432 O   0  0  0  0  0  0
    6.8475   25.4455    6.0993 N   0  0  0  0  0  0
    5.4427   25.0872    6.6208 S   0  0  2  0  0  0
    5.1326   24.2435    7.7767 O   0  0  0  0  0  0
    4.6579   24.3192    5.0928 C   0  0  0  0  0  0
    4.6562   26.6760    6.8365 C   0  0  0  0  0  0
    4.4908   27.4801    5.7180 C   0  0  0  0  0  0
    3.7776   28.6557    5.8381 C   0  0  0  0  0  0
    3.2305   29.0553    7.0518 C   0  0  0  0  0  0
    2.4596   30.2322    7.0378 N   0  0  0  0  0  0
    1.3245   30.6711    7.7280 C   0  0  0  0  0  0
    0.9674   31.9568    7.4835 N   0  0  0  0  0  0
   -0.1028   32.4282    8.1760 C   0  0  0  0  0  0
   -0.8321   31.6419    9.0684 C   0  0  0  0  0  0
   -2.3371   32.3820    9.9826 Br  0  0  0  0  0  0
   -0.4024   30.3188    9.2476 C   0  0  0  0  0  0
   -1.0973   29.4903   10.1463 N   0  0  0  0  0  0
   -0.7403   28.1000   10.4518 C   0  0  2  0  0  0
   -1.7691   27.5033   11.4314 C   0  0  0  0  0  0
    0.7031   27.9070   10.9931 C   0  0  2  0  0  0
    1.1064   26.4409   11.2280 C   0  0  0  0  0  0
    0.8579   28.6519   12.1759 O   0  0  0  0  0  0
    0.6700   29.8333    8.5643 N   0  0  0  0  0  0
    3.4922   28.3053    8.1996 C   0  0  0  0  0  0
    4.1915   27.1002    8.0884 C   0  0  0  0  0  0
   10.8544   26.6560    3.6939 H   0  0  0  0  0  0
   10.7221   27.7034    5.1074 H   0  0  0  0  0  0
   11.4506   26.1056    5.2587 H   0  0  0  0  0  0
    9.2277   25.0504    4.6888 H   0  0  0  0  0  0
    8.5202   26.6521    4.5236 H   0  0  0  0  0  0
    4.8149   24.9623    4.2289 H   0  0  0  0  0  0
    5.1305   23.3549    4.9164 H   0  0  0  0  0  0
    3.5954   24.1801    5.2791 H   0  0  0  0  0  0
    4.8957   27.1945    4.7579 H   0  0  0  0  0  0
    3.6589   29.2750    4.9794 H   0  0  0  0  0  0
    2.9210   30.9675    6.5168 H   0  0  0  0  0  0
   -0.3784   33.4518    7.9959 H   0  0  0  0  0  0
   -1.8147   29.9194   10.7135 H   0  0  0  0  0  0
   -0.8220   27.5425    9.5171 H   0  0  0  0  0  0
   -1.7140   26.4151   11.4644 H   0  0  0  0  0  0
   -1.6365   27.8785   12.4471 H   0  0  0  0  0  0
   -2.7727   27.7752   11.1439 H   0  0  0  0  0  0
    1.4266   28.3123   10.3000 H   0  0  0  0  0  0
    0.8660   25.8296   10.3580 H   0  0  0  0  0  0
    0.6029   26.0056   12.0925 H   0  0  0  0  0  0
    2.1838   26.3560   11.3766 H   0  0  0  0  0  0
    1.5896   28.2582   12.6829 H   0  0  0  0  0  0
    3.1467   28.6500    9.1581 H   0  0  0  0  0  0
    4.3357   26.4872    8.9611 H   0  0  0  0  0  0
  1  2  1  0  0  0
  1 30  1  0  0  0
  1 31  1  0  0  0
  1 32  1  0  0  0
  2  3  1  0  0  0
  2 33  1  0  0  0
  2 34  1  0  0  0
  3  4  1  0  0  0
  4  5  2  0  0  0
  4  6  1  0  0  0
  6  7  2  0  0  0
  7  8  2  0  0  0
  7  9  1  0  0  0
  7 10  1  0  0  0
  9 35  1  0  0  0
  9 36  1  0  0  0
  9 37  1  0  0  0
 10 11  2  0  0  0
 10 29  1  0  0  0
 11 12  1  0  0  0
 11 38  1  0  0  0
 12 13  2  0  0  0
 12 39  1  0  0  0
 13 14  1  0  0  0
 13 28  1  0  0  0
 14 15  1  0  0  0
 14 40  1  0  0  0
 15 16  2  0  0  0
 15 27  1  0  0  0
 16 17  1  0  0  0
 17 18  2  0  0  0
 17 41  1  0  0  0
 18 19  1  0  0  0
 18 20  1  0  0  0
 20 21  1  0  0  0
 20 27  2  0  0  0
 21 22  1  0  0  0
 21 42  1  0  0  0
 22 23  1  0  0  0
 22 24  1  0  0  0
 22 43  1  0  0  0
 23 44  1  0  0  0
 23 45  1  0  0  0
 23 46  1  0  0  0
 24 25  1  0  0  0
 24 26  1  0  0  0
 24 47  1  0  0  0
 25 48  1  0  0  0
 25 49  1  0  0  0
 25 50  1  0  0  0
 26 51  1  0  0  0
 28 29  2  0  0  0
 28 52  1  0  0  0
 29 53  1  0  0  0
M  END
> <s_m_entry_id>
33030

> <s_m_entry_name>
dock_pv.431

> <s_m_Source_Path>
/home/csk/Desktop/cluster/DUD-E-result/cdk2

> <s_m_Source_File>
dock_pv.maegz

> <i_m_Source_File_Index>
431

> <chembl_id>
CHEMBL3648085

> <chembl_pref_name>
None

> <i_lp_mmshare_version>
53161

> <i_f3d_flags>
0

> <r_lp_tautomer_probability>
0.999999624730965

> <s_lp_Force_Field>
OPLS_2005

> <r_lp_Energy>
3.348021

> <b_lp_Chiralities_Consistent>
1

> <s_lp_Variant>
CHEMBL301_lig1377-2

> <s_i_glide_gridfile>
glide-grid_1h00

> <i_i_glide_lignum>
1848

> <i_i_glide_rotatable_bonds>
10

> <r_i_docking_score>
-7.18577930757967

> <r_i_glide_ligand_efficiency>
-0.247785493364816

> <r_i_glide_ligand_efficiency_sa>
-0.761275539571114

> <r_i_glide_ligand_efficiency_ln>
-1.6453612457945

> <r_i_glide_gscore>
-7.18577930757967

> <r_i_glide_lipo>
-2.53686239510599

> <r_i_glide_hbond>
-0.552534234847948

> <r_i_glide_metal>
0

> <r_i_glide_rewards>
-0.87251550095333

> <r_i_glide_evdw>
-39.3960456848145

> <r_i_glide_ecoul>
-12.9418830871582

> <r_i_glide_erotb>
0.687217570642055

> <r_i_glide_esite>
0

> <r_i_glide_emodel>
-70.5070276176916

> <r_i_glide_energy>
-52.3379287719727

> <r_i_glide_einternal>
7.26021289825439

> <i_i_glide_confnum>
40

> <i_i_glide_posenum>
261

> <r_i_glide_eff_state_penalty>
0

> <s_user_duplicate_titles>
CHEMBL301_lig1377

> <s_m_subgroup_title>
dock_pv

> <s_m_subgroupid>
dock_pv

> <b_m_subgroup_collapsed>
1

$$$$
CHEMBL301_lig221
                    3D
 Schrodinger Suite 2021-1.
 44 48  0  0  1  0            999 V2000
   -0.9612   28.8775   10.4014 C   0  0  0  0  0  0
   -2.3207   29.0519   10.9993 C   0  0  0  0  0  0
   -0.7135   30.0081    9.6524 C   0  0  0  0  0  0
    0.0013   27.8617   10.4656 C   0  0  0  0  0  0
   -2.7213   30.2710   10.5760 N   0  0  0  0  0  0
   -1.7695   30.8799    9.7733 C   0  0  0  0  0  0
    0.4465   30.2488    8.8915 C   0  0  0  0  0  0
    1.4331   29.2094    8.9853 C   0  0  0  0  0  0
    1.2020   28.0673    9.7760 C   0  0  0  0  0  0
   -0.1471   26.5678   11.2086 C   0  0  0  0  0  0
   -0.9207   26.4065   12.3337 N   0  0  0  0  0  0
    2.9515   29.4230    8.0877 S   0  0  0  0  0  0
   -2.9451   28.2766   11.7206 O   0  0  0  0  0  0
    0.4581   31.4938    8.1758 C   0  0  0  0  0  0
   -1.7042   32.1198    9.1468 C   0  0  0  0  0  0
    6.0291   26.6519    8.1759 N   0  0  2  0  0  0
    0.4283   25.3170   10.9719 C   0  0  0  0  0  0
   -0.8560   25.1161   12.7912 C   0  0  0  0  0  0
   -0.0101   24.4177   11.9493 C   0  0  0  0  0  0
   -0.5828   32.4191    8.3640 C   0  0  0  0  0  0
    3.9475   27.9375    8.4341 C   0  0  0  0  0  0
    1.4725   31.8359    7.3496 F   0  0  0  0  0  0
    5.2582   27.7783    7.6504 C   0  0  2  0  0  0
    5.6042   25.4860    7.4199 C   0  0  0  0  0  0
    5.0406   27.4618    6.1591 C   0  0  0  0  0  0
    5.4076   25.9879    5.9943 C   0  0  0  0  0  0
   -3.5608   30.7089   10.9268 H   0  0  0  0  0  0
    1.9559   27.3041    9.8646 H   0  0  0  0  0  0
   -1.4989   27.1369   12.7324 H   0  0  0  0  0  0
   -2.5027   32.8406    9.2459 H   0  0  0  0  0  0
    5.8540   26.5183    9.1741 H   0  0  0  0  0  0
    1.0992   25.0776   10.1589 H   0  0  0  0  0  0
   -1.4235   24.8141   13.6581 H   0  0  0  0  0  0
    0.2573   23.3731   12.0282 H   0  0  0  0  0  0
   -0.5316   33.3724    7.8564 H   0  0  0  0  0  0
    4.1564   27.9407    9.5028 H   0  0  0  0  0  0
    3.3290   27.0615    8.2416 H   0  0  0  0  0  0
    5.8709   28.6730    7.7618 H   0  0  0  0  0  0
    4.6874   25.0547    7.8256 H   0  0  0  0  0  0
    6.3847   24.7256    7.4676 H   0  0  0  0  0  0
    4.0098   27.6468    5.8522 H   0  0  0  0  0  0
    5.6579   28.0946    5.5248 H   0  0  0  0  0  0
    4.6265   25.4266    5.4776 H   0  0  0  0  0  0
    6.3274   25.8679    5.4166 H   0  0  0  0  0  0
  1  2  1  0  0  0
  1  3  1  0  0  0
  1  4  2  0  0  0
  2  5  1  0  0  0
  2 13  2  0  0  0
  3  6  1  0  0  0
  3  7  2  0  0  0
  4  9  1  0  0  0
  4 10  1  0  0  0
  5  6  1  0  0  0
  5 27  1  0  0  0
  6 15  2  0  0  0
  7 14  1  0  0  0
  7  8  1  0  0  0
  8  9  2  0  0  0
  8 12  1  0  0  0
  9 28  1  0  0  0
 10 11  1  0  0  0
 10 17  2  0  0  0
 11 18  1  0  0  0
 11 29  1  0  0  0
 12 21  1  0  0  0
 14 20  2  0  0  0
 14 22  1  0  0  0
 15 20  1  0  0  0
 15 30  1  0  0  0
 16 23  1  0  0  0
 16 24  1  0  0  0
 16 31  1  0  0  0
 17 19  1  0  0  0
 17 32  1  0  0  0
 18 19  2  0  0  0
 18 33  1  0  0  0
 19 34  1  0  0  0
 20 35  1  0  0  0
 21 23  1  0  0  0
 21 36  1  0  0  0
 21 37  1  0  0  0
 23 25  1  0  0  0
 23 38  1  0  0  0
 24 26  1  0  0  0
 24 39  1  0  0  0
 24 40  1  0  0  0
 25 26  1  0  0  0
 25 41  1  0  0  0
 25 42  1  0  0  0
 26 43  1  0  0  0
 26 44  1  0  0  0
M  END
> <s_m_entry_id>
33031

> <s_m_entry_name>
dock_pv.432

> <s_m_Source_Path>
/home/csk/Desktop/cluster/DUD-E-result/cdk2

> <s_m_Source_File>
dock_pv.maegz

> <i_m_Source_File_Index>
432

> <chembl_id>
CHEMBL442186

> <chembl_pref_name>
None

> <i_lp_mmshare_version>
53161

> <i_f3d_flags>
0

> <r_lp_tautomer_probability>
1

> <s_lp_Force_Field>
OPLS_2005

> <r_lp_Energy>
73.860147

> <b_lp_Chiralities_Consistent>
1

> <s_lp_Variant>
CHEMBL301_lig221-1

> <s_i_glide_gridfile>
glide-grid_1h00

> <i_i_glide_lignum>
363

> <i_i_glide_rotatable_bonds>
4

> <r_i_docking_score>
-7.17979082138985

> <r_i_glide_ligand_efficiency>
-0.276145800822687

> <r_i_glide_ligand_efficiency_sa>
-0.818080848355952

> <r_i_glide_ligand_efficiency_ln>
-1.68615031558818

> <r_i_glide_gscore>
-7.17979082138985

> <r_i_glide_lipo>
-3.61256124458588

> <r_i_glide_hbond>
-0.212018261451494

> <r_i_glide_metal>
0

> <r_i_glide_rewards>
-1.40892316999239

> <r_i_glide_evdw>
-35.5024566650391

> <r_i_glide_ecoul>
-4.4794225692749

> <r_i_glide_erotb>
0.570574072023281

> <r_i_glide_esite>
-0.0698259987401768

> <r_i_glide_emodel>
-60.3537895775275

> <r_i_glide_energy>
-39.981879234314

> <r_i_glide_einternal>
3.28015089035034

> <i_i_glide_confnum>
264

> <i_i_glide_posenum>
167

> <r_i_glide_eff_state_penalty>
0

> <s_user_duplicate_titles>
CHEMBL301_lig221,130701

> <s_m_subgroup_title>
dock_pv

> <s_m_subgroupid>
dock_pv

> <b_m_subgroup_collapsed>
1

$$$$
CHEMBL301_lig8
                    3D
 Schrodinger Suite 2021-1.
 60 63  0  0  1  0            999 V2000
    4.6880   24.7805    7.2078 N   0  0  0  0  0  0
    5.3176   25.9650    7.1907 C   0  0  0  0  0  0
    6.6116   26.2269    6.9758 N   0  0  0  0  0  0
    7.4414   25.1811    6.7329 C   0  0  0  0  0  0
    5.5452   23.7543    6.9769 C   0  0  0  0  0  0
    6.9007   23.8704    6.7405 C   0  0  0  0  0  0
    7.4659   22.6620    6.5754 N   0  0  0  0  0  0
    6.4738   21.8163    6.7222 C   0  0  0  0  0  0
    5.2868   22.4082    6.9763 N   0  0  0  0  0  0
    8.7834   25.4646    6.5074 N   0  0  0  0  0  0
    3.9217   21.7877    7.2141 C   0  0  2  0  0  0
    3.6754   21.4967    8.5594 O   0  0  0  0  0  0
    2.5206   20.6639    8.6132 C   0  0  1  0  0  0
    2.8440   19.6862    7.4779 C   0  0  2  0  0  0
    3.4921   20.5640    6.3829 C   0  0  1  0  0  0
    1.7130   18.9323    7.0547 O   0  0  0  0  0  0
    2.6191   20.9705    5.3322 O   0  0  0  0  0  0
    2.3491   20.0255   10.0106 C   0  0  0  0  0  0
    1.9505   21.0177   10.9425 O   0  0  0  0  0  0
    1.1529   20.6346   12.3149 P   0  0  1  0  0  0
    0.9489   22.0913   12.9721 O   0  0  0  0  0  0
   -0.3395   20.2520   11.8076 O   0  0  0  0  0  0
    1.8236   19.6355   13.1875 O   0  0  0  0  0  0
    0.3350   23.5662   12.4151 P   0  0  1  0  0  0
   -0.1723   24.5802   13.6763 O   0  0  0  0  0  0
    1.7150   24.3433   11.7768 O   0  0  0  0  0  0
   -0.7407   23.3895   11.3751 O   0  0  0  0  0  0
   -1.0299   25.9425   13.7839 P   0  0  2  0  0  0
   -0.1597   26.9807   12.7563 N   0  0  0  0  0  0
   -1.3012   26.4019   15.1707 O   0  0  0  0  0  0
   -2.3452   25.5468   12.9354 O   0  0  0  0  0  0
   -0.6068   28.0081   11.8944 C   0  0  0  0  0  0
    0.3360   28.6511   11.0938 C   0  0  0  0  0  0
   -0.0575   29.6841   10.2427 C   0  0  0  0  0  0
   -1.3984   30.0970   10.1837 C   0  0  0  0  0  0
   -2.3280   29.4268   10.9760 C   0  0  0  0  0  0
   -1.9421   28.3993   11.8284 C   0  0  0  0  0  0
   -1.8638   31.1467    9.3855 N   0  0  0  0  0  0
   -1.1221   32.0354    8.9749 N   0  3  0  0  0  0
   -0.3425   32.7571    8.5684 N   0  5  0  0  0  0
    4.6933   26.8268    7.3775 H   0  0  0  0  0  0
    6.5561   20.7398    6.6707 H   0  0  0  0  0  0
    9.3705   24.7333    6.1370 H   0  0  0  0  0  0
    9.0314   26.4382    6.3996 H   0  0  0  0  0  0
    3.2581   22.6188    6.9901 H   0  0  0  0  0  0
    1.6327   21.2513    8.3650 H   0  0  0  0  0  0
    3.6090   18.9932    7.8361 H   0  0  0  0  0  0
    4.3718   20.0645    5.9728 H   0  0  0  0  0  0
    1.3408   18.4806    7.8172 H   0  0  0  0  0  0
    3.0984   21.5229    4.7058 H   0  0  0  0  0  0
    1.5830   19.2494    9.9667 H   0  0  0  0  0  0
    3.2738   19.5566   10.3491 H   0  0  0  0  0  0
   -0.7298   19.4171   12.1759 H   0  0  0  0  0  0
    1.6599   25.1945   11.3034 H   0  0  0  0  0  0
    0.8375   27.0513   12.9725 H   0  0  0  0  0  0
   -2.9083   26.2920   12.6574 H   0  0  0  0  0  0
    1.3752   28.3553   11.1250 H   0  0  0  0  0  0
    0.6922   30.1656    9.6319 H   0  0  0  0  0  0
   -3.3644   29.7361   10.9722 H   0  0  0  0  0  0
   -2.6935   27.9653   12.4678 H   0  0  0  0  0  0
  1  2  2  0  0  0
  1  5  1  0  0  0
  2  3  1  0  0  0
  2 41  1  0  0  0
  3  4  2  0  0  0
  4  6  1  0  0  0
  4 10  1  0  0  0
  5  9  1  0  0  0
  5  6  2  0  0  0
  6  7  1  0  0  0
  7  8  2  0  0  0
  8  9  1  0  0  0
  8 42  1  0  0  0
  9 11  1  0  0  0
 10 43  1  0  0  0
 10 44  1  0  0  0
 11 12  1  0  0  0
 11 15  1  0  0  0
 11 45  1  0  0  0
 12 13  1  0  0  0
 13 14  1  0  0  0
 13 18  1  0  0  0
 13 46  1  0  0  0
 14 15  1  0  0  0
 14 16  1  0  0  0
 14 47  1  0  0  0
 15 17  1  0  0  0
 15 48  1  0  0  0
 16 49  1  0  0  0
 17 50  1  0  0  0
 18 19  1  0  0  0
 18 51  1  0  0  0
 18 52  1  0  0  0
 19 20  1  0  0  0
 20 21  1  0  0  0
 20 22  1  0  0  0
 20 23  2  0  0  0
 21 24  1  0  0  0
 22 53  1  0  0  0
 24 25  1  0  0  0
 24 26  1  0  0  0
 24 27  2  0  0  0
 25 28  1  0  0  0
 26 54  1  0  0  0
 28 29  1  0  0  0
 28 30  2  0  0  0
 28 31  1  0  0  0
 29 32  1  0  0  0
 29 55  1  0  0  0
 31 56  1  0  0  0
 32 33  2  0  0  0
 32 37  1  0  0  0
 33 34  1  0  0  0
 33 57  1  0  0  0
 34 35  2  0  0  0
 34 58  1  0  0  0
 35 36  1  0  0  0
 35 38  1  0  0  0
 36 37  2  0  0  0
 36 59  1  0  0  0
 37 60  1  0  0  0
 38 39  2  0  0  0
 39 40  2  0  0  0
M  CHG  2  39   1  40  -1
M  END
> <s_m_entry_id>
33032

> <s_m_entry_name>
dock_pv.433

> <s_m_Source_Path>
/home/csk/Desktop/cluster/DUD-E-result/cdk2

> <s_m_Source_File>
dock_pv.maegz

> <i_m_Source_File_Index>
433

> <chembl_id>
CHEMBL558335

> <chembl_pref_name>
None

> <i_lp_mmshare_version>
53161

> <i_f3d_flags>
0

> <r_lp_tautomer_probability>
0.999997216410988

> <s_lp_Force_Field>
OPLS_2005

> <r_lp_Energy>
40.74849

> <b_lp_Chiralities_Consistent>
1

> <s_lp_Variant>
CHEMBL301_lig8-8

> <s_i_glide_gridfile>
glide-grid_1h00

> <i_i_glide_lignum>
23

> <i_i_glide_rotatable_bonds>
16

> <r_i_docking_score>
-7.17352855052284

> <r_i_glide_ligand_efficiency>
-0.179338213763071

> <r_i_glide_ligand_efficiency_sa>
-0.613328062955466

> <r_i_glide_ligand_efficiency_ln>
-1.52990253230522

> <r_i_glide_gscore>
-7.17352855052284

> <r_i_glide_lipo>
-0.879271770999925

> <r_i_glide_hbond>
-0.423062763990599

> <r_i_glide_metal>
0

> <r_i_glide_rewards>
-0.268599684214951

> <r_i_glide_evdw>
-51.1402702331543

> <r_i_glide_ecoul>
-22.7703838348389

> <r_i_glide_erotb>
0.463759683740915

> <r_i_glide_esite>
-0.0937829281747378

> <r_i_glide_emodel>
-98.3430895399838

> <r_i_glide_energy>
-73.9106540679932

> <r_i_glide_einternal>
15.6758041381836

> <i_i_glide_confnum>
14

> <i_i_glide_posenum>
44

> <r_i_glide_eff_state_penalty>
0

> <s_user_duplicate_titles>
CHEMBL301_lig8

> <s_m_subgroup_title>
dock_pv

> <s_m_subgroupid>
dock_pv

> <b_m_subgroup_collapsed>
1

$$$$
CHEMBL301_lig1347
                    3D
 Schrodinger Suite 2021-1.
 49 51  0  0  1  0            999 V2000
   -1.2739   25.4418    9.5546 C   0  0  0  0  0  0
   -0.7420   26.7476    9.6928 O   0  0  0  0  0  0
   -0.8541   27.3864   10.9058 C   0  0  0  0  0  0
   -1.3024   26.7431   12.0728 C   0  0  0  0  0  0
   -1.4306   27.4509   13.2595 C   0  0  0  0  0  0
   -1.8433   26.8209   14.3838 F   0  0  0  0  0  0
   -1.1420   28.8112   13.2796 C   0  0  0  0  0  0
   -0.6822   29.4515   12.1402 C   0  0  0  0  0  0
   -0.5114   28.7485   10.9520 C   0  0  0  0  0  0
    0.0652   29.4639    9.7899 C   0  0  0  0  0  0
   -0.5700   30.5741    9.2242 C   0  0  0  0  0  0
    0.0581   31.2462    8.1762 C   0  0  0  0  0  0
    1.2580   30.8661    7.6676 N   0  0  0  0  0  0
    1.8846   29.7955    8.2219 C   0  0  0  0  0  0
    3.1036   29.4527    7.6096 N   0  0  0  0  0  0
    3.8588   28.3397    7.7585 C   0  0  0  0  0  0
    3.6358   27.4467    8.5759 O   0  0  0  0  0  0
    5.0426   28.2056    6.7720 C   0  0  2  0  0  0
    4.5773   28.1781    5.2990 C   0  0  0  0  0  0
    4.3130   26.7061    4.9608 C   0  0  0  0  0  0
    5.2225   25.8739    5.8844 C   0  0  1  0  0  0
    5.8204   26.8695    6.9063 C   0  0  0  0  0  0
    4.4749   24.8042    6.5476 N   0  0  0  0  0  0
    5.0100   23.6521    6.9761 C   0  0  0  0  0  0
    6.1986   23.3603    6.8590 O   0  0  0  0  0  0
    4.0590   22.6801    7.6594 C   0  0  0  0  0  0
    1.3078   29.0764    9.2850 C   0  0  0  0  0  0
   -1.1419   25.1138    8.5287 H   0  0  0  0  0  0
   -0.7514   24.7248   10.1895 H   0  0  0  0  0  0
   -2.3421   25.4111    9.7761 H   0  0  0  0  0  0
   -1.5607   25.6964   12.0817 H   0  0  0  0  0  0
   -1.3048   29.3888   14.1746 H   0  0  0  0  0  0
   -0.4393   30.4996   12.1772 H   0  0  0  0  0  0
   -1.5195   30.9210    9.6057 H   0  0  0  0  0  0
   -0.3881   32.1332    7.7546 H   0  0  0  0  0  0
    3.4263   30.1196    6.9212 H   0  0  0  0  0  0
    5.6591   29.0792    6.9627 H   0  0  0  0  0  0
    5.3734   28.5691    4.6636 H   0  0  0  0  0  0
    3.7127   28.8100    5.0895 H   0  0  0  0  0  0
    4.4956   26.4896    3.9066 H   0  0  0  0  0  0
    3.2621   26.4866    5.1457 H   0  0  0  0  0  0
    6.0686   25.4891    5.3071 H   0  0  0  0  0  0
    5.8805   26.4790    7.9252 H   0  0  0  0  0  0
    6.8581   27.0518    6.6271 H   0  0  0  0  0  0
    3.5128   25.0013    6.7841 H   0  0  0  0  0  0
    3.4262   22.1952    6.9157 H   0  0  0  0  0  0
    3.4166   23.1996    8.3717 H   0  0  0  0  0  0
    4.6148   21.9092    8.1925 H   0  0  0  0  0  0
    1.7970   28.2336    9.7456 H   0  0  0  0  0  0
  1  2  1  0  0  0
  1 28  1  0  0  0
  1 29  1  0  0  0
  1 30  1  0  0  0
  2  3  1  0  0  0
  3  4  2  0  0  0
  3  9  1  0  0  0
  4  5  1  0  0  0
  4 31  1  0  0  0
  5  6  1  0  0  0
  5  7  2  0  0  0
  7  8  1  0  0  0
  7 32  1  0  0  0
  8  9  2  0  0  0
  8 33  1  0  0  0
  9 10  1  0  0  0
 10 11  2  0  0  0
 10 27  1  0  0  0
 11 12  1  0  0  0
 11 34  1  0  0  0
 12 13  2  0  0  0
 12 35  1  0  0  0
 13 14  1  0  0  0
 14 15  1  0  0  0
 14 27  2  0  0  0
 15 16  1  0  0  0
 15 36  1  0  0  0
 16 17  2  0  0  0
 16 18  1  0  0  0
 18 19  1  0  0  0
 18 22  1  0  0  0
 18 37  1  0  0  0
 19 20  1  0  0  0
 19 38  1  0  0  0
 19 39  1  0  0  0
 20 21  1  0  0  0
 20 40  1  0  0  0
 20 41  1  0  0  0
 21 22  1  0  0  0
 21 23  1  0  0  0
 21 42  1  0  0  0
 22 43  1  0  0  0
 22 44  1  0  0  0
 23 24  1  0  0  0
 23 45  1  0  0  0
 24 25  2  0  0  0
 24 26  1  0  0  0
 26 46  1  0  0  0
 26 47  1  0  0  0
 26 48  1  0  0  0
 27 49  1  0  0  0
M  END
> <s_m_entry_id>
33033

> <s_m_entry_name>
dock_pv.434

> <s_m_Source_Path>
/home/csk/Desktop/cluster/DUD-E-result/cdk2

> <s_m_Source_File>
dock_pv.maegz

> <i_m_Source_File_Index>
434

> <chembl_id>
CHEMBL3673435

> <chembl_pref_name>
None

> <i_lp_mmshare_version>
53161

> <i_f3d_flags>
0

> <r_lp_tautomer_probability>
1

> <s_lp_Force_Field>
OPLS_2005

> <r_lp_Energy>
30.638567

> <b_lp_Chiralities_Consistent>
1

> <s_lp_Variant>
CHEMBL301_lig1347-3

> <s_i_glide_gridfile>
glide-grid_1h00

> <i_i_glide_lignum>
1787

> <i_i_glide_rotatable_bonds>
7

> <r_i_docking_score>
-7.17172803666629

> <r_i_glide_ligand_efficiency>
-0.265619556913566

> <r_i_glide_ligand_efficiency_sa>
-0.796858669865261

> <r_i_glide_ligand_efficiency_ln>
-1.66946005175865

> <r_i_glide_gscore>
-7.17172803666629

> <r_i_glide_lipo>
-2.95792731160923

> <r_i_glide_hbond>
-0.275747564680099

> <r_i_glide_metal>
0

> <r_i_glide_rewards>
-2.14180674316759

> <r_i_glide_evdw>
-37.2887077331543

> <r_i_glide_ecoul>
-3.69434642791748

> <r_i_glide_erotb>
0.699670168200636

> <r_i_glide_esite>
-0.0773292345646787

> <r_i_glide_emodel>
-55.83075972329

> <r_i_glide_energy>
-40.9830541610718

> <r_i_glide_einternal>
12.2705135345459

> <i_i_glide_confnum>
177

> <i_i_glide_posenum>
150

> <r_i_glide_eff_state_penalty>
0

> <s_user_duplicate_titles>
CHEMBL301_lig1347

> <s_m_subgroup_title>
dock_pv

> <s_m_subgroupid>
dock_pv

> <b_m_subgroup_collapsed>
1

$$$$
CHEMBL301_lig351
                    3D
 Schrodinger Suite 2021-1.
 57 60  0  0  1  0            999 V2000
    0.9398   29.9467    8.6984 C   0  0  0  0  0  0
    2.0794   29.9863    7.8823 N   0  0  0  0  0  0
    3.0403   29.0105    7.9693 C   0  0  0  0  0  0
    7.5917   24.4185    5.3834 S   0  0  0  0  0  0
    0.7648   28.9924    9.6123 N   0  0  0  0  0  0
    2.0554   31.0517    7.0322 N   0  0  0  0  0  0
    2.8886   28.0530    8.9723 C   0  0  0  0  0  0
    0.1786   31.0673    8.3070 C   0  0  0  0  0  0
    1.7534   28.0754    9.7674 C   0  0  0  0  0  0
    0.9758   31.7238    7.3760 C   0  0  0  0  0  0
    4.0306   28.9269    6.9845 N   0  0  0  0  0  0
    6.4897   25.7366    5.8816 C   0  0  0  0  0  0
    9.0998   25.2423    4.9319 N   0  0  0  0  0  0
    7.0227   23.8079    4.1765 O   0  0  0  0  0  0
    7.8561   23.6057    6.5761 O   0  0  0  0  0  0
    1.6314   27.0400   10.6977 N   0  0  0  0  0  0
   -1.3290   31.5140    9.0008 Cl  0  0  0  0  0  0
    6.4661   26.1451    7.2157 C   0  0  0  0  0  0
    5.6948   26.3780    4.9287 C   0  0  0  0  0  0
    4.8612   27.8551    6.6456 C   0  0  0  0  0  0
    0.4003   26.6834   11.3974 C   0  0  2  0  0  0
    5.6520   27.2067    7.5948 C   0  0  0  0  0  0
    4.8859   27.4436    5.3131 C   0  0  0  0  0  0
   -3.7334   26.6520   12.5789 N   0  0  0  0  0  0
   -2.4710   26.9349   11.9538 C   0  0  1  0  0  0
   -0.6380   26.1361   10.3902 C   0  0  0  0  0  0
   -0.1497   27.8288   12.2865 C   0  0  0  0  0  0
   -1.4271   27.3742   12.9945 C   0  0  0  0  0  0
   -1.9416   25.7603   11.1082 C   0  0  0  0  0  0
    9.0814   26.0294    3.6790 C   0  0  0  0  0  0
    9.8691   25.8522    6.0363 C   0  0  0  0  0  0
    3.5902   27.2469    9.0956 H   0  0  0  0  0  0
    0.7595   32.6998    6.9719 H   0  0  0  0  0  0
    4.0143   29.7005    6.3287 H   0  0  0  0  0  0
    2.3864   26.3719   10.7212 H   0  0  0  0  0  0
    7.0853   25.6581    7.9557 H   0  0  0  0  0  0
    5.7164   26.0680    3.8919 H   0  0  0  0  0  0
    0.6821   25.8495   12.0409 H   0  0  0  0  0  0
    5.6579   27.5369    8.6200 H   0  0  0  0  0  0
    4.2768   27.9430    4.5747 H   0  0  0  0  0  0
   -3.9544   27.4950   13.1142 H   0  0  0  0  0  0
   -4.4408   26.5044   11.8753 H   0  0  0  0  0  0
   -2.6291   27.7849   11.2875 H   0  0  0  0  0  0
   -0.8607   26.8754    9.6202 H   0  0  0  0  0  0
   -0.2408   25.2651    9.8673 H   0  0  0  0  0  0
    0.5803   28.1498   13.0234 H   0  0  0  0  0  0
   -0.3993   28.7221   11.7193 H   0  0  0  0  0  0
   -1.2139   26.5613   13.6910 H   0  0  0  0  0  0
   -1.8132   28.2010   13.5933 H   0  0  0  0  0  0
   -1.7735   24.8942   11.7500 H   0  0  0  0  0  0
   -2.6870   25.4532   10.3716 H   0  0  0  0  0  0
   10.1000   26.2359    3.3478 H   0  0  0  0  0  0
    8.5420   26.9638    3.8346 H   0  0  0  0  0  0
    8.5725   25.4661    2.8958 H   0  0  0  0  0  0
   10.8911   26.0568    5.7137 H   0  0  0  0  0  0
    9.3899   26.7789    6.3547 H   0  0  0  0  0  0
    9.9040   25.1725    6.8885 H   0  0  0  0  0  0
  1  2  1  0  0  0
  1  5  1  0  0  0
  1  8  2  0  0  0
  2  3  1  0  0  0
  2  6  1  0  0  0
  3 11  1  0  0  0
  3  7  2  0  0  0
  4 12  1  0  0  0
  4 13  1  0  0  0
  4 14  2  0  0  0
  4 15  2  0  0  0
  5  9  2  0  0  0
  6 10  2  0  0  0
  7  9  1  0  0  0
  7 32  1  0  0  0
  8 10  1  0  0  0
  8 17  1  0  0  0
  9 16  1  0  0  0
 10 33  1  0  0  0
 11 20  1  0  0  0
 11 34  1  0  0  0
 12 19  2  0  0  0
 12 18  1  0  0  0
 13 30  1  0  0  0
 13 31  1  0  0  0
 16 21  1  0  0  0
 16 35  1  0  0  0
 18 22  2  0  0  0
 18 36  1  0  0  0
 19 23  1  0  0  0
 19 37  1  0  0  0
 20 22  1  0  0  0
 20 23  2  0  0  0
 21 26  1  0  0  0
 21 27  1  0  0  0
 21 38  1  0  0  0
 22 39  1  0  0  0
 23 40  1  0  0  0
 24 25  1  0  0  0
 24 41  1  0  0  0
 24 42  1  0  0  0
 25 28  1  0  0  0
 25 29  1  0  0  0
 25 43  1  0  0  0
 26 29  1  0  0  0
 26 44  1  0  0  0
 26 45  1  0  0  0
 27 28  1  0  0  0
 27 46  1  0  0  0
 27 47  1  0  0  0
 28 48  1  0  0  0
 28 49  1  0  0  0
 29 50  1  0  0  0
 29 51  1  0  0  0
 30 52  1  0  0  0
 30 53  1  0  0  0
 30 54  1  0  0  0
 31 55  1  0  0  0
 31 56  1  0  0  0
 31 57  1  0  0  0
M  END
> <s_m_entry_id>
33034

> <s_m_entry_name>
dock_pv.435

> <s_m_Source_Path>
/home/csk/Desktop/cluster/DUD-E-result/cdk2

> <s_m_Source_File>
dock_pv.maegz

> <i_m_Source_File_Index>
435

> <chembl_id>
CHEMBL367150

> <chembl_pref_name>
None

> <i_lp_mmshare_version>
53161

> <i_f3d_flags>
0

> <r_lp_tautomer_probability>
1

> <s_lp_Force_Field>
OPLS_2005

> <r_lp_Energy>
20.372386

> <b_lp_Chiralities_Consistent>
1

> <s_lp_Variant>
CHEMBL301_lig351-1

> <s_i_glide_gridfile>
glide-grid_1h00

> <i_i_glide_lignum>
531

> <i_i_glide_rotatable_bonds>
6

> <r_i_docking_score>
-7.16696437445325

> <r_i_glide_ligand_efficiency>
-0.231192399175911

> <r_i_glide_ligand_efficiency_sa>
-0.726263328919829

> <r_i_glide_ligand_efficiency_ln>
-1.61637010751939

> <r_i_glide_gscore>
-7.16696437445325

> <r_i_glide_lipo>
-2.72761966764615

> <r_i_glide_hbond>
-0.430225439847287

> <r_i_glide_metal>
0

> <r_i_glide_rewards>
-1.39981908578045

> <r_i_glide_evdw>
-45.0979118347168

> <r_i_glide_ecoul>
-5.33447647094727

> <r_i_glide_erotb>
0.468128268785363

> <r_i_glide_esite>
-0.0223613875867925

> <r_i_glide_emodel>
-66.5028354205781

> <r_i_glide_energy>
-50.4323883056641

> <r_i_glide_einternal>
13.642294883728

> <i_i_glide_confnum>
3

> <i_i_glide_posenum>
101

> <r_i_glide_eff_state_penalty>
0

> <s_user_duplicate_titles>
CHEMBL301_lig351,300669

> <s_m_subgroup_title>
dock_pv

> <s_m_subgroupid>
dock_pv

> <b_m_subgroup_collapsed>
1

$$$$
CHEMBL301_lig1334
                    3D
 Schrodinger Suite 2021-1.
 43 44  0  0  1  0            999 V2000
   -2.2601   27.4568   12.1372 C   0  0  0  0  0  0
   -0.9170   28.1932   12.3070 C   0  0  2  0  0  0
   -1.1419   29.3802   13.0409 O   0  0  0  0  0  0
   -0.1831   28.5208   10.9821 C   0  0  1  0  0  0
    0.1211   27.2413   10.1761 C   0  0  0  0  0  0
   -0.9625   29.4778   10.2442 O   0  0  0  0  0  0
   -0.3610   30.2967    9.3053 C   0  0  0  0  0  0
    0.7413   29.8469    8.6458 N   0  0  0  0  0  0
    1.3131   30.6706    7.7331 C   0  0  0  0  0  0
    2.4120   30.2212    6.9862 N   0  0  0  0  0  0
    3.2582   29.1075    7.1185 C   0  0  0  0  0  0
    3.4747   28.4833    8.3460 C   0  0  0  0  0  0
    4.3360   27.3981    8.4261 C   0  0  0  0  0  0
    5.0234   26.9494    7.2970 C   0  0  0  0  0  0
    4.8236   27.5823    6.0702 C   0  0  0  0  0  0
    3.9375   28.6520    5.9847 C   0  0  0  0  0  0
    6.1197   25.5327    7.4241 S   0  0  1  0  0  0
    7.0563   25.8963    8.5760 N   0  0  0  0  0  0
    5.3210   24.3052    7.3740 O   0  0  0  0  0  0
    7.3019   25.5974    5.9635 C   0  0  0  0  0  0
    0.8904   31.9328    7.4634 N   0  0  0  0  0  0
   -0.1747   32.3874    8.1760 C   0  0  0  0  0  0
   -0.8571   31.5866    9.0932 C   0  0  0  0  0  0
   -2.3615   32.2586   10.0488 Br  0  0  0  0  0  0
   -2.1321   26.4904   11.6503 H   0  0  0  0  0  0
   -2.9576   28.0408   11.5354 H   0  0  0  0  0  0
   -2.7358   27.2660   13.0993 H   0  0  0  0  0  0
   -0.2591   27.5725   12.9182 H   0  0  0  0  0  0
   -2.0719   29.6258   12.9522 H   0  0  0  0  0  0
    0.7700   28.9812   11.2552 H   0  0  0  0  0  0
    0.5506   26.4653   10.8102 H   0  0  0  0  0  0
   -0.7796   26.8395    9.7109 H   0  0  0  0  0  0
    0.8418   27.4236    9.3816 H   0  0  0  0  0  0
    2.7728   30.9144    6.3463 H   0  0  0  0  0  0
    2.9849   28.8268    9.2436 H   0  0  0  0  0  0
    4.4579   26.9138    9.3759 H   0  0  0  0  0  0
    5.3412   27.2554    5.1814 H   0  0  0  0  0  0
    3.7960   29.1419    5.0333 H   0  0  0  0  0  0
    6.5713   25.8578    9.4751 H   0  0  0  0  0  0
    7.7547   26.5879    5.9184 H   0  0  0  0  0  0
    8.0734   24.8433    6.1111 H   0  0  0  0  0  0
    6.7512   25.3873    5.0479 H   0  0  0  0  0  0
   -0.4898   33.4032    7.9777 H   0  0  0  0  0  0
  1  2  1  0  0  0
  1 25  1  0  0  0
  1 26  1  0  0  0
  1 27  1  0  0  0
  2  3  1  0  0  0
  2  4  1  0  0  0
  2 28  1  0  0  0
  3 29  1  0  0  0
  4  5  1  0  0  0
  4  6  1  0  0  0
  4 30  1  0  0  0
  5 31  1  0  0  0
  5 32  1  0  0  0
  5 33  1  0  0  0
  6  7  1  0  0  0
  7  8  2  0  0  0
  7 23  1  0  0  0
  8  9  1  0  0  0
  9 10  1  0  0  0
  9 21  2  0  0  0
 10 11  1  0  0  0
 10 34  1  0  0  0
 11 12  2  0  0  0
 11 16  1  0  0  0
 12 13  1  0  0  0
 12 35  1  0  0  0
 13 14  2  0  0  0
 13 36  1  0  0  0
 14 15  1  0  0  0
 14 17  1  0  0  0
 15 16  2  0  0  0
 15 37  1  0  0  0
 16 38  1  0  0  0
 17 18  2  0  0  0
 17 19  2  0  0  0
 17 20  1  0  0  0
 18 39  1  0  0  0
 20 40  1  0  0  0
 20 41  1  0  0  0
 20 42  1  0  0  0
 21 22  1  0  0  0
 22 23  2  0  0  0
 22 43  1  0  0  0
 23 24  1  0  0  0
M  END
> <s_m_entry_id>
33035

> <s_m_entry_name>
dock_pv.436

> <s_m_Source_Path>
/home/csk/Desktop/cluster/DUD-E-result/cdk2

> <s_m_Source_File>
dock_pv.maegz

> <i_m_Source_File_Index>
436

> <chembl_id>
CHEMBL3648073

> <chembl_pref_name>
None

> <i_lp_mmshare_version>
53161

> <i_f3d_flags>
0

> <r_lp_tautomer_probability>
0.999999917912647

> <s_lp_Force_Field>
OPLS_2005

> <r_lp_Energy>
2.231628

> <b_lp_Chiralities_Consistent>
1

> <s_lp_Variant>
CHEMBL301_lig1334-2

> <s_i_glide_gridfile>
glide-grid_1h00

> <i_i_glide_lignum>
1762

> <i_i_glide_rotatable_bonds>
7

> <r_i_docking_score>
-7.16671491985423

> <r_i_glide_ligand_efficiency>
-0.298613121660593

> <r_i_glide_ligand_efficiency_sa>
-0.861349291893816

> <r_i_glide_ligand_efficiency_ln>
-1.71532373944004

> <r_i_glide_gscore>
-7.16671491985423

> <r_i_glide_lipo>
-2.4805398622032

> <r_i_glide_hbond>
-0.332457829125061

> <r_i_glide_metal>
0

> <r_i_glide_rewards>
-1.41936744395308

> <r_i_glide_evdw>
-39.0457038879395

> <r_i_glide_ecoul>
-10.3631181716919

> <r_i_glide_erotb>
0.572403135577875

> <r_i_glide_esite>
0

> <r_i_glide_emodel>
-67.1915669282521

> <r_i_glide_energy>
-49.4088220596313

> <r_i_glide_einternal>
7.89427614212036

> <i_i_glide_confnum>
6

> <i_i_glide_posenum>
324

> <r_i_glide_eff_state_penalty>
0

> <s_user_duplicate_titles>
CHEMBL301_lig1334

> <s_m_subgroup_title>
dock_pv

> <s_m_subgroupid>
dock_pv

> <b_m_subgroup_collapsed>
1

$$$$
CHEMBL301_lig7
                    3D
 Schrodinger Suite 2021-1.
 53 55  0  0  1  0            999 V2000
    2.4581   26.1618    9.8335 N   0  0  0  0  0  0
    3.4748   25.9829    8.9760 C   0  0  0  0  0  0
    4.0810   26.8727    8.1811 N   0  0  0  0  0  0
    3.5997   28.1390    8.1756 C   0  0  0  0  0  0
    1.9699   27.4260    9.7758 C   0  0  0  0  0  0
    2.4522   28.4314    8.9534 C   0  0  0  0  0  0
    1.6593   29.5132    8.9991 N   0  0  0  0  0  0
    0.7789   29.2240    9.9282 C   0  0  0  0  0  0
    0.9186   27.9886   10.4556 N   0  0  0  0  0  0
    4.2330   29.0480    7.3396 N   0  0  0  0  0  0
    0.1912   27.4086   11.6632 C   0  0  2  0  0  0
    0.2643   26.0088   11.6611 O   0  0  0  0  0  0
   -0.8377   25.4473   12.3434 C   0  0  1  0  0  0
   -1.9458   26.3363   11.7951 C   0  0  2  0  0  0
   -1.3177   27.7333   11.7860 C   0  0  1  0  0  0
   -3.1486   26.2520   12.5392 O   0  0  0  0  0  0
   -1.5273   28.4838   12.9759 O   0  0  0  0  0  0
   -0.9597   23.9550   11.9930 C   0  0  0  0  0  0
   -0.0125   23.1774   12.7080 O   0  0  0  0  0  0
    0.1329   21.5815   12.3986 P   0  0  2  0  0  0
    0.6069   21.5532   10.8532 O   0  0  0  0  0  0
   -1.4000   21.0517   12.3254 O   0  0  0  0  0  0
    1.0066   20.8300   13.3374 O   0  0  0  0  0  0
    2.0579   21.4698    9.9709 P   0  0  1  0  0  0
    1.7528   20.5686    8.5639 O   0  0  0  0  0  0
    2.3365   23.0332    9.3760 O   0  0  0  0  0  0
    3.2385   20.9706   10.7710 O   0  0  0  0  0  0
    2.5334   20.0867    7.2365 P   0  0  2  0  0  0
    3.4493   21.4519    6.8313 N   0  0  1  0  0  0
    1.6619   19.5090    6.1779 O   0  0  0  0  0  0
    3.6324   19.0660    7.8403 O   0  0  0  0  0  0
    4.5586   21.4051    5.8870 C   0  0  0  0  0  0
    4.0702   21.8714    4.5812 C   0  0  0  0  0  0
    3.6752   22.2808    3.5011 C   0  0  0  0  0  0
    3.9136   24.9968    8.9752 H   0  0  0  0  0  0
    0.0225   29.8995   10.3031 H   0  0  0  0  0  0
    3.9076   30.0030    7.2662 H   0  0  0  0  0  0
    5.0248   28.7287    6.8024 H   0  0  0  0  0  0
    0.7611   27.7431   12.5326 H   0  0  0  0  0  0
   -0.7283   25.5853   13.4220 H   0  0  0  0  0  0
   -2.1440   26.0505   10.7594 H   0  0  0  0  0  0
   -1.6708   28.2921   10.9182 H   0  0  0  0  0  0
   -3.6900   25.5401   12.1686 H   0  0  0  0  0  0
   -2.4776   28.5917   13.1457 H   0  0  0  0  0  0
   -0.8495   23.8087   10.9183 H   0  0  0  0  0  0
   -1.9426   23.5978   12.2835 H   0  0  0  0  0  0
   -1.5208   20.0914   12.5365 H   0  0  0  0  0  0
    1.7528   23.4525    8.7036 H   0  0  0  0  0  0
    2.9844   22.3605    6.8976 H   0  0  0  0  0  0
    3.3702   18.6397    8.6770 H   0  0  0  0  0  0
    4.9568   20.3930    5.8005 H   0  0  0  0  0  0
    5.3566   22.0684    6.2228 H   0  0  0  0  0  0
    3.3227   22.6515    2.5650 H   0  0  0  0  0  0
  1  2  2  0  0  0
  1  5  1  0  0  0
  2  3  1  0  0  0
  2 35  1  0  0  0
  3  4  2  0  0  0
  4  6  1  0  0  0
  4 10  1  0  0  0
  5  9  1  0  0  0
  5  6  2  0  0  0
  6  7  1  0  0  0
  7  8  2  0  0  0
  8  9  1  0  0  0
  8 36  1  0  0  0
  9 11  1  0  0  0
 10 37  1  0  0  0
 10 38  1  0  0  0
 11 12  1  0  0  0
 11 15  1  0  0  0
 11 39  1  0  0  0
 12 13  1  0  0  0
 13 18  1  0  0  0
 13 14  1  0  0  0
 13 40  1  0  0  0
 14 16  1  0  0  0
 14 15  1  0  0  0
 14 41  1  0  0  0
 15 17  1  0  0  0
 15 42  1  0  0  0
 16 43  1  0  0  0
 17 44  1  0  0  0
 18 19  1  0  0  0
 18 45  1  0  0  0
 18 46  1  0  0  0
 19 20  1  0  0  0
 20 21  1  0  0  0
 20 22  1  0  0  0
 20 23  2  0  0  0
 21 24  1  0  0  0
 22 47  1  0  0  0
 24 25  1  0  0  0
 24 26  1  0  0  0
 24 27  2  0  0  0
 25 28  1  0  0  0
 26 48  1  0  0  0
 28 29  1  0  0  0
 28 30  2  0  0  0
 28 31  1  0  0  0
 29 32  1  0  0  0
 29 49  1  0  0  0
 31 50  1  0  0  0
 32 33  1  0  0  0
 32 51  1  0  0  0
 32 52  1  0  0  0
 33 34  3  0  0  0
 34 53  1  0  0  0
M  END
> <s_m_entry_id>
33036

> <s_m_entry_name>
dock_pv.437

> <s_m_Source_Path>
/home/csk/Desktop/cluster/DUD-E-result/cdk2

> <s_m_Source_File>
dock_pv.maegz

> <i_m_Source_File_Index>
437

> <chembl_id>
CHEMBL557670

> <chembl_pref_name>
None

> <i_lp_mmshare_version>
53161

> <i_f3d_flags>
0

> <r_lp_tautomer_probability>
0.999997216410988

> <s_lp_Force_Field>
OPLS_2005

> <r_lp_Energy>
27.05087

> <b_lp_Chiralities_Consistent>
1

> <s_lp_Variant>
CHEMBL301_lig7-7

> <s_i_glide_gridfile>
glide-grid_1h00

> <i_i_glide_lignum>
14

> <i_i_glide_rotatable_bonds>
16

> <r_i_docking_score>
-7.1653769117645

> <r_i_glide_ligand_efficiency>
-0.21074637975778

> <r_i_glide_ligand_efficiency_sa>
-0.682736458137284

> <r_i_glide_ligand_efficiency_ln>
-1.58303274182344

> <r_i_glide_gscore>
-7.1653769117645

> <r_i_glide_lipo>
-0.957115709620248

> <r_i_glide_hbond>
-0.605048812541401

> <r_i_glide_metal>
0

> <r_i_glide_rewards>
-0.585187607872395

> <r_i_glide_evdw>
-32.6091003417969

> <r_i_glide_ecoul>
-30.9901275634766

> <r_i_glide_erotb>
0.768624783623472

> <r_i_glide_esite>
-0.156194548264091

> <r_i_glide_emodel>
-86.1855879587687

> <r_i_glide_energy>
-63.5992279052734

> <r_i_glide_einternal>
16.0423469543457

> <i_i_glide_confnum>
80

> <i_i_glide_posenum>
62

> <r_i_glide_eff_state_penalty>
0

> <s_user_duplicate_titles>
CHEMBL301_lig7

> <s_m_subgroup_title>
dock_pv

> <s_m_subgroupid>
dock_pv

> <b_m_subgroup_collapsed>
1

$$$$
CHEMBL301_lig1094
                    3D
 Schrodinger Suite 2021-1.
 71 75  0  0  1  0            999 V2000
   -1.2609   31.7922    9.5568 C   0  0  0  0  0  0
   -0.7609   32.6514    8.5761 C   0  0  0  0  0  0
    0.3017   32.3874    7.7761 N   0  0  0  0  0  0
   -0.6373   30.5524    9.7886 C   0  0  0  0  0  0
   -1.1061   29.7312   10.8288 N   0  0  0  0  0  0
   -1.2835   28.3136   10.5487 C   0  0  0  0  0  0
    0.4865   30.2511    8.9752 C   0  0  0  0  0  0
    0.8579   31.2006    7.9883 C   0  0  0  0  0  0
    1.9628   30.6787    7.3756 N   0  0  0  0  0  0
    2.2587   29.5115    8.0257 C   0  0  0  0  0  0
    1.4030   29.2240    8.9874 N   0  0  0  0  0  0
    3.4172   28.6757    7.6188 C   0  0  0  0  0  0
    4.0651   27.8883    8.5627 C   0  0  0  0  0  0
    5.1307   27.0876    8.1762 C   0  0  0  0  0  0
    5.5638   27.0462    6.8486 C   0  0  0  0  0  0
    4.8849   27.8159    5.9015 C   0  0  0  0  0  0
    3.8387   28.6506    6.2839 C   0  0  0  0  0  0
   -2.7621   32.3739   10.5766 Br  0  0  0  0  0  0
   -1.8478   27.5218   11.7439 C   0  0  0  0  0  0
   -2.0501   26.0148   11.4706 C   0  0  0  0  0  0
   -0.8149   25.3512   11.0638 N   0  0  0  0  0  0
    0.1190   24.8672   11.9002 C   0  0  0  0  0  0
    1.4349   24.3307   11.2995 C   0  0  0  0  0  0
   -0.0282   24.8581   13.1211 O   0  0  0  0  0  0
    1.4509   24.0740    9.7766 C   0  0  0  0  0  0
    2.8372   24.7269    9.7517 C   0  0  0  0  0  0
    2.4638   25.4503   11.0584 C   0  0  0  0  0  0
    6.6463   26.2998    6.4181 O   0  0  0  0  0  0
    7.5017   25.6677    7.3790 C   0  0  0  0  0  0
    8.9439   25.5428    6.8496 C   0  0  0  0  0  0
    9.1710   24.3799    5.9773 N   0  0  0  0  0  0
   10.6142   24.1970    5.7343 C   0  0  0  0  0  0
   11.2408   25.3032    4.8494 C   0  0  0  0  0  0
   10.4851   25.4575    3.5209 C   0  0  0  0  0  0
    8.9726   25.5870    3.7658 C   0  0  0  0  0  0
    8.4507   24.4627    4.6920 C   0  0  0  0  0  0
   -1.2224   33.6130    8.4183 H   0  0  0  0  0  0
   -1.8931   30.1387   11.3165 H   0  0  0  0  0  0
   -0.3409   27.8704   10.2223 H   0  0  0  0  0  0
   -1.9257   28.2117    9.6745 H   0  0  0  0  0  0
    2.5432   31.0628    6.6426 H   0  0  0  0  0  0
    3.7538   27.8923    9.5973 H   0  0  0  0  0  0
    5.5979   26.5130    8.9637 H   0  0  0  0  0  0
    5.2117   27.8003    4.8721 H   0  0  0  0  0  0
    3.3484   29.2527    5.5339 H   0  0  0  0  0  0
   -2.7963   27.9622   12.0584 H   0  0  0  0  0  0
   -1.1846   27.6427   12.6019 H   0  0  0  0  0  0
   -2.7420   25.8736   10.6403 H   0  0  0  0  0  0
   -2.5021   25.5233   12.3345 H   0  0  0  0  0  0
   -0.6231   25.3258   10.0734 H   0  0  0  0  0  0
    1.8368   23.5013   11.8859 H   0  0  0  0  0  0
    0.7455   24.6519    9.1792 H   0  0  0  0  0  0
    1.4339   23.0271    9.4719 H   0  0  0  0  0  0
    3.0182   25.3676    8.8900 H   0  0  0  0  0  0
    3.6576   24.0193    9.8388 H   0  0  0  0  0  0
    3.2573   25.5314   11.8028 H   0  0  0  0  0  0
    2.0405   26.4400   10.8650 H   0  0  0  0  0  0
    7.5831   26.2532    8.2959 H   0  0  0  0  0  0
    7.0910   24.6959    7.6564 H   0  0  0  0  0  0
    9.2272   26.4735    6.3585 H   0  0  0  0  0  0
    9.5996   25.4523    7.7161 H   0  0  0  0  0  0
   11.1426   24.1402    6.6890 H   0  0  0  0  0  0
   10.7584   23.2218    5.2660 H   0  0  0  0  0  0
   11.2893   26.2517    5.3851 H   0  0  0  0  0  0
   12.2804   25.0494    4.6423 H   0  0  0  0  0  0
   10.6794   24.5920    2.8875 H   0  0  0  0  0  0
   10.8578   26.3225    2.9756 H   0  0  0  0  0  0
    8.4454   25.5382    2.8129 H   0  0  0  0  0  0
    8.7139   26.5656    4.1704 H   0  0  0  0  0  0
    8.5475   23.4983    4.1926 H   0  0  0  0  0  0
    7.3819   24.5873    4.8637 H   0  0  0  0  0  0
  1 18  1  0  0  0
  1  4  1  0  0  0
  1  2  2  0  0  0
  2  3  1  0  0  0
  2 37  1  0  0  0
  3  8  2  0  0  0
  4  7  2  0  0  0
  4  5  1  0  0  0
  5  6  1  0  0  0
  5 38  1  0  0  0
  6 19  1  0  0  0
  6 39  1  0  0  0
  6 40  1  0  0  0
  7 11  1  0  0  0
  7  8  1  0  0  0
  8  9  1  0  0  0
  9 10  1  0  0  0
  9 41  1  0  0  0
 10 11  2  0  0  0
 10 12  1  0  0  0
 12 17  1  0  0  0
 12 13  2  0  0  0
 13 14  1  0  0  0
 13 42  1  0  0  0
 14 15  2  0  0  0
 14 43  1  0  0  0
 15 28  1  0  0  0
 15 16  1  0  0  0
 16 17  2  0  0  0
 16 44  1  0  0  0
 17 45  1  0  0  0
 19 20  1  0  0  0
 19 46  1  0  0  0
 19 47  1  0  0  0
 20 21  1  0  0  0
 20 48  1  0  0  0
 20 49  1  0  0  0
 21 22  1  0  0  0
 21 50  1  0  0  0
 22 23  1  0  0  0
 22 24  2  0  0  0
 23 25  1  0  0  0
 23 27  1  0  0  0
 23 51  1  0  0  0
 25 26  1  0  0  0
 25 52  1  0  0  0
 25 53  1  0  0  0
 26 27  1  0  0  0
 26 54  1  0  0  0
 26 55  1  0  0  0
 27 56  1  0  0  0
 27 57  1  0  0  0
 28 29  1  0  0  0
 29 30  1  0  0  0
 29 58  1  0  0  0
 29 59  1  0  0  0
 30 31  1  0  0  0
 30 60  1  0  0  0
 30 61  1  0  0  0
 31 32  1  0  0  0
 31 36  1  0  0  0
 32 33  1  0  0  0
 32 62  1  0  0  0
 32 63  1  0  0  0
 33 34  1  0  0  0
 33 64  1  0  0  0
 33 65  1  0  0  0
 34 35  1  0  0  0
 34 66  1  0  0  0
 34 67  1  0  0  0
 35 36  1  0  0  0
 35 68  1  0  0  0
 35 69  1  0  0  0
 36 70  1  0  0  0
 36 71  1  0  0  0
M  END
> <s_m_entry_id>
33037

> <s_m_entry_name>
dock_pv.438

> <s_m_Source_Path>
/home/csk/Desktop/cluster/DUD-E-result/cdk2

> <s_m_Source_File>
dock_pv.maegz

> <i_m_Source_File_Index>
438

> <chembl_id>
CHEMBL2011941

> <chembl_pref_name>
None

> <i_lp_mmshare_version>
53161

> <i_f3d_flags>
0

> <r_lp_tautomer_probability>
1

> <s_lp_Force_Field>
OPLS_2005

> <r_lp_Energy>
45.489982

> <b_lp_Chiralities_Consistent>
1

> <s_lp_Variant>
CHEMBL301_lig1094-1

> <s_i_glide_gridfile>
glide-grid_1h00

> <i_i_glide_lignum>
1498

> <i_i_glide_rotatable_bonds>
12

> <r_i_docking_score>
-7.16498867735664

> <r_i_glide_ligand_efficiency>
-0.199027463259907

> <r_i_glide_ligand_efficiency_sa>
-0.657174203431261

> <r_i_glide_ligand_efficiency_ln>
-1.56320695377558

> <r_i_glide_gscore>
-7.16498867735664

> <r_i_glide_lipo>
-2.89358745649679

> <r_i_glide_hbond>
-0.108654397614086

> <r_i_glide_metal>
0

> <r_i_glide_rewards>
-1.82870854554647

> <r_i_glide_evdw>
-48.0016555786133

> <r_i_glide_ecoul>
-3.54716110229492

> <r_i_glide_erotb>
0.598118666575616

> <r_i_glide_esite>
0

> <r_i_glide_emodel>
-67.9942427811823

> <r_i_glide_energy>
-51.5488166809082

> <r_i_glide_einternal>
12.4323492050171

> <i_i_glide_confnum>
2

> <i_i_glide_posenum>
41

> <r_i_glide_eff_state_penalty>
0

> <s_user_duplicate_titles>
CHEMBL301_lig1094

> <s_m_subgroup_title>
dock_pv

> <s_m_subgroupid>
dock_pv

> <b_m_subgroup_collapsed>
1

$$$$
CHEMBL301_lig1251
                    3D
 Schrodinger Suite 2021-1.
 57 60  0  0  1  0            999 V2000
   -1.1647   29.2717   10.4057 C   0  0  0  0  0  0
   -2.3891   29.0463   11.0332 C   0  0  0  0  0  0
   -2.6271   27.8943   11.7760 C   0  0  0  0  0  0
   -0.1674   28.3038   10.5415 C   0  0  0  0  0  0
   -0.3743   27.0862   11.2522 C   0  0  0  0  0  0
   -1.6356   26.9030   11.9012 C   0  0  0  0  0  0
   -1.9293   25.8050   12.6521 N   0  0  0  0  0  0
   -0.9911   24.8373   12.7944 C   0  0  0  0  0  0
    0.2586   24.9391   12.1791 C   0  0  0  0  0  0
    0.5997   26.0392   11.3862 C   0  0  0  0  0  0
   -0.9094   30.5210    9.6278 C   0  0  0  0  0  0
    1.9595   26.0575   10.7162 C   0  0  0  0  0  0
    2.2634   26.7834    9.7764 O   0  0  0  0  0  0
    2.8580   25.2071   11.2743 O   0  0  0  0  0  0
   -1.3533   23.6284   13.6373 C   0  0  0  0  0  0
   -0.5967   22.5334   13.4011 N   0  0  0  0  0  0
   -2.2773   23.6569   14.4526 O   0  0  0  0  0  0
   -0.6110   21.1589   13.9450 C   0  0  2  0  0  0
   -0.7105   21.1017   15.4728 C   0  0  0  0  0  0
    0.6826   20.4244   13.4693 C   0  0  0  0  0  0
    1.0466   20.5659   11.9930 C   0  0  0  0  0  0
   -0.9909   19.8467   15.8810 O   0  0  0  0  0  0
   -0.5227   22.0592   16.2330 O   0  0  0  0  0  0
   -1.0828   19.5325   17.2615 C   0  0  0  0  0  0
    1.8080   21.6709   11.5545 C   0  0  0  0  0  0
    2.0862   21.8492   10.1857 C   0  0  0  0  0  0
    1.6581   20.8862    9.2528 C   0  0  0  0  0  0
    0.9382   19.7571    9.6887 C   0  0  0  0  0  0
    0.6243   19.6029   11.0531 C   0  0  0  0  0  0
    1.9228   21.0520    7.9258 O   0  0  0  0  0  0
   -1.6072   31.7007    9.9244 C   0  0  0  0  0  0
   -1.3408   32.8802    9.2406 C   0  0  0  0  0  0
   -0.3403   32.9132    8.2743 C   0  0  0  0  0  0
    0.3730   31.7583    7.9601 C   0  0  0  0  0  0
    0.0584   30.5645    8.6066 C   0  0  0  0  0  0
    1.6538   31.8157    6.7988 Cl  0  0  0  0  0  0
   -3.1894   29.7678   10.9640 H   0  0  0  0  0  0
   -3.5825   27.7538   12.2592 H   0  0  0  0  0  0
    0.7940   28.5086   10.1092 H   0  0  0  0  0  0
    0.9859   24.1613   12.3313 H   0  0  0  0  0  0
    3.7516   25.4552   10.9760 H   0  0  0  0  0  0
   -0.0975   22.5665   12.5257 H   0  0  0  0  0  0
   -1.4684   20.6524   13.4956 H   0  0  0  0  0  0
    0.5971   19.3580   13.6902 H   0  0  0  0  0  0
    1.5451   20.7719   14.0426 H   0  0  0  0  0  0
   -1.1420   18.4519   17.3764 H   0  0  0  0  0  0
   -0.2061   19.8770   17.8121 H   0  0  0  0  0  0
   -1.9731   19.9768   17.7079 H   0  0  0  0  0  0
    2.1637   22.3940   12.2717 H   0  0  0  0  0  0
    2.6281   22.7217    9.8497 H   0  0  0  0  0  0
    0.6071   19.0146    8.9772 H   0  0  0  0  0  0
    0.0580   18.7401   11.3760 H   0  0  0  0  0  0
    2.0294   21.9800    7.6705 H   0  0  0  0  0  0
   -2.3516   31.7287   10.7069 H   0  0  0  0  0  0
   -1.8920   33.7773    9.4843 H   0  0  0  0  0  0
   -0.1203   33.8436    7.7796 H   0  0  0  0  0  0
    0.6143   29.6814    8.3316 H   0  0  0  0  0  0
  1  2  2  0  0  0
  1  4  1  0  0  0
  1 11  1  0  0  0
  2  3  1  0  0  0
  2 37  1  0  0  0
  3  6  2  0  0  0
  3 38  1  0  0  0
  4  5  2  0  0  0
  4 39  1  0  0  0
  5  6  1  0  0  0
  5 10  1  0  0  0
  6  7  1  0  0  0
  7  8  2  0  0  0
  8  9  1  0  0  0
  8 15  1  0  0  0
  9 10  2  0  0  0
  9 40  1  0  0  0
 10 12  1  0  0  0
 11 31  2  0  0  0
 11 35  1  0  0  0
 12 13  2  0  0  0
 12 14  1  0  0  0
 14 41  1  0  0  0
 15 16  1  0  0  0
 15 17  2  0  0  0
 16 18  1  0  0  0
 16 42  1  0  0  0
 18 19  1  0  0  0
 18 20  1  0  0  0
 18 43  1  0  0  0
 19 22  1  0  0  0
 19 23  2  0  0  0
 20 21  1  0  0  0
 20 44  1  0  0  0
 20 45  1  0  0  0
 21 25  2  0  0  0
 21 29  1  0  0  0
 22 24  1  0  0  0
 24 46  1  0  0  0
 24 47  1  0  0  0
 24 48  1  0  0  0
 25 26  1  0  0  0
 25 49  1  0  0  0
 26 27  2  0  0  0
 26 50  1  0  0  0
 27 28  1  0  0  0
 27 30  1  0  0  0
 28 29  2  0  0  0
 28 51  1  0  0  0
 29 52  1  0  0  0
 30 53  1  0  0  0
 31 32  1  0  0  0
 31 54  1  0  0  0
 32 33  2  0  0  0
 32 55  1  0  0  0
 33 34  1  0  0  0
 33 56  1  0  0  0
 34 35  2  0  0  0
 34 36  1  0  0  0
 35 57  1  0  0  0
M  END
> <s_m_entry_id>
33038

> <s_m_entry_name>
dock_pv.439

> <s_m_Source_Path>
/home/csk/Desktop/cluster/DUD-E-result/cdk2

> <s_m_Source_File>
dock_pv.maegz

> <i_m_Source_File_Index>
439

> <chembl_id>
CHEMBL3099755

> <chembl_pref_name>
None

> <i_lp_mmshare_version>
53161

> <i_f3d_flags>
0

> <r_lp_tautomer_probability>
0.999999999997365

> <s_lp_Force_Field>
OPLS_2005

> <r_lp_Energy>
26.758421

> <b_lp_Chiralities_Consistent>
1

> <s_lp_Variant>
CHEMBL301_lig1251-1

> <s_i_glide_gridfile>
glide-grid_1h00

> <i_i_glide_lignum>
1665

> <i_i_glide_rotatable_bonds>
11

> <r_i_docking_score>
-7.16421103151989

> <r_i_glide_ligand_efficiency>
-0.199005861986664

> <r_i_glide_ligand_efficiency_sa>
-0.657102877598615

> <r_i_glide_ligand_efficiency_ln>
-1.56303729246356

> <r_i_glide_gscore>
-7.16421103151989

> <r_i_glide_lipo>
-2.56275356194682

> <r_i_glide_hbond>
-0.304

> <r_i_glide_metal>
0

> <r_i_glide_rewards>
-0.729706169176304

> <r_i_glide_evdw>
-44.2612228393555

> <r_i_glide_ecoul>
-12.9373798370361

> <r_i_glide_erotb>
0.641709530741161

> <r_i_glide_esite>
-0.0557927136147346

> <r_i_glide_emodel>
-79.3210340997297

> <r_i_glide_energy>
-57.1986026763916

> <r_i_glide_einternal>
6.51165676116943

> <i_i_glide_confnum>
35

> <i_i_glide_posenum>
276

> <r_i_glide_eff_state_penalty>
0

> <s_user_duplicate_titles>
CHEMBL301_lig1251

> <s_m_subgroup_title>
dock_pv

> <s_m_subgroupid>
dock_pv

> <b_m_subgroup_collapsed>
1

$$$$
CHEMBL301_lig802
                    3D
 Schrodinger Suite 2021-1.
 54 56  0  0  1  0            999 V2000
    4.5768   26.6981    8.1145 C   0  0  0  0  0  0
    5.1277   26.3063    6.8914 C   0  0  0  0  0  0
    4.9344   27.1361    5.7642 C   0  0  0  0  0  0
    4.2147   28.3286    5.9094 C   0  0  0  0  0  0
    3.6580   28.6991    7.1361 C   0  0  0  0  0  0
    3.8741   27.8903    8.2480 C   0  0  0  0  0  0
    2.8577   29.8521    7.1758 N   0  0  0  0  0  0
    1.7379   30.2213    7.9354 C   0  0  0  0  0  0
    1.3147   29.4473    8.9760 N   0  0  0  0  0  0
    0.1680   29.8090    9.6194 C   0  0  0  0  0  0
   -0.5512   30.9458    9.2113 C   0  0  0  0  0  0
   -0.0103   31.7061    8.1760 C   0  0  0  0  0  0
    1.1201   31.3515    7.5139 N   0  0  0  0  0  0
   -0.2444   29.0038   10.8282 C   0  0  0  0  0  0
   -0.9989   29.4539   11.9075 C   0  0  0  0  0  0
   -1.1421   28.5647   12.8573 N   0  0  0  0  0  0
   -0.5371   27.4971   12.4158 C   0  0  0  0  0  0
    0.0398   27.6781   11.1623 N   0  0  0  0  0  0
   -0.5235   26.2282   13.2452 C   0  0  0  0  0  0
    0.7824   26.6757   10.3662 C   0  0  0  0  0  0
   -0.0335   25.3893   10.1252 C   0  0  0  0  0  0
    2.1673   26.3929   10.9762 C   0  0  0  0  0  0
    5.8616   24.9829    6.8458 C   0  0  0  0  0  0
    7.1541   24.9528    6.4239 N   0  0  0  0  0  0
    5.2611   23.9693    7.2127 O   0  0  0  0  0  0
    8.0207   26.1267    6.3002 C   0  0  0  0  0  0
   -1.7051   31.3353    9.8010 F   0  0  0  0  0  0
    7.8487   23.6923    6.1516 C   0  0  0  0  0  0
    5.4096   26.7607    4.3630 C   0  0  0  0  0  0
    4.6948   26.0641    8.9759 H   0  0  0  0  0  0
    4.0522   28.9574    5.0459 H   0  0  0  0  0  0
    3.4863   28.1650    9.2148 H   0  0  0  0  0  0
    3.1140   30.5336    6.4727 H   0  0  0  0  0  0
   -0.4994   32.6098    7.8436 H   0  0  0  0  0  0
   -1.4302   30.4370   12.0262 H   0  0  0  0  0  0
   -0.8947   26.4041   14.2555 H   0  0  0  0  0  0
    0.4745   25.8183   13.3647 H   0  0  0  0  0  0
   -1.1658   25.4563   12.8239 H   0  0  0  0  0  0
    0.9464   27.0902    9.3768 H   0  0  0  0  0  0
    0.4568   24.7672    9.3760 H   0  0  0  0  0  0
   -0.1210   24.7726   11.0166 H   0  0  0  0  0  0
   -1.0377   25.6108    9.7608 H   0  0  0  0  0  0
    2.7721   25.7905   10.2992 H   0  0  0  0  0  0
    2.7167   27.3139   11.1738 H   0  0  0  0  0  0
    2.1071   25.8420   11.9108 H   0  0  0  0  0  0
    7.5185   27.0509    6.5759 H   0  0  0  0  0  0
    8.8915   26.0262    6.9494 H   0  0  0  0  0  0
    8.3786   26.2324    5.2751 H   0  0  0  0  0  0
    7.1900   22.8233    6.1989 H   0  0  0  0  0  0
    8.2899   23.7140    5.1543 H   0  0  0  0  0  0
    8.6531   23.5414    6.8732 H   0  0  0  0  0  0
    5.4074   25.6819    4.2074 H   0  0  0  0  0  0
    4.7417   27.1673    3.6027 H   0  0  0  0  0  0
    6.4128   27.1425    4.1774 H   0  0  0  0  0  0
  1  2  2  0  0  0
  1  6  1  0  0  0
  1 30  1  0  0  0
  2  3  1  0  0  0
  2 23  1  0  0  0
  3  4  2  0  0  0
  3 29  1  0  0  0
  4  5  1  0  0  0
  4 31  1  0  0  0
  5  7  1  0  0  0
  5  6  2  0  0  0
  6 32  1  0  0  0
  7  8  1  0  0  0
  7 33  1  0  0  0
  8  9  2  0  0  0
  8 13  1  0  0  0
  9 10  1  0  0  0
 10 14  1  0  0  0
 10 11  2  0  0  0
 11 12  1  0  0  0
 11 27  1  0  0  0
 12 13  2  0  0  0
 12 34  1  0  0  0
 14 18  1  0  0  0
 14 15  2  0  0  0
 15 16  1  0  0  0
 15 35  1  0  0  0
 16 17  2  0  0  0
 17 18  1  0  0  0
 17 19  1  0  0  0
 18 20  1  0  0  0
 19 36  1  0  0  0
 19 37  1  0  0  0
 19 38  1  0  0  0
 20 21  1  0  0  0
 20 22  1  0  0  0
 20 39  1  0  0  0
 21 40  1  0  0  0
 21 41  1  0  0  0
 21 42  1  0  0  0
 22 43  1  0  0  0
 22 44  1  0  0  0
 22 45  1  0  0  0
 23 24  1  0  0  0
 23 25  2  0  0  0
 24 26  1  0  0  0
 24 28  1  0  0  0
 26 46  1  0  0  0
 26 47  1  0  0  0
 26 48  1  0  0  0
 28 49  1  0  0  0
 28 50  1  0  0  0
 28 51  1  0  0  0
 29 52  1  0  0  0
 29 53  1  0  0  0
 29 54  1  0  0  0
M  END
> <s_m_entry_id>
33039

> <s_m_entry_name>
dock_pv.440

> <s_m_Source_Path>
/home/csk/Desktop/cluster/DUD-E-result/cdk2

> <s_m_Source_File>
dock_pv.maegz

> <i_m_Source_File_Index>
440

> <chembl_id>
CHEMBL508739

> <chembl_pref_name>
None

> <i_lp_mmshare_version>
53161

> <i_f3d_flags>
0

> <r_lp_tautomer_probability>
0.999999987636

> <s_lp_Force_Field>
OPLS_2005

> <r_lp_Energy>
34.703

> <b_lp_Chiralities_Consistent>
1

> <s_lp_Variant>
CHEMBL301_lig802-1

> <s_i_glide_gridfile>
glide-grid_1h00

> <i_i_glide_lignum>
1141

> <i_i_glide_rotatable_bonds>
6

> <r_i_docking_score>
-7.16395679096395

> <r_i_glide_ligand_efficiency>
-0.24703299279186

> <r_i_glide_ligand_efficiency_sa>
-0.758963619402078

> <r_i_glide_ligand_efficiency_ln>
-1.64036444286078

> <r_i_glide_gscore>
-7.16395679096395

> <r_i_glide_lipo>
-2.4472790844427

> <r_i_glide_hbond>
-0.227539841034984

> <r_i_glide_metal>
0

> <r_i_glide_rewards>
-2.30580638888698

> <r_i_glide_evdw>
-41.2998847961426

> <r_i_glide_ecoul>
-4.10823249816895

> <r_i_glide_erotb>
0.49789763793318

> <r_i_glide_esite>
0

> <r_i_glide_emodel>
-62.5790984373708

> <r_i_glide_energy>
-45.4081172943115

> <r_i_glide_einternal>
4.5966854095459

> <i_i_glide_confnum>
36

> <i_i_glide_posenum>
63

> <r_i_glide_eff_state_penalty>
0

> <s_user_duplicate_titles>
CHEMBL301_lig802,453239

> <s_m_subgroup_title>
dock_pv

> <s_m_subgroupid>
dock_pv

> <b_m_subgroup_collapsed>
1

$$$$
CHEMBL301_lig1441
                    3D
 Schrodinger Suite 2021-1.
 47 49  0  0  1  0            999 V2000
    1.8927   24.2051   10.6485 C   0  0  0  0  0  0
    0.8125   23.6025   11.4382 N   0  0  0  0  0  0
    0.8907   22.1416   11.5153 C   0  0  0  0  0  0
   -0.2071   24.2947   12.0182 C   0  0  0  0  0  0
   -0.9706   23.7834   12.8401 O   0  0  0  0  0  0
   -0.4552   25.7226   11.5812 C   0  0  0  0  0  0
   -0.5380   26.0133   10.2133 C   0  0  0  0  0  0
   -0.7422   27.3157    9.7758 C   0  0  0  0  0  0
   -0.9087   28.3633   10.6796 C   0  0  0  0  0  0
   -0.8433   28.0768   12.0483 C   0  0  0  0  0  0
   -0.6056   26.7765   12.5057 C   0  0  0  0  0  0
   -0.4909   26.5330   14.2176 Cl  0  0  0  0  0  0
   -1.2000   29.7432   10.1862 C   0  0  0  0  0  0
   -2.4037   30.3344   10.5755 C   0  0  0  0  0  0
   -2.7155   31.6247   10.1604 C   0  0  0  0  0  0
   -1.9068   32.3452    9.3528 N   0  0  0  0  0  0
   -0.7427   31.7793    8.9427 C   0  0  0  0  0  0
    0.0805   32.6784    8.0257 C   0  0  0  0  0  0
   -0.3418   30.4835    9.3397 C   0  0  0  0  0  0
    0.9547   29.9441    8.9174 C   0  0  0  0  0  0
    2.0074   29.4514    8.5401 C   0  0  0  0  0  0
    3.1654   28.7570    8.0017 C   0  0  0  0  0  0
    3.6357   29.0472    6.7193 C   0  0  0  0  0  0
    4.6632   28.2754    6.1712 C   0  0  0  0  0  0
    5.1969   27.2382    6.9338 C   0  0  0  0  0  0
    6.2270   26.4562    6.4333 N   0  0  0  0  0  0
    4.7536   26.9424    8.1761 N   0  0  0  0  0  0
    3.7581   27.7029    8.7010 C   0  0  0  0  0  0
    1.9504   25.2901   10.7561 H   0  0  0  0  0  0
    2.8576   23.8111   10.9649 H   0  0  0  0  0  0
    1.7657   23.9745    9.5871 H   0  0  0  0  0  0
    0.0800   21.6981   12.0955 H   0  0  0  0  0  0
    0.8507   21.7096   10.5145 H   0  0  0  0  0  0
    1.8282   21.8346   11.9770 H   0  0  0  0  0  0
   -0.4397   25.2309    9.4735 H   0  0  0  0  0  0
   -0.8004   27.5068    8.7148 H   0  0  0  0  0  0
   -0.9760   28.8728   12.7670 H   0  0  0  0  0  0
   -3.0882   29.8037   11.2211 H   0  0  0  0  0  0
   -3.6292   32.1029   10.4829 H   0  0  0  0  0  0
    0.5560   32.1113    7.2275 H   0  0  0  0  0  0
   -0.5274   33.4520    7.5625 H   0  0  0  0  0  0
    0.8583   33.1962    8.5778 H   0  0  0  0  0  0
    3.2039   29.8504    6.1362 H   0  0  0  0  0  0
    5.0401   28.4898    5.1824 H   0  0  0  0  0  0
    6.7447   26.8093    5.6380 H   0  0  0  0  0  0
    6.6330   25.7687    7.0484 H   0  0  0  0  0  0
    3.4252   27.4248    9.6929 H   0  0  0  0  0  0
  1  2  1  0  0  0
  1 29  1  0  0  0
  1 30  1  0  0  0
  1 31  1  0  0  0
  2  3  1  0  0  0
  2  4  1  0  0  0
  3 32  1  0  0  0
  3 33  1  0  0  0
  3 34  1  0  0  0
  4  5  2  0  0  0
  4  6  1  0  0  0
  6  7  2  0  0  0
  6 11  1  0  0  0
  7  8  1  0  0  0
  7 35  1  0  0  0
  8  9  2  0  0  0
  8 36  1  0  0  0
  9 10  1  0  0  0
  9 13  1  0  0  0
 10 11  2  0  0  0
 10 37  1  0  0  0
 11 12  1  0  0  0
 13 14  2  0  0  0
 13 19  1  0  0  0
 14 15  1  0  0  0
 14 38  1  0  0  0
 15 16  2  0  0  0
 15 39  1  0  0  0
 16 17  1  0  0  0
 17 18  1  0  0  0
 17 19  2  0  0  0
 18 40  1  0  0  0
 18 41  1  0  0  0
 18 42  1  0  0  0
 19 20  1  0  0  0
 20 21  3  0  0  0
 21 22  1  0  0  0
 22 23  2  0  0  0
 22 28  1  0  0  0
 23 24  1  0  0  0
 23 43  1  0  0  0
 24 25  2  0  0  0
 24 44  1  0  0  0
 25 26  1  0  0  0
 25 27  1  0  0  0
 26 45  1  0  0  0
 26 46  1  0  0  0
 27 28  2  0  0  0
 28 47  1  0  0  0
M  END
> <s_m_entry_id>
33040

> <s_m_entry_name>
dock_pv.441

> <s_m_Source_Path>
/home/csk/Desktop/cluster/DUD-E-result/cdk2

> <s_m_Source_File>
dock_pv.maegz

> <i_m_Source_File_Index>
441

> <chembl_id>
CHEMBL3701063

> <chembl_pref_name>
None

> <i_lp_mmshare_version>
53161

> <i_f3d_flags>
0

> <r_lp_tautomer_probability>
1

> <s_lp_Force_Field>
OPLS_2005

> <r_lp_Energy>
29.314254

> <b_lp_Chiralities_Consistent>
1

> <s_lp_Variant>
CHEMBL301_lig1441-1

> <s_i_glide_gridfile>
glide-grid_1h00

> <i_i_glide_lignum>
1954

> <i_i_glide_rotatable_bonds>
5

> <r_i_docking_score>
-7.16118735286043

> <r_i_glide_ligand_efficiency>
-0.255756691173587

> <r_i_glide_ligand_efficiency_sa>
-0.776627947038495

> <r_i_glide_ligand_efficiency_ln>
-1.6530123026373

> <r_i_glide_gscore>
-7.16118735286043

> <r_i_glide_lipo>
-3.64024026799503

> <r_i_glide_hbond>
-0.0692772571115432

> <r_i_glide_metal>
0

> <r_i_glide_rewards>
-1.1670341663721

> <r_i_glide_evdw>
-44.6746292114258

> <r_i_glide_ecoul>
-3.74458503723145

> <r_i_glide_erotb>
0.510783554774244

> <r_i_glide_esite>
0

> <r_i_glide_emodel>
-66.7434446778629

> <r_i_glide_energy>
-48.4192142486572

> <r_i_glide_einternal>
2.58220148086548

> <i_i_glide_confnum>
1

> <i_i_glide_posenum>
342

> <r_i_glide_eff_state_penalty>
0

> <s_user_duplicate_titles>
CHEMBL301_lig1441

> <s_m_subgroup_title>
dock_pv

> <s_m_subgroupid>
dock_pv

> <b_m_subgroup_collapsed>
1

$$$$
CHEMBL301_lig1167
                    3D
 Schrodinger Suite 2021-1.
 46 49  0  0  1  0            999 V2000
    0.3298   28.8867    9.8472 N   0  0  0  0  0  0
    1.3202   27.9598    9.9085 C   0  0  0  0  0  0
    2.4603   28.0134    9.1139 C   0  0  0  0  0  0
    2.6044   29.0521    8.1923 C   0  0  0  0  0  0
    0.4907   29.9037    9.0026 C   0  0  0  0  0  0
    1.6200   30.0126    8.1761 N   0  0  0  0  0  0
    1.5479   31.1147    7.3760 N   0  0  0  0  0  0
    0.4580   31.7428    7.7760 C   0  0  0  0  0  0
   -0.2968   31.0343    8.7074 C   0  0  0  0  0  0
    1.1924   26.8539   10.7576 N   0  0  0  0  0  0
   -0.0616   26.4989   11.4255 C   0  0  2  0  0  0
   -0.3970   27.5105   12.5533 C   0  0  0  0  0  0
   -1.6037   27.0520   13.3863 C   0  0  0  0  0  0
   -1.4020   25.6461   13.9802 C   0  0  2  0  0  0
   -1.0959   24.6349   12.8545 C   0  0  0  0  0  0
    0.1067   25.0691   11.9886 C   0  0  0  0  0  0
   -2.5240   25.2503   14.8093 N   0  0  0  0  0  0
    3.6095   29.0660    7.2139 N   0  0  0  0  0  0
    4.4611   28.0528    6.7656 C   0  0  0  0  0  0
    5.2971   27.3343    7.6245 C   0  0  0  0  0  0
    6.1095   26.3179    7.1170 C   0  0  0  0  0  0
    6.0843   26.0121    5.7536 C   0  0  0  0  0  0
    5.2580   26.7354    4.8949 C   0  0  0  0  0  0
    4.4579   27.7599    5.3996 C   0  0  0  0  0  0
    6.8630   25.0232    5.2559 F   0  0  0  0  0  0
    7.1627   25.4586    8.1775 Cl  0  0  0  0  0  0
    3.1856   27.2186    9.1767 H   0  0  0  0  0  0
    0.1864   32.7032    7.3585 H   0  0  0  0  0  0
   -1.2400   31.3276    9.1403 H   0  0  0  0  0  0
    1.7957   26.0868   10.5053 H   0  0  0  0  0  0
   -0.8558   26.4963   10.6754 H   0  0  0  0  0  0
    0.4580   27.6466   13.2140 H   0  0  0  0  0  0
   -0.6209   28.4980   12.1519 H   0  0  0  0  0  0
   -2.4949   27.0682   12.7555 H   0  0  0  0  0  0
   -1.7818   27.7766   14.1822 H   0  0  0  0  0  0
   -0.5178   25.6942   14.6182 H   0  0  0  0  0  0
   -1.9661   24.5349   12.2048 H   0  0  0  0  0  0
   -0.9079   23.6465   13.2781 H   0  0  0  0  0  0
    0.2259   24.3609   11.1667 H   0  0  0  0  0  0
    1.0238   25.0032   12.5760 H   0  0  0  0  0  0
   -2.7798   26.0471   15.3763 H   0  0  0  0  0  0
   -3.3146   25.0947   14.1993 H   0  0  0  0  0  0
    3.6734   29.9405    6.7013 H   0  0  0  0  0  0
    5.3307   27.5661    8.6799 H   0  0  0  0  0  0
    5.2427   26.5011    3.8404 H   0  0  0  0  0  0
    3.8212   28.3137    4.7260 H   0  0  0  0  0  0
  1  5  1  0  0  0
  1  2  2  0  0  0
  2  3  1  0  0  0
  2 10  1  0  0  0
  3  4  2  0  0  0
  3 27  1  0  0  0
  4  6  1  0  0  0
  4 18  1  0  0  0
  5  6  1  0  0  0
  5  9  2  0  0  0
  6  7  1  0  0  0
  7  8  2  0  0  0
  8  9  1  0  0  0
  8 28  1  0  0  0
  9 29  1  0  0  0
 10 11  1  0  0  0
 10 30  1  0  0  0
 11 12  1  0  0  0
 11 16  1  0  0  0
 11 31  1  0  0  0
 12 13  1  0  0  0
 12 32  1  0  0  0
 12 33  1  0  0  0
 13 14  1  0  0  0
 13 34  1  0  0  0
 13 35  1  0  0  0
 14 15  1  0  0  0
 14 17  1  0  0  0
 14 36  1  0  0  0
 15 16  1  0  0  0
 15 37  1  0  0  0
 15 38  1  0  0  0
 16 39  1  0  0  0
 16 40  1  0  0  0
 17 41  1  0  0  0
 17 42  1  0  0  0
 18 19  1  0  0  0
 18 43  1  0  0  0
 19 20  2  0  0  0
 19 24  1  0  0  0
 20 21  1  0  0  0
 20 44  1  0  0  0
 21 22  2  0  0  0
 21 26  1  0  0  0
 22 23  1  0  0  0
 22 25  1  0  0  0
 23 24  2  0  0  0
 23 45  1  0  0  0
 24 46  1  0  0  0
M  END
> <s_m_entry_id>
33041

> <s_m_entry_name>
dock_pv.442

> <s_m_Source_Path>
/home/csk/Desktop/cluster/DUD-E-result/cdk2

> <s_m_Source_File>
dock_pv.maegz

> <i_m_Source_File_Index>
442

> <chembl_id>
CHEMBL2163999

> <chembl_pref_name>
None

> <i_lp_mmshare_version>
53161

> <i_f3d_flags>
0

> <r_lp_tautomer_probability>
1

> <s_lp_Force_Field>
OPLS_2005

> <r_lp_Energy>
25.847973

> <b_lp_Chiralities_Consistent>
1

> <s_lp_Variant>
CHEMBL301_lig1167-1

> <s_i_glide_gridfile>
glide-grid_1h00

> <i_i_glide_lignum>
1580

> <i_i_glide_rotatable_bonds>
4

> <r_i_docking_score>
-7.1598772830771

> <r_i_glide_ligand_efficiency>
-0.275379895502965

> <r_i_glide_ligand_efficiency_sa>
-0.81581185685997

> <r_i_glide_ligand_efficiency_ln>
-1.68147368645708

> <r_i_glide_gscore>
-7.1598772830771

> <r_i_glide_lipo>
-2.47733873999638

> <r_i_glide_hbond>
-0.32

> <r_i_glide_metal>
0

> <r_i_glide_rewards>
-2.18888416391555

> <r_i_glide_evdw>
-40.5173606872559

> <r_i_glide_ecoul>
-4.55039405822754

> <r_i_glide_erotb>
0.550588639591302

> <r_i_glide_esite>
-0.0158158756595545

> <r_i_glide_emodel>
-60.6437552270872

> <r_i_glide_energy>
-45.0677547454834

> <r_i_glide_einternal>
7.11037492752075

> <i_i_glide_confnum>
8

> <i_i_glide_posenum>
146

> <r_i_glide_eff_state_penalty>
0

> <s_user_duplicate_titles>
CHEMBL301_lig1167

> <s_m_subgroup_title>
dock_pv

> <s_m_subgroupid>
dock_pv

> <b_m_subgroup_collapsed>
1

$$$$
CHEMBL301_lig290
                    3D
 Schrodinger Suite 2021-1.
 44 46  0  0  1  0            999 V2000
    7.1940   25.1280    3.5106 S   0  0  0  0  0  0
   -1.9395   26.7317   12.0117 S   0  0  0  0  0  0
    2.4584   28.4069    9.1871 C   0  0  0  0  0  0
    2.1706   30.1237    7.7770 N   0  0  0  0  0  0
    3.5665   28.4348    8.3729 C   0  0  0  0  0  0
    1.6103   29.4516    8.7628 C   0  0  0  0  0  0
    3.3483   29.5235    7.5749 N   0  0  0  0  0  0
   -2.2170   28.4675   11.7752 N   0  0  0  0  0  0
    6.4330   25.8475    4.9561 C   0  0  0  0  0  0
    0.2528   29.7957    9.3014 C   0  0  0  0  0  0
    4.6846   27.6434    8.3164 N   0  0  0  0  0  0
    7.2432   26.1704    2.4817 O   0  0  0  0  0  0
    8.4007   24.4204    3.9479 O   0  0  0  0  0  0
   -1.6947   26.1231   10.7013 O   0  0  0  0  0  0
   -3.0112   26.2519   12.8897 O   0  0  0  0  0  0
    6.0579   23.9248    2.9759 N   0  0  0  0  0  0
   -0.3659   28.9407   10.2226 C   0  0  0  0  0  0
   -1.5974   29.2652   10.8009 C   0  0  0  0  0  0
    5.2830   26.6193    4.7883 C   0  0  0  0  0  0
    6.9807   25.6595    6.2278 C   0  0  0  0  0  0
    5.2383   27.0515    7.1693 C   0  0  0  0  0  0
   -0.3485   26.7045   12.9925 C   0  0  0  0  0  0
    6.3736   26.2524    7.3337 C   0  0  0  0  0  0
    4.6886   27.2203    5.8913 C   0  0  0  0  0  0
   -0.4121   30.9679    8.9174 C   0  0  0  0  0  0
   -1.6440   31.2994    9.4786 C   0  0  0  0  0  0
   -2.2242   30.4547   10.4252 C   0  0  0  0  0  0
    2.2774   27.6956    9.9771 H   0  0  0  0  0  0
    4.0144   29.8840    6.9035 H   0  0  0  0  0  0
   -2.9503   28.8807   12.3389 H   0  0  0  0  0  0
    5.0005   27.1904    9.1673 H   0  0  0  0  0  0
    5.4153   24.2526    2.2373 H   0  0  0  0  0  0
    6.5028   23.0324    2.7475 H   0  0  0  0  0  0
    0.1241   28.0249   10.5005 H   0  0  0  0  0  0
    4.8554   26.7558    3.8034 H   0  0  0  0  0  0
    7.8737   25.0656    6.3599 H   0  0  0  0  0  0
   -0.2102   25.7099   13.4082 H   0  0  0  0  0  0
   -0.4222   27.4484   13.7760 H   0  0  0  0  0  0
    0.4646   26.9461   12.3212 H   0  0  0  0  0  0
    6.8011   26.1080    8.3163 H   0  0  0  0  0  0
    3.7961   27.8079    5.7353 H   0  0  0  0  0  0
    0.0347   31.6416    8.2013 H   0  0  0  0  0  0
   -2.1425   32.2150    9.1911 H   0  0  0  0  0  0
   -3.1649   30.7369   10.8755 H   0  0  0  0  0  0
  1  9  1  0  0  0
  1 12  2  0  0  0
  1 13  2  0  0  0
  1 16  1  0  0  0
  2  8  1  0  0  0
  2 14  2  0  0  0
  2 15  2  0  0  0
  2 22  1  0  0  0
  3  5  2  0  0  0
  3  6  1  0  0  0
  3 28  1  0  0  0
  4  7  1  0  0  0
  4  6  2  0  0  0
  5 11  1  0  0  0
  5  7  1  0  0  0
  6 10  1  0  0  0
  7 29  1  0  0  0
  8 18  1  0  0  0
  8 30  1  0  0  0
  9 19  2  0  0  0
  9 20  1  0  0  0
 10 17  2  0  0  0
 10 25  1  0  0  0
 11 21  1  0  0  0
 11 31  1  0  0  0
 16 32  1  0  0  0
 16 33  1  0  0  0
 17 18  1  0  0  0
 17 34  1  0  0  0
 18 27  2  0  0  0
 19 24  1  0  0  0
 19 35  1  0  0  0
 20 23  2  0  0  0
 20 36  1  0  0  0
 21 23  1  0  0  0
 21 24  2  0  0  0
 22 37  1  0  0  0
 22 38  1  0  0  0
 22 39  1  0  0  0
 23 40  1  0  0  0
 24 41  1  0  0  0
 25 26  2  0  0  0
 25 42  1  0  0  0
 26 27  1  0  0  0
 26 43  1  0  0  0
 27 44  1  0  0  0
M  END
> <s_m_entry_id>
33042

> <s_m_entry_name>
dock_pv.443

> <s_m_Source_Path>
/home/csk/Desktop/cluster/DUD-E-result/cdk2

> <s_m_Source_File>
dock_pv.maegz

> <i_m_Source_File_Index>
443

> <chembl_id>
CHEMBL421578

> <chembl_pref_name>
None

> <i_lp_mmshare_version>
53161

> <i_f3d_flags>
0

> <r_lp_tautomer_probability>
0.157399999843308

> <s_lp_Force_Field>
OPLS_2005

> <r_lp_Energy>
16.126985

> <b_lp_Chiralities_Consistent>
1

> <s_lp_Variant>
CHEMBL301_lig290-2

> <s_i_glide_gridfile>
glide-grid_1h00

> <i_i_glide_lignum>
463

> <i_i_glide_rotatable_bonds>
6

> <r_i_docking_score>
-7.15832754947109

> <r_i_glide_ligand_efficiency>
-0.265123242573003

> <r_i_glide_ligand_efficiency_sa>
-0.795369726845207

> <r_i_glide_ligand_efficiency_ln>
-1.6663406392639

> <r_i_glide_gscore>
-7.15832754947109

> <r_i_glide_lipo>
-2.43116666986837

> <r_i_glide_hbond>
-0.578406105666531

> <r_i_glide_metal>
0

> <r_i_glide_rewards>
-1.42415989186123

> <r_i_glide_evdw>
-40.9096450805664

> <r_i_glide_ecoul>
-6.66998958587646

> <r_i_glide_erotb>
0.473937907479052

> <r_i_glide_esite>
-0.152552097644226

> <r_i_glide_emodel>
-69.0499579836256

> <r_i_glide_energy>
-47.5796346664429

> <r_i_glide_einternal>
4.04381418228149

> <i_i_glide_confnum>
5

> <i_i_glide_posenum>
332

> <r_i_glide_eff_state_penalty>
0

> <s_user_duplicate_titles>
CHEMBL301_lig290,166086

> <s_m_subgroup_title>
dock_pv

> <s_m_subgroupid>
dock_pv

> <b_m_subgroup_collapsed>
1

$$$$
CHEMBL301_lig866
                    3D
 Schrodinger Suite 2021-1.
 63 67  0  0  1  0            999 V2000
   -0.8527   25.6138   13.5620 C   0  0  0  0  0  0
   -0.3782   25.7087   14.6915 O   0  0  0  0  0  0
   -2.0309   25.0419   13.3225 N   0  0  0  0  0  0
    4.4580   28.0841    5.7564 C   0  0  0  0  0  0
    5.3241   27.0404    5.4371 C   0  0  0  0  0  0
    5.9975   26.3261    6.4429 C   0  0  0  0  0  0
    5.7188   26.6520    7.7759 C   0  0  0  0  0  0
    4.8577   27.6950    8.1003 C   0  0  0  0  0  0
    4.2206   28.4105    7.0886 C   0  0  0  0  0  0
    3.3264   29.4519    7.3692 N   0  0  0  0  0  0
    2.2117   29.4542    8.2116 C   0  0  0  0  0  0
    2.0645   28.4353    9.0925 N   0  0  0  0  0  0
    0.1470   30.3568    8.7197 C   0  0  0  0  0  0
    1.2958   30.4330    7.9970 N   0  0  0  0  0  0
   -0.1155   29.3270    9.6314 C   0  0  0  0  0  0
    0.8984   28.3729    9.7762 C   0  0  0  0  0  0
   -1.3986   28.3855   11.7259 C   0  0  0  0  0  0
   -1.4473   29.1612   10.3560 C   0  0  0  0  0  0
   -0.3886   27.2214   11.6327 C   0  0  0  0  0  0
    0.6466   27.2490   10.7074 C   0  0  0  0  0  0
    1.3259   26.0684   10.8808 N   0  0  0  0  0  0
    0.8446   25.3402   11.8883 N   0  0  0  0  0  0
   -0.1442   26.0452   12.3939 C   0  0  0  0  0  0
    2.4548   25.5588   10.1222 C   0  0  0  0  0  0
    6.9042   25.2996    6.1573 N   0  0  0  0  0  0
    7.1743   24.8326    4.7816 C   0  0  0  0  0  0
    8.3119   25.6340    4.0970 C   0  0  0  0  0  0
    9.5555   25.4837    4.8586 N   0  0  0  0  0  0
    9.3295   25.9871    6.2149 C   0  0  0  0  0  0
    8.1829   25.1981    6.8963 C   0  0  0  0  0  0
   10.6353   26.2313    4.2184 C   0  0  0  0  0  0
   -2.8154   27.8211   11.9700 C   0  0  0  0  0  0
   -0.9154   29.3638   12.8086 C   0  0  0  0  0  0
   -2.4271   25.0515   12.3934 H   0  0  0  0  0  0
   -2.5656   24.6782   14.0942 H   0  0  0  0  0  0
    3.9700   28.6332    4.9651 H   0  0  0  0  0  0
    5.4953   26.8290    4.3935 H   0  0  0  0  0  0
    6.1733   26.0985    8.5808 H   0  0  0  0  0  0
    4.6847   27.9358    9.1388 H   0  0  0  0  0  0
    3.4278   30.2670    6.7766 H   0  0  0  0  0  0
   -0.5865   31.1265    8.5284 H   0  0  0  0  0  0
   -1.9202   30.1359   10.4922 H   0  0  0  0  0  0
   -2.0911   28.6523    9.6513 H   0  0  0  0  0  0
    3.2580   26.2875   10.1749 H   0  0  0  0  0  0
    2.8099   24.6114   10.5282 H   0  0  0  0  0  0
    2.1603   25.4211    9.0813 H   0  0  0  0  0  0
    7.4623   23.7809    4.8251 H   0  0  0  0  0  0
    6.2693   24.8469    4.1737 H   0  0  0  0  0  0
    8.4588   25.2586    3.0832 H   0  0  0  0  0  0
    8.0354   26.6861    4.0071 H   0  0  0  0  0  0
    9.0961   27.0521    6.1988 H   0  0  0  0  0  0
   10.2442   25.8730    6.7993 H   0  0  0  0  0  0
    8.0882   25.5416    7.9242 H   0  0  0  0  0  0
    8.4652   24.1465    6.9681 H   0  0  0  0  0  0
   11.5652   26.1270    4.7806 H   0  0  0  0  0  0
   10.8222   25.8568    3.2109 H   0  0  0  0  0  0
   10.4046   27.2958    4.1458 H   0  0  0  0  0  0
   -3.5894   28.5651   11.7762 H   0  0  0  0  0  0
   -3.0261   26.9556   11.3476 H   0  0  0  0  0  0
   -2.9391   27.4528   12.9848 H   0  0  0  0  0  0
   -1.5419   30.2517   12.8726 H   0  0  0  0  0  0
   -0.9428   28.8762   13.7759 H   0  0  0  0  0  0
    0.1097   29.6930   12.6319 H   0  0  0  0  0  0
  1  3  1  0  0  0
  1  2  2  0  0  0
  1 23  1  0  0  0
  3 34  1  0  0  0
  3 35  1  0  0  0
  4  9  1  0  0  0
  4  5  2  0  0  0
  4 36  1  0  0  0
  5  6  1  0  0  0
  5 37  1  0  0  0
  6  7  2  0  0  0
  6 25  1  0  0  0
  7  8  1  0  0  0
  7 38  1  0  0  0
  8  9  2  0  0  0
  8 39  1  0  0  0
  9 10  1  0  0  0
 10 11  1  0  0  0
 10 40  1  0  0  0
 11 12  2  0  0  0
 11 14  1  0  0  0
 12 16  1  0  0  0
 13 15  1  0  0  0
 13 14  2  0  0  0
 13 41  1  0  0  0
 15 18  1  0  0  0
 15 16  2  0  0  0
 16 20  1  0  0  0
 17 19  1  0  0  0
 17 18  1  0  0  0
 17 32  1  0  0  0
 17 33  1  0  0  0
 18 42  1  0  0  0
 18 43  1  0  0  0
 19 20  2  0  0  0
 19 23  1  0  0  0
 20 21  1  0  0  0
 21 22  1  0  0  0
 21 24  1  0  0  0
 22 23  2  0  0  0
 24 44  1  0  0  0
 24 45  1  0  0  0
 24 46  1  0  0  0
 25 26  1  0  0  0
 25 30  1  0  0  0
 26 27  1  0  0  0
 26 47  1  0  0  0
 26 48  1  0  0  0
 27 28  1  0  0  0
 27 49  1  0  0  0
 27 50  1  0  0  0
 28 29  1  0  0  0
 28 31  1  0  0  0
 29 30  1  0  0  0
 29 51  1  0  0  0
 29 52  1  0  0  0
 30 53  1  0  0  0
 30 54  1  0  0  0
 31 55  1  0  0  0
 31 56  1  0  0  0
 31 57  1  0  0  0
 32 58  1  0  0  0
 32 59  1  0  0  0
 32 60  1  0  0  0
 33 61  1  0  0  0
 33 62  1  0  0  0
 33 63  1  0  0  0
M  END
> <s_m_entry_id>
33043

> <s_m_entry_name>
dock_pv.444

> <s_m_Source_Path>
/home/csk/Desktop/cluster/DUD-E-result/cdk2

> <s_m_Source_File>
dock_pv.maegz

> <i_m_Source_File_Index>
444

> <chembl_id>
CHEMBL563641

> <chembl_pref_name>
None

> <i_lp_mmshare_version>
53161

> <i_f3d_flags>
0

> <r_lp_tautomer_probability>
0.999999987636

> <s_lp_Force_Field>
OPLS_2005

> <r_lp_Energy>
39.783791

> <b_lp_Chiralities_Consistent>
1

> <s_lp_Variant>
CHEMBL301_lig866-1

> <s_i_glide_gridfile>
glide-grid_1h00

> <i_i_glide_lignum>
1225

> <i_i_glide_rotatable_bonds>
4

> <r_i_docking_score>
-7.15488817022607

> <r_i_glide_ligand_efficiency>
-0.216814793037154

> <r_i_glide_ligand_efficiency_sa>
-0.695440891107072

> <r_i_glide_ligand_efficiency_ln>
-1.59121008302999

> <r_i_glide_gscore>
-7.15488817022607

> <r_i_glide_lipo>
-2.26995709959772

> <r_i_glide_hbond>
-0.296955105741515

> <r_i_glide_metal>
0

> <r_i_glide_rewards>
-1.71632111028647

> <r_i_glide_evdw>
-47.9968681335449

> <r_i_glide_ecoul>
-5.15311336517334

> <r_i_glide_erotb>
0.301155556852886

> <r_i_glide_esite>
0

> <r_i_glide_emodel>
-70.0054294629063

> <r_i_glide_energy>
-53.1499814987183

> <r_i_glide_einternal>
6.56372022628784

> <i_i_glide_confnum>
13

> <i_i_glide_posenum>
350

> <r_i_glide_eff_state_penalty>
0

> <s_user_duplicate_titles>
CHEMBL301_lig866,556310

> <s_m_subgroup_title>
dock_pv

> <s_m_subgroupid>
dock_pv

> <b_m_subgroup_collapsed>
1

$$$$
CHEMBL301_lig1089
                    3D
 Schrodinger Suite 2021-1.
 56 59  0  0  1  0            999 V2000
   -0.8887   31.8086    9.0582 C   0  0  0  0  0  0
   -0.2646   32.6973    8.1761 C   0  0  0  0  0  0
    0.8354   32.4187    7.4240 N   0  0  0  0  0  0
   -0.3419   30.5305    9.2701 C   0  0  0  0  0  0
   -0.9911   29.6512   10.1613 N   0  0  0  0  0  0
   -0.2434   28.5994   10.8381 C   0  0  0  0  0  0
    0.8658   30.2508    8.5760 C   0  0  0  0  0  0
    1.3349   31.2075    7.6443 C   0  0  0  0  0  0
    2.4579   30.6521    7.0921 N   0  0  0  0  0  0
    2.6624   29.4514    7.7154 C   0  0  0  0  0  0
    1.7671   29.2124    8.6442 N   0  0  0  0  0  0
    3.7402   28.5067    7.3140 C   0  0  0  0  0  0
    4.3705   27.6882    8.2519 C   0  0  0  0  0  0
    5.3310   26.7698    7.8393 C   0  0  0  0  0  0
    5.6704   26.6475    6.4947 C   0  0  0  0  0  0
    5.0214   27.4555    5.5500 C   0  0  0  0  0  0
    4.0719   28.3859    5.9609 C   0  0  0  0  0  0
    6.6468   25.7197    6.1903 O   0  0  0  0  0  0
    7.0861   25.5950    4.8419 C   0  0  0  0  0  0
   -2.4476   32.3954    9.9893 Br  0  0  0  0  0  0
   -1.0975   27.7317   11.7754 C   0  0  0  0  0  0
   -0.2840   26.8300   12.7297 C   0  0  0  0  0  0
    0.4592   25.7203   12.0996 N   0  0  0  0  0  0
    0.1005   24.4095   12.1647 C   0  0  0  0  0  0
   -1.1394   23.9881   12.9905 C   0  0  0  0  0  0
    0.7406   23.5322   11.5762 O   0  0  0  0  0  0
   -1.2628   22.4619   13.2221 C   0  0  0  0  0  0
   -1.7736   22.8024   14.6301 C   0  0  0  0  0  0
   -0.9666   24.1063   14.5214 C   0  0  0  0  0  0
    1.6518   26.0972   11.3264 C   0  0  0  0  0  0
   -0.6768   33.6869    8.0347 H   0  0  0  0  0  0
   -1.6972   30.1058   10.7227 H   0  0  0  0  0  0
    0.5701   29.0690   11.3987 H   0  0  0  0  0  0
    0.2537   27.9581   10.1124 H   0  0  0  0  0  0
    3.1081   31.0382    6.4141 H   0  0  0  0  0  0
    4.1143   27.7544    9.3000 H   0  0  0  0  0  0
    5.8167   26.1446    8.5754 H   0  0  0  0  0  0
    5.2539   27.3875    4.4987 H   0  0  0  0  0  0
    3.5842   29.0002    5.2201 H   0  0  0  0  0  0
    7.8681   24.8394    4.7872 H   0  0  0  0  0  0
    6.2775   25.2810    4.1844 H   0  0  0  0  0  0
    7.5071   26.5298    4.4736 H   0  0  0  0  0  0
   -1.8113   27.1389   11.2003 H   0  0  0  0  0  0
   -1.7051   28.3960   12.3957 H   0  0  0  0  0  0
   -0.9609   26.4746   13.5017 H   0  0  0  0  0  0
    0.4433   27.4486   13.2596 H   0  0  0  0  0  0
   -2.0528   24.4432   12.5998 H   0  0  0  0  0  0
   -0.3168   21.9132   13.2602 H   0  0  0  0  0  0
   -1.9449   21.9254   12.5648 H   0  0  0  0  0  0
   -1.4661   22.1154   15.4193 H   0  0  0  0  0  0
   -2.8534   22.9531   14.6830 H   0  0  0  0  0  0
   -1.4186   24.9801   14.9919 H   0  0  0  0  0  0
    0.0579   23.9876   14.8840 H   0  0  0  0  0  0
    1.4888   25.9091   10.2639 H   0  0  0  0  0  0
    1.9077   27.1498   11.4305 H   0  0  0  0  0  0
    2.5217   25.5193   11.6393 H   0  0  0  0  0  0
  1  2  2  0  0  0
  1  4  1  0  0  0
  1 20  1  0  0  0
  2  3  1  0  0  0
  2 31  1  0  0  0
  3  8  2  0  0  0
  4  7  2  0  0  0
  4  5  1  0  0  0
  5  6  1  0  0  0
  5 32  1  0  0  0
  6 21  1  0  0  0
  6 33  1  0  0  0
  6 34  1  0  0  0
  7  8  1  0  0  0
  7 11  1  0  0  0
  8  9  1  0  0  0
  9 10  1  0  0  0
  9 35  1  0  0  0
 10 11  2  0  0  0
 10 12  1  0  0  0
 12 17  1  0  0  0
 12 13  2  0  0  0
 13 14  1  0  0  0
 13 36  1  0  0  0
 14 15  2  0  0  0
 14 37  1  0  0  0
 15 16  1  0  0  0
 15 18  1  0  0  0
 16 17  2  0  0  0
 16 38  1  0  0  0
 17 39  1  0  0  0
 18 19  1  0  0  0
 19 40  1  0  0  0
 19 41  1  0  0  0
 19 42  1  0  0  0
 21 22  1  0  0  0
 21 43  1  0  0  0
 21 44  1  0  0  0
 22 23  1  0  0  0
 22 45  1  0  0  0
 22 46  1  0  0  0
 23 24  1  0  0  0
 23 30  1  0  0  0
 24 25  1  0  0  0
 24 26  2  0  0  0
 25 27  1  0  0  0
 25 29  1  0  0  0
 25 47  1  0  0  0
 27 28  1  0  0  0
 27 48  1  0  0  0
 27 49  1  0  0  0
 28 29  1  0  0  0
 28 50  1  0  0  0
 28 51  1  0  0  0
 29 52  1  0  0  0
 29 53  1  0  0  0
 30 54  1  0  0  0
 30 55  1  0  0  0
 30 56  1  0  0  0
M  END
> <s_m_entry_id>
33044

> <s_m_entry_name>
dock_pv.445

> <s_m_Source_Path>
/home/csk/Desktop/cluster/DUD-E-result/cdk2

> <s_m_Source_File>
dock_pv.maegz

> <i_m_Source_File_Index>
445

> <chembl_id>
CHEMBL2011934

> <chembl_pref_name>
None

> <i_lp_mmshare_version>
53161

> <i_f3d_flags>
0

> <r_lp_tautomer_probability>
1

> <s_lp_Force_Field>
OPLS_2005

> <r_lp_Energy>
37.776661

> <b_lp_Chiralities_Consistent>
1

> <s_lp_Variant>
CHEMBL301_lig1089-1

> <s_i_glide_gridfile>
glide-grid_1h00

> <i_i_glide_lignum>
1492

> <i_i_glide_rotatable_bonds>
9

> <r_i_docking_score>
-7.14958281245772

> <r_i_glide_ligand_efficiency>
-0.238319427081924

> <r_i_glide_ligand_efficiency_sa>
-0.74051386978971

> <r_i_glide_ligand_efficiency_ln>
-1.62446311593451

> <r_i_glide_gscore>
-7.14958281245772

> <r_i_glide_lipo>
-2.55384444426561

> <r_i_glide_hbond>
-0.310994623140318

> <r_i_glide_metal>
0

> <r_i_glide_rewards>
-1.90985153169563

> <r_i_glide_evdw>
-39.0620193481445

> <r_i_glide_ecoul>
-7.04057502746582

> <r_i_glide_erotb>
0.63429500817094

> <r_i_glide_esite>
0

> <r_i_glide_emodel>
-64.7697728625805

> <r_i_glide_energy>
-46.1025943756104

> <r_i_glide_einternal>
2.38293623924255

> <i_i_glide_confnum>
36

> <i_i_glide_posenum>
227

> <r_i_glide_eff_state_penalty>
0

> <s_user_duplicate_titles>
CHEMBL301_lig1089

> <s_m_subgroup_title>
dock_pv

> <s_m_subgroupid>
dock_pv

> <b_m_subgroup_collapsed>
1

$$$$
CHEMBL301_lig322
                    3D
 Schrodinger Suite 2021-1.
 38 40  0  0  1  0            999 V2000
   -1.3652   28.5821   10.9092 C   0  0  0  0  0  0
   -2.2768   29.6140   10.6393 C   0  0  0  0  0  0
   -1.9462   30.6318    9.7415 C   0  0  0  0  0  0
   -0.1093   28.5861   10.2944 C   0  0  0  0  0  0
    0.2117   29.5956    9.3848 C   0  0  0  0  0  0
   -0.7018   30.5925    9.1152 C   0  0  0  0  0  0
   -0.1662   31.4379    8.1762 N   0  0  0  0  0  0
    1.0503   31.0443    7.7760 C   0  0  0  0  0  0
    1.3848   29.8520    8.5762 C   0  0  0  0  0  0
    1.7390   31.5979    6.9191 O   0  0  0  0  0  0
    2.4585   29.1504    8.5630 N   0  0  0  0  0  0
    3.5316   29.4520    7.7058 N   0  0  0  0  0  0
    4.1352   28.4154    6.9891 C   0  0  0  0  0  0
    4.0945   28.4554    5.5955 C   0  0  0  0  0  0
    4.5478   27.3738    4.8462 C   0  0  0  0  0  0
    5.0735   26.2577    5.4964 C   0  0  0  0  0  0
    5.1807   26.2391    6.8902 C   0  0  0  0  0  0
    4.7055   27.3159    7.6365 C   0  0  0  0  0  0
    5.5340   24.8049    4.5561 S   0  0  0  0  0  0
    6.0555   25.3566    2.9820 N   0  0  0  0  0  0
    6.6963   24.2113    5.2245 O   0  0  0  0  0  0
    4.2972   24.0425    4.3650 O   0  0  0  0  0  0
   -1.7615   27.2183   11.9998 S   0  0  0  0  0  0
   -3.3909   27.4520   12.1760 O   0  0  0  0  0  0
   -1.1171   27.4710   13.2919 O   0  0  0  0  0  0
   -1.5416   25.9766   11.2502 O   0  0  0  0  0  0
   -3.2469   29.6353   11.1117 H   0  0  0  0  0  0
   -2.6586   31.4173    9.5363 H   0  0  0  0  0  0
    0.5957   27.7935   10.5062 H   0  0  0  0  0  0
   -0.6264   32.2547    7.8039 H   0  0  0  0  0  0
    3.3417   30.2804    7.1487 H   0  0  0  0  0  0
    3.6663   29.3095    5.0930 H   0  0  0  0  0  0
    4.4654   27.3949    3.7691 H   0  0  0  0  0  0
    5.5880   25.3769    7.3984 H   0  0  0  0  0  0
    4.7453   27.2787    8.7163 H   0  0  0  0  0  0
    7.0425   25.1875    2.7829 H   0  0  0  0  0  0
    5.4259   25.0520    2.2241 H   0  0  0  0  0  0
   -3.5420   28.0863   12.9174 H   0  0  0  0  0  0
  1  2  2  0  0  0
  1  4  1  0  0  0
  1 23  1  0  0  0
  2  3  1  0  0  0
  2 27  1  0  0  0
  3  6  2  0  0  0
  3 28  1  0  0  0
  4  5  2  0  0  0
  4 29  1  0  0  0
  5  9  1  0  0  0
  5  6  1  0  0  0
  6  7  1  0  0  0
  7  8  1  0  0  0
  7 30  1  0  0  0
  8  9  1  0  0  0
  8 10  2  0  0  0
  9 11  2  0  0  0
 11 12  1  0  0  0
 12 13  1  0  0  0
 12 31  1  0  0  0
 13 14  2  0  0  0
 13 18  1  0  0  0
 14 15  1  0  0  0
 14 32  1  0  0  0
 15 16  2  0  0  0
 15 33  1  0  0  0
 16 17  1  0  0  0
 16 19  1  0  0  0
 17 18  2  0  0  0
 17 34  1  0  0  0
 18 35  1  0  0  0
 19 20  1  0  0  0
 19 21  2  0  0  0
 19 22  2  0  0  0
 20 36  1  0  0  0
 20 37  1  0  0  0
 23 24  1  0  0  0
 23 25  2  0  0  0
 23 26  2  0  0  0
 24 38  1  0  0  0
M  END
> <s_m_entry_id>
33046

> <s_m_entry_name>
dock_pv.447

> <s_m_Source_Path>
/home/csk/Desktop/cluster/DUD-E-result/cdk2

> <s_m_Source_File>
dock_pv.maegz

> <i_m_Source_File_Index>
447

> <chembl_id>
CHEMBL412091

> <chembl_pref_name>
None

> <i_lp_mmshare_version>
53161

> <i_f3d_flags>
0

> <r_lp_tautomer_probability>
1

> <s_lp_Force_Field>
OPLS_2005

> <r_lp_Energy>
43.926078

> <b_lp_Chiralities_Consistent>
1

> <s_lp_Variant>
CHEMBL301_lig322-1

> <s_i_glide_gridfile>
glide-grid_1h00

> <i_i_glide_lignum>
499

> <i_i_glide_rotatable_bonds>
5

> <r_i_docking_score>
-7.14916390106301

> <r_i_glide_ligand_efficiency>
-0.274967842348577

> <r_i_glide_ligand_efficiency_sa>
-0.814591151011446

> <r_i_glide_ligand_efficiency_ln>
-1.67895768384454

> <r_i_glide_gscore>
-7.14916390106301

> <r_i_glide_lipo>
-2.33340562632041

> <r_i_glide_hbond>
-0.381942362926192

> <r_i_glide_metal>
0

> <r_i_glide_rewards>
-1.18781153053696

> <r_i_glide_evdw>
-41.3825645446777

> <r_i_glide_ecoul>
-9.71513843536377

> <r_i_glide_erotb>
0.373526457214105

> <r_i_glide_esite>
-0.0931318459550993

> <r_i_glide_emodel>
-67.9260761082735

> <r_i_glide_energy>
-51.0977029800415

> <r_i_glide_einternal>
8.19724941253662

> <i_i_glide_confnum>
4

> <i_i_glide_posenum>
27

> <r_i_glide_eff_state_penalty>
0

> <s_user_duplicate_titles>
CHEMBL301_lig322,226101,440840

> <s_m_subgroup_title>
dock_pv

> <s_m_subgroupid>
dock_pv

> <b_m_subgroup_collapsed>
1

$$$$
CHEMBL301_lig1388
                    3D
 Schrodinger Suite 2021-1.
 68 69  0  0  1  0            999 V2000
    0.3616   25.8738   12.5761 C   0  0  0  0  0  0
    0.0577   27.2898   12.0495 C   0  0  2  0  0  0
   -1.1122   27.7474   12.7034 O   0  0  0  0  0  0
   -0.0540   27.3510   10.5053 C   0  0  1  0  0  0
   -1.1416   26.4107    9.9480 C   0  0  0  0  0  0
   -0.4077   28.6883   10.1172 O   0  0  0  0  0  0
    0.3837   29.4513    9.2712 C   0  0  0  0  0  0
    1.6575   29.0522    8.9752 N   0  0  0  0  0  0
    2.3265   29.7807    8.0310 C   0  0  0  0  0  0
    3.5960   29.3889    7.5930 N   0  0  0  0  0  0
    4.1493   28.1083    7.4381 C   0  0  0  0  0  0
    4.8580   27.8508    6.2639 C   0  0  0  0  0  0
    5.3644   26.5777    6.0057 C   0  0  0  0  0  0
    5.1434   25.5407    6.9148 C   0  0  0  0  0  0
    4.4579   25.8043    8.1044 C   0  0  0  0  0  0
    3.9853   27.0873    8.3764 C   0  0  0  0  0  0
    5.7911   23.8892    6.5761 S   0  0  1  0  0  0
    7.2275   23.9208    6.8648 O   0  0  0  0  0  0
    4.7940   22.9689    7.2890 N   0  0  0  0  0  0
    5.3105   21.2969    7.2780 S   0  0  0  0  0  0
    4.9400   20.5162    6.0949 O   0  0  0  0  0  0
    6.6668   21.0544    7.7753 O   0  0  0  0  0  0
    4.1846   20.5919    8.6523 C   0  0  0  0  0  0
    3.0487   21.5345    9.1103 C   0  0  0  0  0  0
    1.9417   20.8358   10.4734 Si  0  0  0  0  0  0
    0.7213   19.6013    9.7491 C   0  0  0  0  0  0
    2.9981   19.9706   11.7716 C   0  0  0  0  0  0
    1.0151   22.2527   11.3020 C   0  0  0  0  0  0
    5.5157   23.5480    4.7258 C   0  0  0  0  0  0
    4.0574   23.6981    4.2638 C   0  0  0  0  0  0
    3.2581   22.5741    4.5757 O   0  0  0  0  0  0
    1.8410   30.8803    7.3987 N   0  0  0  0  0  0
    0.6089   31.2980    7.7762 C   0  0  0  0  0  0
   -0.1730   30.5997    8.6958 C   0  0  0  0  0  0
   -1.9259   31.2071    9.1319 Br  0  0  0  0  0  0
    1.3000   25.5000   12.1636 H   0  0  0  0  0  0
   -0.4230   25.1598   12.3277 H   0  0  0  0  0  0
    0.4571   25.8819   13.6625 H   0  0  0  0  0  0
    0.8580   27.9654   12.3504 H   0  0  0  0  0  0
   -1.8858   27.4401   12.2260 H   0  0  0  0  0  0
    0.8997   27.0267   10.0877 H   0  0  0  0  0  0
   -0.8213   25.3674    9.9740 H   0  0  0  0  0  0
   -2.0656   26.4779   10.5221 H   0  0  0  0  0  0
   -1.3685   26.6507    8.9123 H   0  0  0  0  0  0
    3.9936   30.0770    6.9622 H   0  0  0  0  0  0
    5.0103   28.6352    5.5348 H   0  0  0  0  0  0
    5.9204   26.4067    5.0953 H   0  0  0  0  0  0
    4.2899   25.0121    8.8180 H   0  0  0  0  0  0
    3.4672   27.2672    9.3068 H   0  0  0  0  0  0
    3.7786   19.6597    8.2643 H   0  0  0  0  0  0
    4.8427   20.3354    9.4806 H   0  0  0  0  0  0
    3.4744   22.4739    9.4589 H   0  0  0  0  0  0
    2.4450   21.8034    8.2442 H   0  0  0  0  0  0
    0.0522   19.2049   10.5141 H   0  0  0  0  0  0
    0.1025   20.0568    8.9779 H   0  0  0  0  0  0
    1.2356   18.7531    9.2999 H   0  0  0  0  0  0
    2.3809   19.5729   12.5767 H   0  0  0  0  0  0
    3.5458   19.1327   11.3417 H   0  0  0  0  0  0
    3.7226   20.6480   12.2187 H   0  0  0  0  0  0
    0.3058   21.8850   12.0426 H   0  0  0  0  0  0
    1.6979   22.9323   11.8111 H   0  0  0  0  0  0
    0.4578   22.8433   10.5761 H   0  0  0  0  0  0
    6.1689   24.2121    4.1639 H   0  0  0  0  0  0
    5.8687   22.5339    4.5396 H   0  0  0  0  0  0
    3.6218   24.5873    4.7174 H   0  0  0  0  0  0
    4.0190   23.8848    3.1910 H   0  0  0  0  0  0
    2.4016   22.6526    4.1311 H   0  0  0  0  0  0
    0.2676   32.2384    7.3763 H   0  0  0  0  0  0
  1  2  1  0  0  0
  1 36  1  0  0  0
  1 37  1  0  0  0
  1 38  1  0  0  0
  2  3  1  0  0  0
  2  4  1  0  0  0
  2 39  1  0  0  0
  3 40  1  0  0  0
  4  5  1  0  0  0
  4  6  1  0  0  0
  4 41  1  0  0  0
  5 42  1  0  0  0
  5 43  1  0  0  0
  5 44  1  0  0  0
  6  7  1  0  0  0
  7  8  2  0  0  0
  7 34  1  0  0  0
  8  9  1  0  0  0
  9 10  1  0  0  0
  9 32  2  0  0  0
 10 11  1  0  0  0
 10 45  1  0  0  0
 11 12  2  0  0  0
 11 16  1  0  0  0
 12 13  1  0  0  0
 12 46  1  0  0  0
 13 14  2  0  0  0
 13 47  1  0  0  0
 14 15  1  0  0  0
 14 17  1  0  0  0
 15 16  2  0  0  0
 15 48  1  0  0  0
 16 49  1  0  0  0
 17 18  2  0  0  0
 17 19  2  0  0  0
 17 29  1  0  0  0
 19 20  1  0  0  0
 20 21  2  0  0  0
 20 22  2  0  0  0
 20 23  1  0  0  0
 23 24  1  0  0  0
 23 50  1  0  0  0
 23 51  1  0  0  0
 24 25  1  0  0  0
 24 52  1  0  0  0
 24 53  1  0  0  0
 25 26  1  0  0  0
 25 27  1  0  0  0
 25 28  1  0  0  0
 26 54  1  0  0  0
 26 55  1  0  0  0
 26 56  1  0  0  0
 27 57  1  0  0  0
 27 58  1  0  0  0
 27 59  1  0  0  0
 28 60  1  0  0  0
 28 61  1  0  0  0
 28 62  1  0  0  0
 29 30  1  0  0  0
 29 63  1  0  0  0
 29 64  1  0  0  0
 30 31  1  0  0  0
 30 65  1  0  0  0
 30 66  1  0  0  0
 31 67  1  0  0  0
 32 33  1  0  0  0
 33 34  2  0  0  0
 33 68  1  0  0  0
 34 35  1  0  0  0
M  END
> <s_m_entry_id>
33047

> <s_m_entry_name>
dock_pv.448

> <s_m_Source_Path>
/home/csk/Desktop/cluster/DUD-E-result/cdk2

> <s_m_Source_File>
dock_pv.maegz

> <i_m_Source_File_Index>
448

> <chembl_id>
CHEMBL3648081

> <chembl_pref_name>
None

> <i_lp_mmshare_version>
53161

> <i_f3d_flags>
0

> <r_lp_tautomer_probability>
0.999999917912647

> <s_lp_Force_Field>
OPLS_2005

> <r_lp_Energy>
-0.089626

> <b_lp_Chiralities_Consistent>
1

> <s_lp_Variant>
CHEMBL301_lig1388-1

> <s_i_glide_gridfile>
glide-grid_1h00

> <i_i_glide_lignum>
1874

> <i_i_glide_rotatable_bonds>
14

> <r_i_docking_score>
-7.14884351864372

> <r_i_glide_ligand_efficiency>
-0.204252671961249

> <r_i_glide_ligand_efficiency_sa>
-0.668124033226639

> <r_i_glide_ligand_efficiency_ln>
-1.56932981237582

> <r_i_glide_gscore>
-7.14884351864372

> <r_i_glide_lipo>
-2.15966932000863

> <r_i_glide_hbond>
-0.304

> <r_i_glide_metal>
0

> <r_i_glide_rewards>
-1.3622453296051

> <r_i_glide_evdw>
-46.4262504577637

> <r_i_glide_ecoul>
-9.90647602081299

> <r_i_glide_erotb>
0.498783669969832

> <r_i_glide_esite>
-0.0144286129896891

> <r_i_glide_emodel>
-71.4276500362871

> <r_i_glide_energy>
-56.3327264785767

> <r_i_glide_einternal>
16.8621444702148

> <i_i_glide_confnum>
18

> <i_i_glide_posenum>
29

> <r_i_glide_eff_state_penalty>
0

> <s_user_duplicate_titles>
CHEMBL301_lig1388

> <s_m_subgroup_title>
dock_pv

> <s_m_subgroupid>
dock_pv

> <b_m_subgroup_collapsed>
1

$$$$
CHEMBL301_lig1337
                    3D
 Schrodinger Suite 2021-1.
 55 56  0  0  1  0            999 V2000
    9.6638   26.6514    4.7045 C   0  0  0  0  0  0
    9.7144   25.4726    5.6848 C   0  0  0  0  0  0
    9.1914   25.8080    6.9742 O   0  0  0  0  0  0
    7.8749   25.7583    7.3461 C   0  0  0  0  0  0
    7.5441   25.9660    8.5141 O   0  0  0  0  0  0
    7.0111   25.4584    6.3077 N   0  0  0  0  0  0
    5.5365   25.1388    6.6591 S   0  0  2  0  0  0
    5.0939   24.3010    7.7760 O   0  0  0  0  0  0
    4.8328   24.3727    5.0610 C   0  0  0  0  0  0
    5.7212   24.5832    3.8189 C   0  0  0  0  0  0
    4.7565   26.7442    6.8326 C   0  0  0  0  0  0
    4.3388   27.1986    8.0903 C   0  0  0  0  0  0
    3.5914   28.3762    8.1962 C   0  0  0  0  0  0
    3.2496   29.0855    7.0436 C   0  0  0  0  0  0
    2.4581   30.2522    7.0136 N   0  0  0  0  0  0
    1.3162   30.6811    7.6909 C   0  0  0  0  0  0
    0.9419   31.9683    7.4807 N   0  0  0  0  0  0
   -0.1421   32.4047    8.1761 C   0  0  0  0  0  0
   -0.8629   31.5735    9.0405 C   0  0  0  0  0  0
   -2.3652   32.2367   10.0046 Br  0  0  0  0  0  0
   -0.4165   30.2532    9.1788 C   0  0  0  0  0  0
   -1.0610   29.3682   10.0331 O   0  0  0  0  0  0
   -0.5308   28.0477   10.2889 C   0  0  2  0  0  0
   -1.5422   27.2852   11.1728 C   0  0  0  0  0  0
    0.8940   28.0430   10.9103 C   0  0  2  0  0  0
    1.5544   26.6523   10.9759 C   0  0  0  0  0  0
    0.8577   28.6515   12.1760 O   0  0  0  0  0  0
    0.6694   29.8135    8.4919 N   0  0  0  0  0  0
    3.7608   28.6681    5.8232 C   0  0  0  0  0  0
    4.5090   27.5096    5.6999 C   0  0  0  0  0  0
   10.1740   26.4035    3.7737 H   0  0  0  0  0  0
    8.6371   26.9184    4.4558 H   0  0  0  0  0  0
   10.1496   27.5322    5.1251 H   0  0  0  0  0  0
   10.7566   25.1852    5.8268 H   0  0  0  0  0  0
    9.2119   24.5972    5.2699 H   0  0  0  0  0  0
    4.7355   23.3057    5.2571 H   0  0  0  0  0  0
    3.8266   24.7649    4.9170 H   0  0  0  0  0  0
    5.2601   24.1261    2.9456 H   0  0  0  0  0  0
    5.8844   25.6351    3.5916 H   0  0  0  0  0  0
    6.6996   24.1190    3.9460 H   0  0  0  0  0  0
    4.5673   26.6250    8.9756 H   0  0  0  0  0  0
    3.2835   28.7285    9.1643 H   0  0  0  0  0  0
    2.9277   30.9976    6.5144 H   0  0  0  0  0  0
   -0.4257   33.4379    8.0276 H   0  0  0  0  0  0
   -0.4819   27.5263    9.3313 H   0  0  0  0  0  0
   -1.0936   26.4522   11.7099 H   0  0  0  0  0  0
   -1.9900   27.9437   11.9192 H   0  0  0  0  0  0
   -2.3413   26.8473   10.5826 H   0  0  0  0  0  0
    1.5809   28.6514   10.3462 H   0  0  0  0  0  0
    1.5429   26.1672    9.9992 H   0  0  0  0  0  0
    1.0633   25.9871   11.6850 H   0  0  0  0  0  0
    2.5999   26.7292   11.2799 H   0  0  0  0  0  0
    1.5764   28.2723   12.7068 H   0  0  0  0  0  0
    3.5729   29.2860    4.9759 H   0  0  0  0  0  0
    4.8649   27.2069    4.7284 H   0  0  0  0  0  0
  1  2  1  0  0  0
  1 31  1  0  0  0
  1 32  1  0  0  0
  1 33  1  0  0  0
  2  3  1  0  0  0
  2 34  1  0  0  0
  2 35  1  0  0  0
  3  4  1  0  0  0
  4  5  2  0  0  0
  4  6  1  0  0  0
  6  7  2  0  0  0
  7  8  2  0  0  0
  7  9  1  0  0  0
  7 11  1  0  0  0
  9 10  1  0  0  0
  9 36  1  0  0  0
  9 37  1  0  0  0
 10 38  1  0  0  0
 10 39  1  0  0  0
 10 40  1  0  0  0
 11 12  2  0  0  0
 11 30  1  0  0  0
 12 13  1  0  0  0
 12 41  1  0  0  0
 13 14  2  0  0  0
 13 42  1  0  0  0
 14 15  1  0  0  0
 14 29  1  0  0  0
 15 16  1  0  0  0
 15 43  1  0  0  0
 16 17  2  0  0  0
 16 28  1  0  0  0
 17 18  1  0  0  0
 18 19  2  0  0  0
 18 44  1  0  0  0
 19 20  1  0  0  0
 19 21  1  0  0  0
 21 22  1  0  0  0
 21 28  2  0  0  0
 22 23  1  0  0  0
 23 24  1  0  0  0
 23 25  1  0  0  0
 23 45  1  0  0  0
 24 46  1  0  0  0
 24 47  1  0  0  0
 24 48  1  0  0  0
 25 26  1  0  0  0
 25 27  1  0  0  0
 25 49  1  0  0  0
 26 50  1  0  0  0
 26 51  1  0  0  0
 26 52  1  0  0  0
 27 53  1  0  0  0
 29 30  2  0  0  0
 29 54  1  0  0  0
 30 55  1  0  0  0
M  END
> <s_m_entry_id>
33048

> <s_m_entry_name>
dock_pv.449

> <s_m_Source_Path>
/home/csk/Desktop/cluster/DUD-E-result/cdk2

> <s_m_Source_File>
dock_pv.maegz

> <i_m_Source_File_Index>
449

> <chembl_id>
CHEMBL3648092

> <chembl_pref_name>
None

> <i_lp_mmshare_version>
53161

> <i_f3d_flags>
0

> <r_lp_tautomer_probability>
0.999999917912647

> <s_lp_Force_Field>
OPLS_2005

> <r_lp_Energy>
4.884581

> <b_lp_Chiralities_Consistent>
1

> <s_lp_Variant>
CHEMBL301_lig1337-2

> <s_i_glide_gridfile>
glide-grid_1h00

> <i_i_glide_lignum>
1767

> <i_i_glide_rotatable_bonds>
11

> <r_i_docking_score>
-7.14856673479594

> <r_i_glide_ligand_efficiency>
-0.238285557826531

> <r_i_glide_ligand_efficiency_sa>
-0.740408630138521

> <r_i_glide_ligand_efficiency_ln>
-1.6242322520187

> <r_i_glide_gscore>
-7.14856673479594

> <r_i_glide_lipo>
-2.71161729084964

> <r_i_glide_hbond>
-0.290884891621997

> <r_i_glide_metal>
0

> <r_i_glide_rewards>
-0.808773686086404

> <r_i_glide_evdw>
-42.3075714111328

> <r_i_glide_ecoul>
-13.0211038589478

> <r_i_glide_erotb>
0.731253283160903

> <r_i_glide_esite>
0

> <r_i_glide_emodel>
-69.1565493122229

> <r_i_glide_energy>
-55.3286752700806

> <r_i_glide_einternal>
8.31605815887451

> <i_i_glide_confnum>
163

> <i_i_glide_posenum>
44

> <r_i_glide_eff_state_penalty>
0

> <s_user_duplicate_titles>
CHEMBL301_lig1337

> <s_m_subgroup_title>
dock_pv

> <s_m_subgroupid>
dock_pv

> <b_m_subgroup_collapsed>
1

$$$$
CHEMBL301_lig75
                    3D
 Schrodinger Suite 2021-1.
 32 35  0  0  1  0            999 V2000
    1.2638   30.5467    8.0648 C   0  0  0  0  0  0
    0.2411   30.2068    8.9742 C   0  0  0  0  0  0
    0.3111   29.1160    9.7873 N   0  0  0  0  0  0
    2.4055   29.7507    7.9905 C   0  0  0  0  0  0
    2.4958   28.6511    8.8534 C   0  0  0  0  0  0
    1.4161   28.3821    9.7507 C   0  0  0  0  0  0
    1.6463   27.3151   10.5710 N   0  0  0  0  0  0
    2.8580   26.9072   10.1714 N   0  0  0  0  0  0
    3.4167   27.6126    9.1383 C   0  0  0  0  0  0
    4.6124   27.2256    8.5757 N   0  0  0  0  0  0
    4.9174   27.2856    7.2645 C   0  0  0  0  0  0
    4.2258   27.8449    6.4141 O   0  0  0  0  0  0
    6.2079   26.5904    6.7974 C   0  0  0  0  0  0
    7.0818   25.8525    7.8023 C   0  0  0  0  0  0
    6.1809   25.0763    6.8673 C   0  0  0  0  0  0
   -0.9556   31.0454    9.2863 C   0  0  0  0  0  0
   -2.4699   30.3130    9.7765 S   0  0  0  0  0  0
   -3.1287   31.8515   10.1762 C   0  0  0  0  0  0
   -2.2323   32.8767    9.9379 C   0  0  0  0  0  0
   -1.0388   32.4291    9.3763 C   0  0  0  0  0  0
    1.2583   32.1138    6.9763 Br  0  0  0  0  0  0
    3.2101   30.0002    7.3132 H   0  0  0  0  0  0
    3.3413   26.1474   10.6308 H   0  0  0  0  0  0
    5.2348   26.7096    9.1890 H   0  0  0  0  0  0
    6.6734   27.0519    5.9285 H   0  0  0  0  0  0
    6.8571   25.8629    8.8695 H   0  0  0  0  0  0
    8.1574   25.8455    7.6231 H   0  0  0  0  0  0
    6.6242   24.5215    6.0396 H   0  0  0  0  0  0
    5.3004   24.5710    7.2683 H   0  0  0  0  0  0
   -4.1154   31.9187   10.6097 H   0  0  0  0  0  0
   -2.4356   33.9142   10.1558 H   0  0  0  0  0  0
   -0.2188   33.0862    9.1352 H   0  0  0  0  0  0
  1  2  1  0  0  0
  1 21  1  0  0  0
  1  4  2  0  0  0
  2  3  2  0  0  0
  2 16  1  0  0  0
  3  6  1  0  0  0
  4 22  1  0  0  0
  4  5  1  0  0  0
  5  9  2  0  0  0
  5  6  1  0  0  0
  6  7  2  0  0  0
  7  8  1  0  0  0
  8  9  1  0  0  0
  8 23  1  0  0  0
  9 10  1  0  0  0
 10 11  1  0  0  0
 10 24  1  0  0  0
 11 12  2  0  0  0
 11 13  1  0  0  0
 13 14  1  0  0  0
 13 15  1  0  0  0
 13 25  1  0  0  0
 14 15  1  0  0  0
 14 26  1  0  0  0
 14 27  1  0  0  0
 15 28  1  0  0  0
 15 29  1  0  0  0
 16 17  1  0  0  0
 16 20  2  0  0  0
 17 18  1  0  0  0
 18 19  2  0  0  0
 18 30  1  0  0  0
 19 20  1  0  0  0
 19 31  1  0  0  0
 20 32  1  0  0  0
M  END
> <s_m_entry_id>
33049

> <s_m_entry_name>
dock_pv.450

> <s_m_Source_Path>
/home/csk/Desktop/cluster/DUD-E-result/cdk2

> <s_m_Source_File>
dock_pv.maegz

> <i_m_Source_File_Index>
450

> <chembl_id>
CHEMBL260231

> <chembl_pref_name>
None

> <i_lp_mmshare_version>
53161

> <i_f3d_flags>
0

> <r_lp_tautomer_probability>
0.0390191909917017

> <s_lp_Force_Field>
OPLS_2005

> <r_lp_Energy>
32.315134

> <b_lp_Chiralities_Consistent>
1

> <s_lp_Variant>
CHEMBL301_lig75-2

> <s_i_glide_gridfile>
glide-grid_1h00

> <i_i_glide_lignum>
166

> <i_i_glide_rotatable_bonds>
4

> <r_i_docking_score>
-7.13974343505424

> <r_i_glide_ligand_efficiency>
-0.33998778262163

> <r_i_glide_ligand_efficiency_sa>
-0.938000512197104

> <r_i_glide_ligand_efficiency_ln>
-1.76528713710711

> <r_i_glide_gscore>
-7.13974343505424

> <r_i_glide_lipo>
-3.12267494277339

> <r_i_glide_hbond>
-0.209936889482498

> <r_i_glide_metal>
0

> <r_i_glide_rewards>
-1.87929103196337

> <r_i_glide_evdw>
-34.5962409973145

> <r_i_glide_ecoul>
-4.81848335266113

> <r_i_glide_erotb>
0.58242574315442

> <r_i_glide_esite>
-0.0576817612245117

> <r_i_glide_emodel>
-53.5687279196622

> <r_i_glide_energy>
-39.4147243499756

> <r_i_glide_einternal>
4.75518894195557

> <i_i_glide_confnum>
3

> <i_i_glide_posenum>
361

> <r_i_glide_eff_state_penalty>
0

> <s_user_duplicate_titles>
CHEMBL301_lig75,429225

> <s_m_subgroup_title>
dock_pv

> <s_m_subgroupid>
dock_pv

> <b_m_subgroup_collapsed>
1

$$$$
CHEMBL301_lig1461
                    3D
 Schrodinger Suite 2021-1.
 49 50  0  0  1  0            999 V2000
    0.0302   26.2288   12.9073 C   0  0  0  0  0  0
   -0.3899   27.5075   12.1618 C   0  0  1  0  0  0
    0.4570   28.5603   12.5759 O   0  0  0  0  0  0
   -0.3286   27.4057   10.6196 C   0  0  1  0  0  0
   -1.1087   26.2021   10.0610 C   0  0  0  0  0  0
   -0.9936   28.5762   10.1325 O   0  0  0  0  0  0
   -0.3321   29.5805    9.4506 C   0  0  0  0  0  0
    0.9229   29.3389    8.9759 N   0  0  0  0  0  0
    1.4443   30.2513    8.1118 C   0  0  0  0  0  0
    2.6170   29.9700    7.3987 N   0  0  0  0  0  0
    3.4381   28.8397    7.2743 C   0  0  0  0  0  0
    4.0593   28.6521    6.0392 C   0  0  0  0  0  0
    4.8577   27.5462    5.7982 C   0  0  0  0  0  0
    5.0060   26.5887    6.7933 C   0  0  0  0  0  0
    4.3896   26.7588    8.0353 C   0  0  0  0  0  0
    3.6317   27.9006    8.2901 C   0  0  0  0  0  0
    6.0306   25.1654    6.4694 S   0  0  0  0  0  0
    7.0452   25.5593    5.4877 O   0  0  0  0  0  0
    6.4462   24.6497    7.7760 O   0  0  0  0  0  0
    4.8344   23.9143    5.6899 C   0  0  0  0  0  0
    4.2466   24.3738    4.3409 C   0  0  0  0  0  0
    5.2582   24.5580    3.3762 O   0  0  0  0  0  0
    0.8590   31.4288    7.7765 N   0  0  0  0  0  0
   -0.3278   31.7054    8.3770 C   0  0  0  0  0  0
   -0.9978   30.7882    9.1891 C   0  0  0  0  0  0
   -2.3865   31.1329    9.7186 C   0  0  0  0  0  0
   -2.3438   32.3162   10.3329 F   0  0  0  0  0  0
   -3.2209   31.2230    8.6832 F   0  0  0  0  0  0
   -2.8786   30.2359   10.5703 F   0  0  0  0  0  0
   -0.6858   25.4233   12.7443 H   0  0  0  0  0  0
    0.0832   26.3978   13.9839 H   0  0  0  0  0  0
    1.0065   25.8730   12.5754 H   0  0  0  0  0  0
   -1.4055   27.7687   12.4682 H   0  0  0  0  0  0
    1.3400   28.2004   12.7523 H   0  0  0  0  0  0
    0.7109   27.3049   10.3034 H   0  0  0  0  0  0
   -0.6155   25.2600   10.3011 H   0  0  0  0  0  0
   -2.1223   26.1593   10.4610 H   0  0  0  0  0  0
   -1.1761   26.2607    8.9749 H   0  0  0  0  0  0
    2.8886   30.7120    6.7691 H   0  0  0  0  0  0
    3.9337   29.3765    5.2527 H   0  0  0  0  0  0
    5.3468   27.4301    4.8408 H   0  0  0  0  0  0
    4.4587   25.9937    8.7888 H   0  0  0  0  0  0
    3.1631   28.0239    9.2547 H   0  0  0  0  0  0
    5.3934   22.9881    5.5666 H   0  0  0  0  0  0
    4.0422   23.7349    6.4157 H   0  0  0  0  0  0
    3.5257   23.6427    3.9713 H   0  0  0  0  0  0
    3.7060   25.3139    4.4535 H   0  0  0  0  0  0
    4.8582   24.6489    2.4910 H   0  0  0  0  0  0
   -0.7555   32.6778    8.1762 H   0  0  0  0  0  0
  1  2  1  0  0  0
  1 30  1  0  0  0
  1 31  1  0  0  0
  1 32  1  0  0  0
  2  3  1  0  0  0
  2  4  1  0  0  0
  2 33  1  0  0  0
  3 34  1  0  0  0
  4  5  1  0  0  0
  4  6  1  0  0  0
  4 35  1  0  0  0
  5 36  1  0  0  0
  5 37  1  0  0  0
  5 38  1  0  0  0
  6  7  1  0  0  0
  7  8  2  0  0  0
  7 25  1  0  0  0
  8  9  1  0  0  0
  9 10  1  0  0  0
  9 23  2  0  0  0
 10 11  1  0  0  0
 10 39  1  0  0  0
 11 12  2  0  0  0
 11 16  1  0  0  0
 12 13  1  0  0  0
 12 40  1  0  0  0
 13 14  2  0  0  0
 13 41  1  0  0  0
 14 15  1  0  0  0
 14 17  1  0  0  0
 15 16  2  0  0  0
 15 42  1  0  0  0
 16 43  1  0  0  0
 17 18  2  0  0  0
 17 19  2  0  0  0
 17 20  1  0  0  0
 20 21  1  0  0  0
 20 44  1  0  0  0
 20 45  1  0  0  0
 21 22  1  0  0  0
 21 46  1  0  0  0
 21 47  1  0  0  0
 22 48  1  0  0  0
 23 24  1  0  0  0
 24 25  2  0  0  0
 24 49  1  0  0  0
 25 26  1  0  0  0
 26 27  1  0  0  0
 26 28  1  0  0  0
 26 29  1  0  0  0
M  END
> <s_m_entry_id>
33050

> <s_m_entry_name>
dock_pv.451

> <s_m_Source_Path>
/home/csk/Desktop/cluster/DUD-E-result/cdk2

> <s_m_Source_File>
dock_pv.maegz

> <i_m_Source_File_Index>
451

> <chembl_id>
CHEMBL3644026

> <chembl_pref_name>
None

> <i_lp_mmshare_version>
53161

> <i_f3d_flags>
0

> <r_lp_tautomer_probability>
0.999999917912647

> <s_lp_Force_Field>
OPLS_2005

> <r_lp_Energy>
7.18116

> <b_lp_Chiralities_Consistent>
1

> <s_lp_Variant>
CHEMBL301_lig1461-1

> <s_i_glide_gridfile>
glide-grid_1h00

> <i_i_glide_lignum>
1974

> <i_i_glide_rotatable_bonds>
11

> <r_i_docking_score>
-7.13822040820659

> <r_i_glide_ligand_efficiency>
-0.246145531317469

> <r_i_glide_ligand_efficiency_sa>
-0.756237056585217

> <r_i_glide_ligand_efficiency_ln>
-1.6344714638277

> <r_i_glide_gscore>
-7.13822040820659

> <r_i_glide_lipo>
-2.44014774027731

> <r_i_glide_hbond>
-0.174176924107881

> <r_i_glide_metal>
0

> <r_i_glide_rewards>
-1.6548185385886

> <r_i_glide_evdw>
-38.1322402954102

> <r_i_glide_ecoul>
-11.5932340621948

> <r_i_glide_erotb>
0.840726816865805

> <r_i_glide_esite>
-0.0642068979988709

> <r_i_glide_emodel>
-66.0425812145186

> <r_i_glide_energy>
-49.725474357605

> <r_i_glide_einternal>
9.8442907333374

> <i_i_glide_confnum>
111

> <i_i_glide_posenum>
381

> <r_i_glide_eff_state_penalty>
0

> <s_user_duplicate_titles>
CHEMBL301_lig1461

> <s_m_subgroup_title>
dock_pv

> <s_m_subgroupid>
dock_pv

> <b_m_subgroup_collapsed>
1

$$$$
CHEMBL301_lig898
                    3D
 Schrodinger Suite 2021-1.
 36 39  0  0  1  0            999 V2000
    1.7756   30.6519    7.5652 C   0  0  0  0  0  0
    0.8575   32.6507    7.3762 N   0  0  0  0  0  0
    1.9025   31.8221    6.9760 N   0  0  0  0  0  0
    0.0902   31.9121    8.1489 C   0  0  0  0  0  0
    0.5867   30.6454    8.2690 N   0  0  0  0  0  0
   -0.0633   29.7637    9.0710 N   0  0  0  0  0  0
   -1.1267   30.3425    9.5739 C   0  0  0  0  0  0
   -1.3783   32.0313    9.0892 S   0  0  0  0  0  0
   -2.0948   29.6221   10.5097 C   0  0  0  0  0  0
    2.8369   29.5779    7.6819 C   0  0  0  0  0  0
   -1.5918   28.3248   11.2264 C   0  0  1  0  0  0
   -1.1419   26.9197   10.1752 S   0  0  0  0  0  0
    0.5184   26.8439   10.8301 C   0  0  0  0  0  0
    0.6332   27.7859   11.7760 N   0  0  0  0  0  0
   -0.3777   28.5957   12.0993 C   0  0  0  0  0  0
   -0.3421   29.4520   12.9759 O   0  0  0  0  0  0
    1.3601   26.0071   10.4103 N   0  0  0  0  0  0
    3.1973   29.0523    6.4080 O   0  0  0  0  0  0
    4.1743   28.0740    6.3654 C   0  0  0  0  0  0
    4.4599   27.5297    5.1128 C   0  0  0  0  0  0
    5.3988   26.5084    4.9835 C   0  0  0  0  0  0
    6.0597   26.0299    6.1142 C   0  0  0  0  0  0
    5.7895   26.5654    7.3702 C   0  0  0  0  0  0
    4.8545   27.5866    7.4963 C   0  0  0  0  0  0
    7.2239   24.7655    5.9637 Cl  0  0  0  0  0  0
   -3.0180   29.4145    9.9707 H   0  0  0  0  0  0
   -2.3993   30.3238   11.2896 H   0  0  0  0  0  0
    3.7131   30.0263    8.1547 H   0  0  0  0  0  0
    2.4724   28.7704    8.3200 H   0  0  0  0  0  0
   -2.3782   27.9746   11.8969 H   0  0  0  0  0  0
    2.2602   26.0879   10.8636 H   0  0  0  0  0  0
    1.4912   27.8528   12.3148 H   0  0  0  0  0  0
    3.9437   27.8968    4.2388 H   0  0  0  0  0  0
    5.6119   26.0902    4.0103 H   0  0  0  0  0  0
    6.2983   26.1919    8.2474 H   0  0  0  0  0  0
    4.6658   27.9716    8.4864 H   0  0  0  0  0  0
  1  3  2  0  0  0
  1  5  1  0  0  0
  1 10  1  0  0  0
  2  4  2  0  0  0
  2  3  1  0  0  0
  4  8  1  0  0  0
  4  5  1  0  0  0
  5  6  1  0  0  0
  6  7  2  0  0  0
  7  8  1  0  0  0
  7  9  1  0  0  0
  9 26  1  0  0  0
  9 27  1  0  0  0
  9 11  1  0  0  0
 10 18  1  0  0  0
 10 28  1  0  0  0
 10 29  1  0  0  0
 11 15  1  0  0  0
 11 30  1  0  0  0
 11 12  1  0  0  0
 12 13  1  0  0  0
 13 17  2  0  0  0
 13 14  1  0  0  0
 14 32  1  0  0  0
 14 15  1  0  0  0
 15 16  2  0  0  0
 17 31  1  0  0  0
 18 19  1  0  0  0
 19 20  2  0  0  0
 19 24  1  0  0  0
 20 21  1  0  0  0
 20 33  1  0  0  0
 21 22  2  0  0  0
 21 34  1  0  0  0
 22 23  1  0  0  0
 22 25  1  0  0  0
 23 24  2  0  0  0
 23 35  1  0  0  0
 24 36  1  0  0  0
M  END
> <s_m_entry_id>
33051

> <s_m_entry_name>
dock_pv.452

> <s_m_Source_Path>
/home/csk/Desktop/cluster/DUD-E-result/cdk2

> <s_m_Source_File>
dock_pv.maegz

> <i_m_Source_File_Index>
452

> <chembl_id>
CHEMBL559301

> <chembl_pref_name>
None

> <i_lp_mmshare_version>
53161

> <i_f3d_flags>
0

> <r_lp_tautomer_probability>
0.0180032141280447

> <s_lp_Force_Field>
OPLS_2005

> <r_lp_Energy>
22.621491

> <b_lp_Chiralities_Consistent>
1

> <s_lp_Variant>
CHEMBL301_lig898-3

> <s_i_glide_gridfile>
glide-grid_1h00

> <i_i_glide_lignum>
1264

> <i_i_glide_rotatable_bonds>
5

> <r_i_docking_score>
-7.13632788267057

> <r_i_glide_ligand_efficiency>
-0.285453115306823

> <r_i_glide_ligand_efficiency_sa>
-0.834669971689706

> <r_i_glide_ligand_efficiency_ln>
-1.69152356668225

> <r_i_glide_gscore>
-7.13632788267057

> <r_i_glide_lipo>
-2.00126125464915

> <r_i_glide_hbond>
-0.32

> <r_i_glide_metal>
0

> <r_i_glide_rewards>
-2.40691971340762

> <r_i_glide_evdw>
-44.1057205200195

> <r_i_glide_ecoul>
-5.39032793045044

> <r_i_glide_erotb>
0.626915396168667

> <r_i_glide_esite>
-0.0212270952139284

> <r_i_glide_emodel>
-70.2402741576399

> <r_i_glide_energy>
-49.49604845047

> <r_i_glide_einternal>
1.23859000205994

> <i_i_glide_confnum>
7

> <i_i_glide_posenum>
367

> <r_i_glide_eff_state_penalty>
0

> <s_user_duplicate_titles>
CHEMBL301_lig898,567525

> <s_m_subgroup_title>
dock_pv

> <s_m_subgroupid>
dock_pv

> <b_m_subgroup_collapsed>
1

$$$$
CHEMBL301_lig1040
                    3D
 Schrodinger Suite 2021-1.
 44 47  0  0  1  0            999 V2000
   -0.5364   24.9945   13.3513 N   0  0  0  0  0  0
   -1.9417   24.7116   13.0353 C   0  0  0  0  0  0
   -2.8018   25.3206   14.1438 C   0  0  1  0  0  0
   -1.9656   26.5262   14.5429 C   0  0  2  0  0  0
   -0.5739   25.9091   14.4957 C   0  0  0  0  0  0
   -2.3409   27.1056   15.7763 O   0  0  0  0  0  0
   -4.1416   25.5883   13.7761 O   0  0  0  0  0  0
    0.3540   25.1321   12.2871 C   0  0  0  0  0  0
    1.7601   30.0811    8.2583 N   0  0  0  0  0  0
    0.6223   29.8500    8.9682 C   0  0  0  0  0  0
    0.4702   28.7168    9.7759 C   0  0  0  0  0  0
    1.5505   27.8200    9.8554 C   0  0  0  0  0  0
    2.7280   28.0947    9.2210 N   0  0  0  0  0  0
    2.7722   29.2024    8.4431 C   0  0  0  0  0  0
    3.9637   29.4516    7.7763 N   0  0  0  0  0  0
    1.4220   26.4865   10.5436 C   0  0  0  0  0  0
    0.5816   26.3643   11.6627 C   0  0  0  0  0  0
    0.9345   23.9834   11.7565 C   0  0  0  0  0  0
    1.7792   24.0693   10.6586 C   0  0  0  0  0  0
    2.0356   25.3049   10.0663 C   0  0  0  0  0  0
    2.8581   25.2900    8.9752 O   0  0  0  0  0  0
   -0.4616   30.9137    8.8249 C   0  0  0  0  0  0
   -1.9390   30.6529    9.0662 C   0  0  0  0  0  0
   -1.1486   31.4861   10.0402 C   0  0  0  0  0  0
   -2.2065   25.2242   12.1064 H   0  0  0  0  0  0
   -2.1451   23.6433   12.9779 H   0  0  0  0  0  0
   -2.8343   24.6083   14.9707 H   0  0  0  0  0  0
   -2.0165   27.3051   13.7761 H   0  0  0  0  0  0
   -0.4474   25.2838   15.3758 H   0  0  0  0  0  0
    0.2213   26.6580   14.4985 H   0  0  0  0  0  0
   -3.1446   27.6143   15.5929 H   0  0  0  0  0  0
   -4.3416   25.0678   12.9874 H   0  0  0  0  0  0
   -0.4614   28.5253   10.2854 H   0  0  0  0  0  0
    4.0575   30.2695    7.1800 H   0  0  0  0  0  0
    4.7269   28.8060    7.9050 H   0  0  0  0  0  0
    0.0969   27.2405   12.0656 H   0  0  0  0  0  0
    0.7306   23.0206   12.2015 H   0  0  0  0  0  0
    2.2230   23.1689   10.2582 H   0  0  0  0  0  0
    2.8202   24.4651    8.4834 H   0  0  0  0  0  0
   -0.2388   31.6446    8.0468 H   0  0  0  0  0  0
   -2.2664   29.6593    9.3778 H   0  0  0  0  0  0
   -2.6653   31.1434    8.4178 H   0  0  0  0  0  0
   -1.3233   32.5605   10.0911 H   0  0  0  0  0  0
   -0.9110   31.0573   11.0143 H   0  0  0  0  0  0
  1  5  1  0  0  0
  1  8  1  0  0  0
  1  2  1  0  0  0
  2  3  1  0  0  0
  2 25  1  0  0  0
  2 26  1  0  0  0
  3  7  1  0  0  0
  3  4  1  0  0  0
  3 27  1  0  0  0
  4  6  1  0  0  0
  4  5  1  0  0  0
  4 28  1  0  0  0
  5 29  1  0  0  0
  5 30  1  0  0  0
  6 31  1  0  0  0
  7 32  1  0  0  0
  8 17  1  0  0  0
  8 18  2  0  0  0
  9 14  1  0  0  0
  9 10  2  0  0  0
 10 11  1  0  0  0
 10 22  1  0  0  0
 11 12  2  0  0  0
 11 33  1  0  0  0
 12 13  1  0  0  0
 12 16  1  0  0  0
 13 14  2  0  0  0
 14 15  1  0  0  0
 15 34  1  0  0  0
 15 35  1  0  0  0
 16 17  2  0  0  0
 16 20  1  0  0  0
 17 36  1  0  0  0
 18 19  1  0  0  0
 18 37  1  0  0  0
 19 20  2  0  0  0
 19 38  1  0  0  0
 20 21  1  0  0  0
 21 39  1  0  0  0
 22 23  1  0  0  0
 22 24  1  0  0  0
 22 40  1  0  0  0
 23 24  1  0  0  0
 23 41  1  0  0  0
 23 42  1  0  0  0
 24 43  1  0  0  0
 24 44  1  0  0  0
M  END
> <s_m_entry_id>
33052

> <s_m_entry_name>
dock_pv.453

> <s_m_Source_Path>
/home/csk/Desktop/cluster/DUD-E-result/cdk2

> <s_m_Source_File>
dock_pv.maegz

> <i_m_Source_File_Index>
453

> <chembl_id>
CHEMBL1800454

> <chembl_pref_name>
None

> <i_lp_mmshare_version>
53161

> <i_f3d_flags>
0

> <r_lp_tautomer_probability>
0.999999987633365

> <s_lp_Force_Field>
OPLS_2005

> <r_lp_Energy>
42.308077

> <b_lp_Chiralities_Consistent>
1

> <s_lp_Variant>
CHEMBL301_lig1040-1

> <s_i_glide_gridfile>
glide-grid_1h00

> <i_i_glide_lignum>
1441

> <i_i_glide_rotatable_bonds>
6

> <r_i_docking_score>
-7.13125816853449

> <r_i_glide_ligand_efficiency>
-0.29713575702227

> <r_i_glide_ligand_efficiency_sa>
-0.857087834868715

> <r_i_glide_ligand_efficiency_ln>
-1.70683731184493

> <r_i_glide_gscore>
-7.13125816853449

> <r_i_glide_lipo>
-1.77537311345825

> <r_i_glide_hbond>
-0.46673032288008

> <r_i_glide_metal>
0

> <r_i_glide_rewards>
-1.874358048877

> <r_i_glide_evdw>
-34.2479019165039

> <r_i_glide_ecoul>
-12.1662397384644

> <r_i_glide_erotb>
0.522534373275693

> <r_i_glide_esite>
0

> <r_i_glide_emodel>
-63.5324569042144

> <r_i_glide_energy>
-46.4141416549683

> <r_i_glide_einternal>
7.2750940322876

> <i_i_glide_confnum>
11

> <i_i_glide_posenum>
123

> <r_i_glide_eff_state_penalty>
0

> <s_user_duplicate_titles>
CHEMBL301_lig1040

> <s_m_subgroup_title>
dock_pv

> <s_m_subgroupid>
dock_pv

> <b_m_subgroup_collapsed>
1

$$$$
CHEMBL301_lig137
                    3D
 Schrodinger Suite 2021-1.
 49 52  0  0  1  0            999 V2000
    0.2928   30.6459    8.6172 C   0  0  0  0  0  0
    0.6559   29.4522    9.2004 C   0  0  0  0  0  0
    2.1415   29.7438    7.5854 C   0  0  0  0  0  0
    1.7942   28.9562    8.6280 O   0  0  0  0  0  0
    1.2591   30.9060    7.5587 C   0  0  0  0  0  0
    6.5835   24.8719    6.3175 N   0  3  0  0  0  0
   -0.0748   28.8713   10.2492 C   0  0  0  0  0  0
   -0.7943   31.3624    9.1052 C   0  0  0  0  0  0
   -1.1798   29.6089   10.7306 C   0  0  0  0  0  0
   -1.5296   30.8396   10.1650 C   0  0  0  0  0  0
    3.1146   29.4532    6.6921 C   0  0  0  0  0  0
    5.7040   26.0592    6.4314 C   0  0  0  0  0  0
    0.8296   24.5809   10.8083 N   0  0  2  0  0  0
    7.1420   24.6524    5.2428 O   0  5  0  0  0  0
    0.2430   27.4894   10.8591 C   0  0  0  0  0  0
    6.7194   24.1471    7.3026 O   0  0  0  0  0  0
    1.3711   31.8762    6.8134 O   0  0  0  0  0  0
    4.0377   28.2997    6.6515 C   0  0  0  0  0  0
    5.2785   26.7392    5.2840 C   0  0  0  0  0  0
    5.2863   26.5145    7.6864 C   0  0  0  0  0  0
   -0.8112   26.4289   10.4649 C   0  0  0  0  0  0
    1.6550   26.9144   10.5804 C   0  0  0  0  0  0
    1.8569   25.5375   11.2432 C   0  0  0  0  0  0
   -0.5301   25.0518   11.0984 C   0  0  0  0  0  0
   -1.1204   32.5807    8.5769 O   0  0  0  0  0  0
   -1.9397   29.1512   11.7762 O   0  0  0  0  0  0
    4.4571   27.8534    5.3976 C   0  0  0  0  0  0
    4.4564   27.6271    7.8014 C   0  0  0  0  0  0
    1.0599   23.2651   11.3901 C   0  0  0  0  0  0
   -2.3712   31.3960   10.5514 H   0  0  0  0  0  0
    3.2576   30.1533    5.8822 H   0  0  0  0  0  0
    0.1820   27.6523   11.9373 H   0  0  0  0  0  0
    5.5859   26.4113    4.3012 H   0  0  0  0  0  0
    5.6075   26.0001    8.5764 H   0  0  0  0  0  0
   -1.7964   26.7291   10.8241 H   0  0  0  0  0  0
   -0.8932   26.3257    9.3826 H   0  0  0  0  0  0
    1.8462   26.7885    9.5154 H   0  0  0  0  0  0
    2.4188   27.5850   10.9760 H   0  0  0  0  0  0
    1.8406   25.6208   12.3304 H   0  0  0  0  0  0
    2.8448   25.1557   10.9779 H   0  0  0  0  0  0
   -0.6862   25.0864   12.1781 H   0  0  0  0  0  0
   -1.2470   24.3276   10.7077 H   0  0  0  0  0  0
   -0.4907   32.8658    7.9093 H   0  0  0  0  0  0
   -2.6163   29.7708   12.0783 H   0  0  0  0  0  0
    4.1365   28.3590    4.4975 H   0  0  0  0  0  0
    4.1448   27.9508    8.7830 H   0  0  0  0  0  0
    2.0485   22.8921   11.1165 H   0  0  0  0  0  0
    0.9941   23.2884   12.4794 H   0  0  0  0  0  0
    0.3272   22.5446   11.0207 H   0  0  0  0  0  0
  1  2  1  0  0  0
  1  5  1  0  0  0
  1  8  2  0  0  0
  2  4  1  0  0  0
  2  7  2  0  0  0
  3  5  1  0  0  0
  3 11  2  0  0  0
  3  4  1  0  0  0
  5 17  2  0  0  0
  6 12  1  0  0  0
  6 14  1  0  0  0
  6 16  2  0  0  0
  7 15  1  0  0  0
  7  9  1  0  0  0
  8 10  1  0  0  0
  8 25  1  0  0  0
  9 10  2  0  0  0
  9 26  1  0  0  0
 10 30  1  0  0  0
 11 18  1  0  0  0
 11 31  1  0  0  0
 12 20  2  0  0  0
 12 19  1  0  0  0
 13 23  1  0  0  0
 13 29  1  0  0  0
 13 24  1  0  0  0
 15 21  1  0  0  0
 15 22  1  0  0  0
 15 32  1  0  0  0
 18 27  1  0  0  0
 18 28  2  0  0  0
 19 27  2  0  0  0
 19 33  1  0  0  0
 20 28  1  0  0  0
 20 34  1  0  0  0
 21 24  1  0  0  0
 21 35  1  0  0  0
 21 36  1  0  0  0
 22 23  1  0  0  0
 22 37  1  0  0  0
 22 38  1  0  0  0
 23 39  1  0  0  0
 23 40  1  0  0  0
 24 41  1  0  0  0
 24 42  1  0  0  0
 25 43  1  0  0  0
 26 44  1  0  0  0
 27 45  1  0  0  0
 28 46  1  0  0  0
 29 47  1  0  0  0
 29 48  1  0  0  0
 29 49  1  0  0  0
M  CHG  2   6   1  14  -1
M  END
> <s_m_entry_id>
33053

> <s_m_entry_name>
dock_pv.454

> <s_m_Source_Path>
/home/csk/Desktop/cluster/DUD-E-result/cdk2

> <s_m_Source_File>
dock_pv.maegz

> <i_m_Source_File_Index>
454

> <chembl_id>
CHEMBL45477

> <chembl_pref_name>
None

> <i_lp_mmshare_version>
53161

> <i_f3d_flags>
0

> <r_lp_tautomer_probability>
1

> <s_lp_Force_Field>
OPLS_2005

> <r_lp_Energy>
41.836984

> <b_lp_Chiralities_Consistent>
1

> <s_lp_Variant>
CHEMBL301_lig137-1

> <s_i_glide_gridfile>
glide-grid_1h00

> <i_i_glide_lignum>
276

> <i_i_glide_rotatable_bonds>
5

> <r_i_docking_score>
-7.13087363276583

> <r_i_glide_ligand_efficiency>
-0.245892194233304

> <r_i_glide_ligand_efficiency_sa>
-0.755458724799843

> <r_i_glide_ligand_efficiency_ln>
-1.63278923854991

> <r_i_glide_gscore>
-7.13087363276583

> <r_i_glide_lipo>
-3.08394117744588

> <r_i_glide_hbond>
-0.253587743015022

> <r_i_glide_metal>
0

> <r_i_glide_rewards>
-1.27277150112949

> <r_i_glide_evdw>
-38.9497032165527

> <r_i_glide_ecoul>
-5.47815942764282

> <r_i_glide_erotb>
0.249025524643953

> <r_i_glide_esite>
-0.000389660845328492

> <r_i_glide_emodel>
-63.2014704970186

> <r_i_glide_energy>
-44.4278626441956

> <r_i_glide_einternal>
4.28493547439575

> <i_i_glide_confnum>
1

> <i_i_glide_posenum>
13

> <r_i_glide_eff_state_penalty>
0

> <s_user_duplicate_titles>
CHEMBL301_lig137,73337

> <s_m_subgroup_title>
dock_pv

> <s_m_subgroupid>
dock_pv

> <b_m_subgroup_collapsed>
1

$$$$
CHEMBL301_lig187
                    3D
 Schrodinger Suite 2021-1.
 34 36  0  0  1  0            999 V2000
   -1.6321   29.6318   10.5188 C   0  0  0  0  0  0
   -2.3097   30.8228   10.2320 C   0  0  0  0  0  0
   -1.7731   31.7368    9.3199 C   0  0  0  0  0  0
   -0.4209   29.3453    9.8889 C   0  0  0  0  0  0
    0.1058   30.2521    8.9687 C   0  0  0  0  0  0
   -0.5620   31.4291    8.6989 C   0  0  0  0  0  0
    0.1727   32.1525    7.7878 N   0  0  0  0  0  0
    1.2580   31.4829    7.3760 C   0  0  0  0  0  0
    1.3139   30.2520    8.1761 C   0  0  0  0  0  0
    2.0576   31.8520    6.5212 O   0  0  0  0  0  0
    2.2400   29.3727    8.1937 N   0  0  0  0  0  0
    3.3227   29.4519    7.3141 N   0  0  0  0  0  0
    4.1697   28.3817    7.0366 C   0  0  0  0  0  0
    4.7526   27.6498    8.0707 C   0  0  0  0  0  0
    5.6827   26.6606    7.7762 C   0  0  0  0  0  0
    6.0153   26.3920    6.4517 C   0  0  0  0  0  0
    5.3605   27.0518    5.4104 C   0  0  0  0  0  0
    4.4579   28.0694    5.7077 C   0  0  0  0  0  0
    7.3635   25.2731    6.1201 S   0  0  0  0  0  0
    8.1099   25.8520    4.6555 N   0  0  0  0  0  0
    8.3381   25.4516    7.2017 O   0  0  0  0  0  0
    6.7678   23.9659    5.8320 O   0  0  0  0  0  0
   -2.3429   28.3866   11.7687 Br  0  0  0  0  0  0
   -3.2421   31.0430   10.7314 H   0  0  0  0  0  0
   -2.2964   32.6592    9.1133 H   0  0  0  0  0  0
    0.0966   28.4253   10.1204 H   0  0  0  0  0  0
   -0.0697   33.0706    7.4410 H   0  0  0  0  0  0
    3.2419   30.2060    6.6356 H   0  0  0  0  0  0
    4.5246   27.8784    9.1019 H   0  0  0  0  0  0
    6.1755   26.1350    8.5800 H   0  0  0  0  0  0
    5.6105   26.8408    4.3804 H   0  0  0  0  0  0
    4.0025   28.6295    4.9048 H   0  0  0  0  0  0
    8.9339   26.4394    4.8052 H   0  0  0  0  0  0
    8.2075   25.1562    3.9129 H   0  0  0  0  0  0
  1  2  2  0  0  0
  1  4  1  0  0  0
  1 23  1  0  0  0
  2  3  1  0  0  0
  2 24  1  0  0  0
  3  6  2  0  0  0
  3 25  1  0  0  0
  4  5  2  0  0  0
  4 26  1  0  0  0
  5  9  1  0  0  0
  5  6  1  0  0  0
  6  7  1  0  0  0
  7  8  1  0  0  0
  7 27  1  0  0  0
  8  9  1  0  0  0
  8 10  2  0  0  0
  9 11  2  0  0  0
 11 12  1  0  0  0
 12 13  1  0  0  0
 12 28  1  0  0  0
 13 14  2  0  0  0
 13 18  1  0  0  0
 14 15  1  0  0  0
 14 29  1  0  0  0
 15 16  2  0  0  0
 15 30  1  0  0  0
 16 17  1  0  0  0
 16 19  1  0  0  0
 17 18  2  0  0  0
 17 31  1  0  0  0
 18 32  1  0  0  0
 19 20  1  0  0  0
 19 21  2  0  0  0
 19 22  2  0  0  0
 20 33  1  0  0  0
 20 34  1  0  0  0
M  END
> <s_m_entry_id>
33054

> <s_m_entry_name>
dock_pv.455

> <s_m_Source_Path>
/home/csk/Desktop/cluster/DUD-E-result/cdk2

> <s_m_Source_File>
dock_pv.maegz

> <i_m_Source_File_Index>
455

> <chembl_id>
CHEMBL411491

> <chembl_pref_name>
None

> <i_lp_mmshare_version>
53161

> <i_f3d_flags>
0

> <r_lp_tautomer_probability>
1

> <s_lp_Force_Field>
OPLS_2005

> <r_lp_Energy>
43.228785

> <b_lp_Chiralities_Consistent>
1

> <s_lp_Variant>
CHEMBL301_lig187-1

> <s_i_glide_gridfile>
glide-grid_1h00

> <i_i_glide_lignum>
328

> <i_i_glide_rotatable_bonds>
3

> <r_i_docking_score>
-7.13086022353665

> <r_i_glide_ligand_efficiency>
-0.310037401023333

> <r_i_glide_ligand_efficiency_sa>
-0.881705126367727

> <r_i_glide_ligand_efficiency_ln>
-1.72430666111681

> <r_i_glide_gscore>
-7.13086022353665

> <r_i_glide_lipo>
-2.04918327733102

> <r_i_glide_hbond>
-0.474359156099914

> <r_i_glide_metal>
0

> <r_i_glide_rewards>
-2.05042847362231

> <r_i_glide_evdw>
-35.904541015625

> <r_i_glide_ecoul>
-6.55591344833374

> <r_i_glide_erotb>
0.250342741579328

> <r_i_glide_esite>
-0.0286179900314324

> <r_i_glide_emodel>
-57.856836438331

> <r_i_glide_energy>
-42.4604544639587

> <r_i_glide_einternal>
5.30168342590332

> <i_i_glide_confnum>
1

> <i_i_glide_posenum>
29

> <r_i_glide_eff_state_penalty>
0

> <s_user_duplicate_titles>
CHEMBL301_lig187,441086

> <s_m_subgroup_title>
dock_pv

> <s_m_subgroupid>
dock_pv

> <b_m_subgroup_collapsed>
1

$$$$
CHEMBL301_lig859
                    3D
 Schrodinger Suite 2021-1.
 43 45  0  0  1  0            999 V2000
    3.6850   29.4520    7.5655 N   0  0  0  0  0  0
    4.2104   28.3445    8.1752 C   0  0  0  0  0  0
    3.2582   27.8121    9.0182 C   0  0  0  0  0  0
    2.0914   28.6704    8.9760 C   0  0  0  0  0  0
    1.5948   30.6517    7.5957 N   0  0  0  0  0  0
    2.4077   29.6807    8.0176 C   0  0  0  0  0  0
    0.7747   28.7343    9.5243 C   0  0  0  0  0  0
   -0.0740   29.7124    9.0895 N   0  0  0  0  0  0
    0.3737   30.6056    8.1768 C   0  0  0  0  0  0
    0.2699   27.7689   10.4427 N   0  0  0  0  0  0
    1.2181   27.3026   11.4409 C   0  0  0  0  0  0
   -1.1798   27.6672   10.7648 C   0  0  2  0  0  0
   -1.3939   27.5172   13.3377 C   0  0  0  0  0  0
   -1.6239   28.3941   12.0795 C   0  0  1  0  0  0
   -1.6748   26.1895   10.7180 C   0  0  0  0  0  0
   -1.3932   25.5066   12.0006 N   0  0  0  0  0  0
   -1.9977   26.1058   13.1992 C   0  0  0  0  0  0
   -1.0885   29.8256   12.2709 C   0  0  0  0  0  0
   -0.7426   24.3164   12.0102 C   0  0  0  0  0  0
   -0.3894   23.7612   10.9760 O   0  0  0  0  0  0
   -0.2944   23.6694   13.3227 C   0  0  0  0  0  0
    0.7787   22.6726   13.1393 C   0  0  0  0  0  0
    1.6211   21.8934   12.9764 N   0  0  0  0  0  0
    4.1902   30.0180    6.8904 H   0  0  0  0  0  0
    5.2107   28.0112    7.9326 H   0  0  0  0  0  0
    3.4165   26.8931    9.5606 H   0  0  0  0  0  0
   -0.3234   31.3773    7.8875 H   0  0  0  0  0  0
    2.2344   27.1432   11.1213 H   0  0  0  0  0  0
    1.2581   28.0978   12.1759 H   0  0  0  0  0  0
    0.9190   26.3885   11.9382 H   0  0  0  0  0  0
   -1.7166   28.1589    9.9544 H   0  0  0  0  0  0
   -1.8489   28.0043   14.1994 H   0  0  0  0  0  0
   -0.3382   27.4530   13.5986 H   0  0  0  0  0  0
   -2.7074   28.4959   11.9828 H   0  0  0  0  0  0
   -1.2354   25.6849    9.8550 H   0  0  0  0  0  0
   -2.7525   26.1726   10.5767 H   0  0  0  0  0  0
   -3.0721   26.1844   13.0225 H   0  0  0  0  0  0
   -1.8725   25.5134   14.1055 H   0  0  0  0  0  0
   -0.0049   29.8585   12.3728 H   0  0  0  0  0  0
   -1.3662   30.4637   11.4321 H   0  0  0  0  0  0
   -1.5138   30.2743   13.1686 H   0  0  0  0  0  0
   -1.1445   23.1620   13.7774 H   0  0  0  0  0  0
    0.0579   24.4239   14.0241 H   0  0  0  0  0  0
  1  6  1  0  0  0
  1  2  1  0  0  0
  1 24  1  0  0  0
  2  3  2  0  0  0
  2 25  1  0  0  0
  3  4  1  0  0  0
  3 26  1  0  0  0
  4  7  1  0  0  0
  4  6  2  0  0  0
  5  6  1  0  0  0
  5  9  2  0  0  0
  7  8  2  0  0  0
  7 10  1  0  0  0
  8  9  1  0  0  0
  9 27  1  0  0  0
 10 11  1  0  0  0
 10 12  1  0  0  0
 11 28  1  0  0  0
 11 29  1  0  0  0
 11 30  1  0  0  0
 12 14  1  0  0  0
 12 15  1  0  0  0
 12 31  1  0  0  0
 13 14  1  0  0  0
 13 17  1  0  0  0
 13 32  1  0  0  0
 13 33  1  0  0  0
 14 18  1  0  0  0
 14 34  1  0  0  0
 15 16  1  0  0  0
 15 35  1  0  0  0
 15 36  1  0  0  0
 16 17  1  0  0  0
 16 19  1  0  0  0
 17 37  1  0  0  0
 17 38  1  0  0  0
 18 39  1  0  0  0
 18 40  1  0  0  0
 18 41  1  0  0  0
 19 20  2  0  0  0
 19 21  1  0  0  0
 21 22  1  0  0  0
 21 42  1  0  0  0
 21 43  1  0  0  0
 22 23  3  0  0  0
M  END
> <s_m_entry_id>
33055

> <s_m_entry_name>
dock_pv.456

> <s_m_Source_Path>
/home/csk/Desktop/cluster/DUD-E-result/cdk2

> <s_m_Source_File>
dock_pv.maegz

> <i_m_Source_File_Index>
456

> <chembl_id>
CHEMBL221959

> <chembl_pref_name>
TOFACITINIB

> <i_lp_mmshare_version>
53161

> <i_f3d_flags>
0

> <r_lp_tautomer_probability>
0.999998369746258

> <s_lp_Force_Field>
OPLS_2005

> <r_lp_Energy>
35.175243

> <b_lp_Chiralities_Consistent>
1

> <s_lp_Variant>
CHEMBL301_lig859-1

> <s_i_glide_gridfile>
glide-grid_1h00

> <i_i_glide_lignum>
1217

> <i_i_glide_rotatable_bonds>
4

> <r_i_docking_score>
-7.13073342065807

> <r_i_glide_ligand_efficiency>
-0.310031887854699

> <r_i_glide_ligand_efficiency_sa>
-0.88168944764951

> <r_i_glide_ligand_efficiency_ln>
-1.72427599903098

> <r_i_glide_gscore>
-7.13073342065807

> <r_i_glide_lipo>
-1.46810350880453

> <r_i_glide_hbond>
-0.32

> <r_i_glide_metal>
0

> <r_i_glide_rewards>
-3.37329633296386

> <r_i_glide_evdw>
-30.7919273376465

> <r_i_glide_ecoul>
-6.66891622543335

> <r_i_glide_erotb>
0.570600221807648

> <r_i_glide_esite>
0

> <r_i_glide_emodel>
-52.5673979182116

> <r_i_glide_energy>
-37.4608435630798

> <r_i_glide_einternal>
3.63516163825989

> <i_i_glide_confnum>
24

> <i_i_glide_posenum>
329

> <r_i_glide_eff_state_penalty>
0

> <s_user_duplicate_titles>
CHEMBL301_lig859

> <s_m_subgroup_title>
dock_pv

> <s_m_subgroupid>
dock_pv

> <b_m_subgroup_collapsed>
1

$$$$
CHEMBL301_lig1326
                    3D
 Schrodinger Suite 2021-1.
 50 51  0  0  1  0            999 V2000
    6.5842   24.8456    4.6450 C   0  0  0  0  0  0
    7.3155   25.6355    5.7508 C   0  0  0  0  0  0
    6.3408   25.7480    7.3826 S   0  0  1  0  0  0
    5.4658   24.4923    7.3760 N   0  0  0  0  0  0
    7.2577   26.0961    8.4733 O   0  0  0  0  0  0
    5.1125   27.0522    7.2432 C   0  0  0  0  0  0
    4.8104   27.6278    6.0097 C   0  0  0  0  0  0
    3.8750   28.6527    5.9386 C   0  0  0  0  0  0
    3.2469   29.1250    7.0944 C   0  0  0  0  0  0
    2.3927   30.2353    6.9762 N   0  0  0  0  0  0
    1.2906   30.6874    7.7142 C   0  0  0  0  0  0
    0.9159   31.9668    7.4596 N   0  0  0  0  0  0
   -0.1290   32.4536    8.1760 C   0  0  0  0  0  0
   -0.8446   31.6718    9.0812 C   0  0  0  0  0  0
   -2.3311   32.4167   10.0201 Br  0  0  0  0  0  0
   -0.4110   30.3514    9.2652 C   0  0  0  0  0  0
   -1.1009   29.5324   10.1766 N   0  0  0  0  0  0
   -0.4574   28.3940   10.8396 C   0  0  2  0  0  0
   -0.4003   27.1770    9.8950 C   0  0  0  0  0  0
   -1.0763   28.0776   12.2417 C   0  0  0  0  0  0
   -1.0615   29.3095   13.1710 C   0  0  0  0  0  0
   -2.4981   27.4800   12.1627 C   0  0  0  0  0  0
   -0.2788   27.1030   12.8897 O   0  0  0  0  0  0
    0.6750   29.8626    8.5990 N   0  0  0  0  0  0
    3.5349   28.5371    8.3253 C   0  0  0  0  0  0
    4.4591   27.4994    8.3944 C   0  0  0  0  0  0
    7.1313   24.8983    3.7038 H   0  0  0  0  0  0
    6.4921   23.7913    4.9049 H   0  0  0  0  0  0
    5.5789   25.2223    4.4598 H   0  0  0  0  0  0
    7.5517   26.6514    5.4399 H   0  0  0  0  0  0
    8.2604   25.1500    5.9915 H   0  0  0  0  0  0
    6.0051   23.6500    7.2567 H   0  0  0  0  0  0
    5.3042   27.3136    5.1046 H   0  0  0  0  0  0
    3.6691   29.1060    4.9803 H   0  0  0  0  0  0
    2.7574   30.9329    6.3433 H   0  0  0  0  0  0
   -0.4048   33.4810    7.9876 H   0  0  0  0  0  0
   -1.8417   29.9856   10.6941 H   0  0  0  0  0  0
    0.5781   28.6910   11.0200 H   0  0  0  0  0  0
    0.1446   26.3424   10.3361 H   0  0  0  0  0  0
   -1.3909   26.8251    9.6084 H   0  0  0  0  0  0
    0.1075   27.4519    8.9763 H   0  0  0  0  0  0
   -1.5955   30.1534   12.7365 H   0  0  0  0  0  0
   -0.0480   29.6515   13.3745 H   0  0  0  0  0  0
   -1.5420   29.0947   14.1269 H   0  0  0  0  0  0
   -3.2115   28.2028   11.7655 H   0  0  0  0  0  0
   -2.5419   26.5874   11.5394 H   0  0  0  0  0  0
   -2.8519   27.1769   13.1480 H   0  0  0  0  0  0
    0.6208   27.4392   12.9755 H   0  0  0  0  0  0
    3.0657   28.8905    9.2306 H   0  0  0  0  0  0
    4.6707   27.0532    9.3511 H   0  0  0  0  0  0
  1  2  1  0  0  0
  1 27  1  0  0  0
  1 28  1  0  0  0
  1 29  1  0  0  0
  2  3  1  0  0  0
  2 30  1  0  0  0
  2 31  1  0  0  0
  3  4  2  0  0  0
  3  5  2  0  0  0
  3  6  1  0  0  0
  4 32  1  0  0  0
  6  7  2  0  0  0
  6 26  1  0  0  0
  7  8  1  0  0  0
  7 33  1  0  0  0
  8  9  2  0  0  0
  8 34  1  0  0  0
  9 10  1  0  0  0
  9 25  1  0  0  0
 10 11  1  0  0  0
 10 35  1  0  0  0
 11 12  2  0  0  0
 11 24  1  0  0  0
 12 13  1  0  0  0
 13 14  2  0  0  0
 13 36  1  0  0  0
 14 15  1  0  0  0
 14 16  1  0  0  0
 16 17  1  0  0  0
 16 24  2  0  0  0
 17 18  1  0  0  0
 17 37  1  0  0  0
 18 19  1  0  0  0
 18 20  1  0  0  0
 18 38  1  0  0  0
 19 39  1  0  0  0
 19 40  1  0  0  0
 19 41  1  0  0  0
 20 21  1  0  0  0
 20 22  1  0  0  0
 20 23  1  0  0  0
 21 42  1  0  0  0
 21 43  1  0  0  0
 21 44  1  0  0  0
 22 45  1  0  0  0
 22 46  1  0  0  0
 22 47  1  0  0  0
 23 48  1  0  0  0
 25 26  2  0  0  0
 25 49  1  0  0  0
 26 50  1  0  0  0
M  END
> <s_m_entry_id>
33056

> <s_m_entry_name>
dock_pv.457

> <s_m_Source_Path>
/home/csk/Desktop/cluster/DUD-E-result/cdk2

> <s_m_Source_File>
dock_pv.maegz

> <i_m_Source_File_Index>
457

> <chembl_id>
CHEMBL3648123

> <chembl_pref_name>
None

> <i_lp_mmshare_version>
53161

> <i_f3d_flags>
0

> <r_lp_tautomer_probability>
0.999999624730965

> <s_lp_Force_Field>
OPLS_2005

> <r_lp_Energy>
10.049534

> <b_lp_Chiralities_Consistent>
1

> <s_lp_Variant>
CHEMBL301_lig1326-1

> <s_i_glide_gridfile>
glide-grid_1h00

> <i_i_glide_lignum>
1748

> <i_i_glide_rotatable_bonds>
8

> <r_i_docking_score>
-7.12933279144882

> <r_i_glide_ligand_efficiency>
-0.274205107363416

> <r_i_glide_ligand_efficiency_sa>
-0.812331551619123

> <r_i_glide_ligand_efficiency_ln>
-1.67430041282283

> <r_i_glide_gscore>
-7.12933279144882

> <r_i_glide_lipo>
-2.68155285058485

> <r_i_glide_hbond>
-0.472006153310714

> <r_i_glide_metal>
0

> <r_i_glide_rewards>
-1.28922027966173

> <r_i_glide_evdw>
-40.5060157775879

> <r_i_glide_ecoul>
-9.1735725402832

> <r_i_glide_erotb>
0.714783162030355

> <r_i_glide_esite>
0

> <r_i_glide_emodel>
-66.1059819605536

> <r_i_glide_energy>
-49.6795883178711

> <r_i_glide_einternal>
6.15681219100952

> <i_i_glide_confnum>
158

> <i_i_glide_posenum>
350

> <r_i_glide_eff_state_penalty>
0

> <s_user_duplicate_titles>
CHEMBL301_lig1326

> <s_m_subgroup_title>
dock_pv

> <s_m_subgroupid>
dock_pv

> <b_m_subgroup_collapsed>
1

$$$$
CHEMBL301_lig192
                    3D
 Schrodinger Suite 2021-1.
 38 41  0  0  1  0            999 V2000
    0.9317   29.4957    9.0268 C   0  0  0  0  0  0
    0.8931   30.6135    8.0079 C   0  0  0  0  0  0
   -0.2895   29.5235    9.6622 C   0  0  0  0  0  0
   -0.7438   28.5793   10.6041 C   0  0  0  0  0  0
    0.1941   27.5534   10.9530 C   0  0  0  0  0  0
    1.8486   28.4844    9.3755 C   0  0  0  0  0  0
   -0.2790   31.2388    8.2367 N   0  0  0  0  0  0
   -1.0360   30.5787    9.1861 C   0  0  0  0  0  0
    1.4686   27.5565   10.3660 C   0  0  0  0  0  0
   -0.1869   26.1271   12.0420 S   0  0  2  0  0  0
    3.1468   28.2524    8.6614 C   0  0  0  0  0  0
    3.7316   27.0058    8.5760 N   0  0  0  0  0  0
   -2.0908   28.7623   11.0438 C   0  0  0  0  0  0
    1.6999   30.9427    7.1449 O   0  0  0  0  0  0
   -2.3275   30.7714    9.6577 C   0  0  0  0  0  0
    3.9784   29.0882    7.9234 C   0  0  0  0  0  0
   -1.4820   25.4944   11.5288 O   0  0  0  0  0  0
    4.8354   27.0266    7.7702 C   0  0  0  0  0  0
    4.9676   28.3179    7.3142 C   0  0  0  0  0  0
   -2.8432   29.8517   10.5755 C   0  0  0  0  0  0
   -0.5300   27.0531   13.6150 C   0  0  0  0  0  0
   -2.6938   27.8819   11.8695 F   0  0  0  0  0  0
   -2.1782   27.0518   15.5108 N   0  0  0  0  0  0
   -1.4037   26.2422   14.5864 C   0  0  0  0  0  0
   -0.5730   32.0576    7.7264 H   0  0  0  0  0  0
    2.1553   26.7709   10.6472 H   0  0  0  0  0  0
    3.3794   26.1774    9.0308 H   0  0  0  0  0  0
   -2.9414   31.5899    9.3104 H   0  0  0  0  0  0
    3.8643   30.1508    7.7794 H   0  0  0  0  0  0
    5.3981   26.1254    7.5767 H   0  0  0  0  0  0
    5.7043   28.6797    6.6190 H   0  0  0  0  0  0
   -3.8544   29.9744   10.9332 H   0  0  0  0  0  0
    0.4495   27.1232   14.0859 H   0  0  0  0  0  0
   -0.8069   28.1036   13.5289 H   0  0  0  0  0  0
   -2.6584   27.7819   14.9773 H   0  0  0  0  0  0
   -2.9290   26.4993   15.8951 H   0  0  0  0  0  0
   -2.1739   25.8114   13.9447 H   0  0  0  0  0  0
   -0.9801   25.2909   14.9090 H   0  0  0  0  0  0
  1  2  1  0  0  0
  1  3  2  0  0  0
  1  6  1  0  0  0
  2  7  1  0  0  0
  2 14  2  0  0  0
  3  4  1  0  0  0
  3  8  1  0  0  0
  4 13  1  0  0  0
  4  5  2  0  0  0
  5  9  1  0  0  0
  5 10  1  0  0  0
  6  9  2  0  0  0
  6 11  1  0  0  0
  7  8  1  0  0  0
  7 25  1  0  0  0
  8 15  2  0  0  0
  9 26  1  0  0  0
 10 17  2  0  0  0
 10 21  1  0  0  0
 11 12  1  0  0  0
 11 16  2  0  0  0
 12 18  1  0  0  0
 12 27  1  0  0  0
 13 22  1  0  0  0
 13 20  2  0  0  0
 15 20  1  0  0  0
 15 28  1  0  0  0
 16 19  1  0  0  0
 16 29  1  0  0  0
 18 19  2  0  0  0
 18 30  1  0  0  0
 19 31  1  0  0  0
 20 32  1  0  0  0
 21 24  1  0  0  0
 21 33  1  0  0  0
 21 34  1  0  0  0
 23 24  1  0  0  0
 23 35  1  0  0  0
 23 36  1  0  0  0
 24 37  1  0  0  0
 24 38  1  0  0  0
M  END
> <s_m_entry_id>
33057

> <s_m_entry_name>
dock_pv.458

> <s_m_Source_Path>
/home/csk/Desktop/cluster/DUD-E-result/cdk2

> <s_m_Source_File>
dock_pv.maegz

> <i_m_Source_File_Index>
458

> <chembl_id>
CHEMBL79356

> <chembl_pref_name>
None

> <i_lp_mmshare_version>
53161

> <i_f3d_flags>
0

> <r_lp_tautomer_probability>
1

> <s_lp_Force_Field>
OPLS_2005

> <r_lp_Energy>
52.962418

> <b_lp_Chiralities_Consistent>
1

> <s_lp_Variant>
CHEMBL301_lig192-1

> <s_i_glide_gridfile>
glide-grid_1h00

> <i_i_glide_lignum>
333

> <i_i_glide_rotatable_bonds>
4

> <r_i_docking_score>
-7.12932278371648

> <r_i_glide_ligand_efficiency>
-0.297055115988187

> <r_i_glide_ligand_efficiency_sa>
-0.856855225875449

> <r_i_glide_ligand_efficiency_ln>
-1.70637408544896

> <r_i_glide_gscore>
-7.12932278371648

> <r_i_glide_lipo>
-2.66170630385062

> <r_i_glide_hbond>
-0.310557711198555

> <r_i_glide_metal>
0

> <r_i_glide_rewards>
-1.72550894260028

> <r_i_glide_evdw>
-36.528621673584

> <r_i_glide_ecoul>
-6.76310729980469

> <r_i_glide_erotb>
0.482774592784915

> <r_i_glide_esite>
-0.0734272402020454

> <r_i_glide_emodel>
-60.6946776241284

> <r_i_glide_energy>
-43.2917289733887

> <r_i_glide_einternal>
4.67938089370728

> <i_i_glide_confnum>
24

> <i_i_glide_posenum>
77

> <r_i_glide_eff_state_penalty>
0

> <s_user_duplicate_titles>
CHEMBL301_lig192

> <s_m_subgroup_title>
dock_pv

> <s_m_subgroupid>
dock_pv

> <b_m_subgroup_collapsed>
1

$$$$
CHEMBL301_lig265
                    3D
 Schrodinger Suite 2021-1.
 52 54  0  0  1  0            999 V2000
    5.1177   24.3934    6.9803 Cl  0  0  0  0  0  0
    4.6456   25.9361    7.5918 C   0  0  0  0  0  0
    3.6582   26.0248    8.5758 C   0  0  0  0  0  0
    3.2582   27.2719    9.0596 C   0  0  0  0  0  0
    3.8781   28.4270    8.5761 C   0  0  0  0  0  0
    4.8579   28.3418    7.5891 C   0  0  0  0  0  0
    5.2435   27.0957    7.0960 C   0  0  0  0  0  0
    2.2611   27.2888   10.0411 N   0  0  0  0  0  0
    1.0996   28.0447   10.2240 C   0  0  0  0  0  0
    0.6857   29.1671    9.4741 C   0  0  0  0  0  0
    1.2174   29.8521    8.4118 N   0  0  0  0  0  0
   -0.5496   29.7408    9.8638 C   0  0  0  0  0  0
   -0.7224   30.8323    9.0289 N   0  0  0  0  0  0
   -1.8068   31.8149    9.0170 C   0  0  0  0  0  0
   -1.8329   32.6121   10.3326 C   0  0  0  0  0  0
   -3.1482   31.1183    8.7570 C   0  0  0  0  0  0
    0.3626   30.8131    8.1764 C   0  0  0  0  0  0
   -1.3536   29.2790   10.8277 N   0  0  0  0  0  0
   -0.9011   28.1444   11.4131 C   0  0  0  0  0  0
    0.2983   27.5492   11.1934 N   0  0  0  0  0  0
   -1.8261   27.5232   12.2612 N   0  0  0  0  0  0
   -1.7036   26.1344   12.7370 C   0  0  2  0  0  0
   -0.9005   26.0145   14.0668 C   0  0  0  0  0  0
   -0.5467   24.5646   14.4654 C   0  0  0  0  0  0
   -1.6456   26.6981   15.2324 C   0  0  0  0  0  0
   -1.3617   25.0658   11.6491 C   0  0  0  0  0  0
   -1.9420   25.3205   10.3831 O   0  0  0  0  0  0
    3.1944   25.1212    8.9425 H   0  0  0  0  0  0
    3.6149   29.3934    8.9743 H   0  0  0  0  0  0
    5.3219   29.2422    7.2135 H   0  0  0  0  0  0
    6.0066   27.0339    6.3325 H   0  0  0  0  0  0
    2.2826   26.5009   10.6689 H   0  0  0  0  0  0
   -1.6141   32.5146    8.2009 H   0  0  0  0  0  0
   -2.5354   33.4444   10.2711 H   0  0  0  0  0  0
   -0.8542   33.0290   10.5747 H   0  0  0  0  0  0
   -2.1547   31.9838   11.1645 H   0  0  0  0  0  0
   -3.9420   31.8518    8.8045 H   0  0  0  0  0  0
   -3.1773   30.6521    7.7759 H   0  0  0  0  0  0
   -3.3815   30.3572    9.5019 H   0  0  0  0  0  0
    0.4630   31.5708    7.4123 H   0  0  0  0  0  0
   -2.6733   28.0367   12.4646 H   0  0  0  0  0  0
   -2.7351   25.8983   13.0046 H   0  0  0  0  0  0
    0.0431   26.5470   13.9270 H   0  0  0  0  0  0
   -1.4420   23.9612   14.6202 H   0  0  0  0  0  0
    0.0595   24.0708   13.7065 H   0  0  0  0  0  0
    0.0379   24.5382   15.3844 H   0  0  0  0  0  0
   -2.5560   26.1591   15.4974 H   0  0  0  0  0  0
   -1.0167   26.7521   16.1192 H   0  0  0  0  0  0
   -1.9419   27.7184   14.9837 H   0  0  0  0  0  0
   -0.2833   24.9610   11.5271 H   0  0  0  0  0  0
   -1.7328   24.0913   11.9671 H   0  0  0  0  0  0
   -2.8975   25.2322   10.4716 H   0  0  0  0  0  0
  1  2  1  0  0  0
  2  3  2  0  0  0
  2  7  1  0  0  0
  3  4  1  0  0  0
  3 28  1  0  0  0
  4  5  2  0  0  0
  4  8  1  0  0  0
  5  6  1  0  0  0
  5 29  1  0  0  0
  6  7  2  0  0  0
  6 30  1  0  0  0
  7 31  1  0  0  0
  8  9  1  0  0  0
  8 32  1  0  0  0
  9 10  2  0  0  0
  9 20  1  0  0  0
 10 11  1  0  0  0
 10 12  1  0  0  0
 11 17  2  0  0  0
 12 13  1  0  0  0
 12 18  2  0  0  0
 13 14  1  0  0  0
 13 17  1  0  0  0
 14 15  1  0  0  0
 14 16  1  0  0  0
 14 33  1  0  0  0
 15 34  1  0  0  0
 15 35  1  0  0  0
 15 36  1  0  0  0
 16 37  1  0  0  0
 16 38  1  0  0  0
 16 39  1  0  0  0
 17 40  1  0  0  0
 18 19  1  0  0  0
 19 20  2  0  0  0
 19 21  1  0  0  0
 21 22  1  0  0  0
 21 41  1  0  0  0
 22 23  1  0  0  0
 22 26  1  0  0  0
 22 42  1  0  0  0
 23 24  1  0  0  0
 23 25  1  0  0  0
 23 43  1  0  0  0
 24 44  1  0  0  0
 24 45  1  0  0  0
 24 46  1  0  0  0
 25 47  1  0  0  0
 25 48  1  0  0  0
 25 49  1  0  0  0
 26 27  1  0  0  0
 26 50  1  0  0  0
 26 51  1  0  0  0
 27 52  1  0  0  0
M  END
> <s_m_entry_id>
33058

> <s_m_entry_name>
dock_pv.459

> <s_m_Source_Path>
/home/csk/Desktop/cluster/DUD-E-result/cdk2

> <s_m_Source_File>
dock_pv.maegz

> <i_m_Source_File_Index>
459

> <chembl_id>
CHEMBL23327

> <chembl_pref_name>
PURVALANOLA

> <i_lp_mmshare_version>
53161

> <i_f3d_flags>
0

> <r_lp_tautomer_probability>
1

> <s_lp_Force_Field>
OPLS_2005

> <r_lp_Energy>
28.525406

> <b_lp_Chiralities_Consistent>
1

> <s_lp_Variant>
CHEMBL301_lig265-1

> <s_i_glide_gridfile>
glide-grid_1h00

> <i_i_glide_lignum>
408

> <i_i_glide_rotatable_bonds>
8

> <r_i_docking_score>
-7.12654890530247

> <r_i_glide_ligand_efficiency>
-0.263946255751943

> <r_i_glide_ligand_efficiency_sa>
-0.791838766385906

> <r_i_glide_ligand_efficiency_ln>
-1.65894309481334

> <r_i_glide_gscore>
-7.12654890530247

> <r_i_glide_lipo>
-2.45864103362336

> <r_i_glide_hbond>
-0.304687873828114

> <r_i_glide_metal>
0

> <r_i_glide_rewards>
-2.36039023385868

> <r_i_glide_evdw>
-43.9411811828613

> <r_i_glide_ecoul>
-3.00048923492432

> <r_i_glide_erotb>
0.644302680389394

> <r_i_glide_esite>
0

> <r_i_glide_emodel>
-62.1221042423853

> <r_i_glide_energy>
-46.9416704177856

> <r_i_glide_einternal>
12.4110202789307

> <i_i_glide_confnum>
123

> <i_i_glide_posenum>
255

> <r_i_glide_eff_state_penalty>
0

> <s_user_duplicate_titles>
CHEMBL301_lig265,31153,165999

> <s_m_subgroup_title>
dock_pv

> <s_m_subgroupid>
dock_pv

> <b_m_subgroup_collapsed>
1

$$$$
CHEMBL301_lig149
                    3D
 Schrodinger Suite 2021-1.
 47 51  0  0  1  0            999 V2000
    1.2432   30.3429    8.1957 C   0  0  0  0  0  0
    6.9053   24.7357    6.2079 S   0  0  0  0  0  0
    0.0196   30.4149    8.9753 C   0  0  0  0  0  0
    1.2580   31.5380    7.3760 C   0  0  0  0  0  0
    0.2156   32.2807    7.7760 N   0  0  0  0  0  0
   -0.5807   31.6214    8.6866 C   0  0  0  0  0  0
    2.2120   29.4068    8.1621 C   0  0  0  0  0  0
   -0.5985   29.5696    9.9050 C   0  0  0  0  0  0
    7.0274   24.5032    4.4460 N   0  0  0  0  0  0
   -2.3419   29.0477   11.3760 N   0  0  0  0  0  0
    5.8019   26.1101    6.5142 C   0  0  0  0  0  0
   -0.1137   27.9959   10.5358 S   0  0  0  0  0  0
   -1.5670   28.0097   11.4969 C   0  0  0  0  0  0
   -1.8309   29.9508   10.5019 C   0  0  0  0  0  0
    8.2215   25.1060    6.7375 O   0  0  0  0  0  0
    6.2221   23.5447    6.7233 O   0  0  0  0  0  0
    3.3412   29.3761    7.3755 N   0  0  0  0  0  0
    2.0580   31.8520    6.5022 O   0  0  0  0  0  0
   -1.7813   32.0226    9.2679 C   0  0  0  0  0  0
   -2.4287   31.1815   10.1764 C   0  0  0  0  0  0
    5.4981   27.0516    5.5287 C   0  0  0  0  0  0
    5.2723   26.2445    7.7950 C   0  0  0  0  0  0
    4.1551   28.2700    7.1182 C   0  0  0  0  0  0
    7.6762   25.3653    3.5463 C   0  0  0  0  0  0
    4.4480   27.3211    8.1007 C   0  0  0  0  0  0
    4.6848   28.1370    5.8364 C   0  0  0  0  0  0
    7.2578   25.3251    2.2137 C   0  0  0  0  0  0
    8.6941   26.2515    3.9200 C   0  0  0  0  0  0
    9.2765   27.0901    2.9735 C   0  0  0  0  0  0
    7.8466   26.1548    1.2637 C   0  0  0  0  0  0
    8.8558   27.0338    1.6486 C   0  0  0  0  0  0
    0.0329   33.2011    7.4023 H   0  0  0  0  0  0
    2.1395   28.5438    8.8072 H   0  0  0  0  0  0
    6.3440   23.8752    4.0526 H   0  0  0  0  0  0
   -1.8012   27.1885   12.1590 H   0  0  0  0  0  0
    3.4465   30.1223    6.6936 H   0  0  0  0  0  0
   -2.2232   32.9775    9.0234 H   0  0  0  0  0  0
   -3.3586   31.4780   10.6425 H   0  0  0  0  0  0
    5.9083   26.9797    4.5347 H   0  0  0  0  0  0
    5.5127   25.5306    8.5717 H   0  0  0  0  0  0
    4.0670   27.4170    9.1068 H   0  0  0  0  0  0
    4.4734   28.8740    5.0747 H   0  0  0  0  0  0
    6.4688   24.6533    1.9012 H   0  0  0  0  0  0
    9.0499   26.3227    4.9339 H   0  0  0  0  0  0
   10.0582   27.7741    3.2662 H   0  0  0  0  0  0
    7.5228   26.1107    0.2344 H   0  0  0  0  0  0
    9.3274   27.6702    0.9141 H   0  0  0  0  0  0
  1  3  1  0  0  0
  1  4  1  0  0  0
  1  7  2  0  0  0
  2 11  1  0  0  0
  2  9  1  0  0  0
  2 15  2  0  0  0
  2 16  2  0  0  0
  3  6  2  0  0  0
  3  8  1  0  0  0
  4  5  1  0  0  0
  4 18  2  0  0  0
  5  6  1  0  0  0
  5 32  1  0  0  0
  6 19  1  0  0  0
  7 17  1  0  0  0
  7 33  1  0  0  0
  8 12  1  0  0  0
  8 14  2  0  0  0
  9 24  1  0  0  0
  9 34  1  0  0  0
 10 14  1  0  0  0
 10 13  2  0  0  0
 11 21  2  0  0  0
 11 22  1  0  0  0
 12 13  1  0  0  0
 13 35  1  0  0  0
 14 20  1  0  0  0
 17 23  1  0  0  0
 17 36  1  0  0  0
 19 20  2  0  0  0
 19 37  1  0  0  0
 20 38  1  0  0  0
 21 26  1  0  0  0
 21 39  1  0  0  0
 22 25  2  0  0  0
 22 40  1  0  0  0
 23 25  1  0  0  0
 23 26  2  0  0  0
 24 27  2  0  0  0
 24 28  1  0  0  0
 25 41  1  0  0  0
 26 42  1  0  0  0
 27 30  1  0  0  0
 27 43  1  0  0  0
 28 29  2  0  0  0
 28 44  1  0  0  0
 29 31  1  0  0  0
 29 45  1  0  0  0
 30 31  2  0  0  0
 30 46  1  0  0  0
 31 47  1  0  0  0
M  END
> <s_m_entry_id>
33059

> <s_m_entry_name>
dock_pv.460

> <s_m_Source_Path>
/home/csk/Desktop/cluster/DUD-E-result/cdk2

> <s_m_Source_File>
dock_pv.maegz

> <i_m_Source_File_Index>
460

> <chembl_id>
CHEMBL1964244

> <chembl_pref_name>
None

> <i_lp_mmshare_version>
53161

> <i_f3d_flags>
0

> <r_lp_tautomer_probability>
0.499999999999422

> <s_lp_Force_Field>
OPLS_2005

> <r_lp_Energy>
39.045322

> <b_lp_Chiralities_Consistent>
1

> <s_lp_Variant>
CHEMBL301_lig149-1

> <s_i_glide_gridfile>
glide-grid_1h00

> <i_i_glide_lignum>
288

> <i_i_glide_rotatable_bonds>
5

> <r_i_docking_score>
-7.1235172512377

> <r_i_glide_ligand_efficiency>
-0.229790879072184

> <r_i_glide_ligand_efficiency_sa>
-0.721860620787081

> <r_i_glide_ligand_efficiency_ln>
-1.60657144973986

> <r_i_glide_gscore>
-7.1235172512377

> <r_i_glide_lipo>
-2.71126205316336

> <r_i_glide_hbond>
-0.609347033929973

> <r_i_glide_metal>
0

> <r_i_glide_rewards>
-0.675376821534829

> <r_i_glide_evdw>
-44.2078285217285

> <r_i_glide_ecoul>
-8.38504600524902

> <r_i_glide_erotb>
0.348546586260408

> <r_i_glide_esite>
-0.00792960199616573

> <r_i_glide_emodel>
-66.8738490402908

> <r_i_glide_energy>
-52.5928745269775

> <r_i_glide_einternal>
7.48842573165894

> <i_i_glide_confnum>
7

> <i_i_glide_posenum>
173

> <r_i_glide_eff_state_penalty>
0

> <s_user_duplicate_titles>
CHEMBL301_lig149,136688

> <s_m_subgroup_title>
dock_pv

> <s_m_subgroupid>
dock_pv

> <b_m_subgroup_collapsed>
1

$$$$
CHEMBL301_lig590
                    3D
 Schrodinger Suite 2021-1.
 35 37  0  0  1  0            999 V2000
   -0.2348   27.7476   11.5975 C   0  0  0  0  0  0
   -1.3506   28.5599   11.7774 C   0  0  0  0  0  0
   -1.5527   29.6548   10.9431 C   0  0  0  0  0  0
    0.6855   28.0341   10.5879 C   0  0  0  0  0  0
    0.5144   29.1424    9.7378 C   0  0  0  0  0  0
   -0.6303   29.9421    9.9288 C   0  0  0  0  0  0
   -0.8899   31.1372    9.0420 C   0  0  0  0  0  0
    0.0578   31.3362    8.1045 N   0  0  0  0  0  0
    1.1814   30.6520    7.7974 C   0  0  0  0  0  0
    1.5100   29.5059    8.6662 C   0  0  0  0  0  0
    1.8407   31.0517    6.8390 O   0  0  0  0  0  0
   -1.8588   31.8913    9.1099 O   0  0  0  0  0  0
    2.6848   28.8374    8.4944 C   0  0  0  0  0  0
    3.7284   29.0692    7.6242 N   0  0  0  0  0  0
    4.7700   28.1196    7.2542 C   0  0  0  0  0  0
    4.4790   27.2256    6.0591 C   0  0  0  0  0  0
    4.3647   27.7550    4.8124 C   0  0  0  0  0  0
    4.1075   26.9662    3.6121 C   0  0  0  0  0  0
    4.2350   25.6236    3.7763 N   0  0  0  0  0  0
    4.3687   25.0513    5.0182 C   0  0  0  0  0  0
    4.4574   25.7651    6.1628 C   0  0  0  0  0  0
    3.6900   27.4520    2.5715 O   0  0  0  0  0  0
    0.0384   26.2476   12.7383 Br  0  0  0  0  0  0
   -2.0614   28.3473   12.5638 H   0  0  0  0  0  0
   -2.4260   30.2751   11.1008 H   0  0  0  0  0  0
    1.5348   27.3765   10.5000 H   0  0  0  0  0  0
   -0.1148   32.1283    7.5064 H   0  0  0  0  0  0
    2.9314   27.9915    9.1162 H   0  0  0  0  0  0
    3.6725   29.8751    7.0078 H   0  0  0  0  0  0
    5.0412   27.5092    8.1164 H   0  0  0  0  0  0
    5.6590   28.7016    7.0139 H   0  0  0  0  0  0
    4.4344   28.8245    4.6833 H   0  0  0  0  0  0
    4.0595   25.0892    2.9282 H   0  0  0  0  0  0
    4.3173   23.9723    4.9790 H   0  0  0  0  0  0
    4.5159   25.2732    7.1242 H   0  0  0  0  0  0
  1  2  2  0  0  0
  1  4  1  0  0  0
  1 23  1  0  0  0
  2  3  1  0  0  0
  2 24  1  0  0  0
  3  6  2  0  0  0
  3 25  1  0  0  0
  4  5  2  0  0  0
  4 26  1  0  0  0
  5 10  1  0  0  0
  5  6  1  0  0  0
  6  7  1  0  0  0
  7 12  2  0  0  0
  7  8  1  0  0  0
  8  9  1  0  0  0
  8 27  1  0  0  0
  9 11  2  0  0  0
  9 10  1  0  0  0
 10 13  2  0  0  0
 13 14  1  0  0  0
 13 28  1  0  0  0
 14 15  1  0  0  0
 14 29  1  0  0  0
 15 16  1  0  0  0
 15 30  1  0  0  0
 15 31  1  0  0  0
 16 17  2  0  0  0
 16 21  1  0  0  0
 17 18  1  0  0  0
 17 32  1  0  0  0
 18 19  1  0  0  0
 18 22  2  0  0  0
 19 20  1  0  0  0
 19 33  1  0  0  0
 20 21  2  0  0  0
 20 34  1  0  0  0
 21 35  1  0  0  0
M  END
> <s_m_entry_id>
33060

> <s_m_entry_name>
dock_pv.461

> <s_m_Source_Path>
/home/csk/Desktop/cluster/DUD-E-result/cdk2

> <s_m_Source_File>
dock_pv.maegz

> <i_m_Source_File_Index>
461

> <chembl_id>
CHEMBL449818

> <chembl_pref_name>
None

> <i_lp_mmshare_version>
53161

> <i_f3d_flags>
0

> <r_lp_tautomer_probability>
0.499499999999423

> <s_lp_Force_Field>
OPLS_2005

> <r_lp_Energy>
31.725783

> <b_lp_Chiralities_Consistent>
1

> <s_lp_Variant>
CHEMBL301_lig590-1

> <s_i_glide_gridfile>
glide-grid_1h00

> <i_i_glide_lignum>
827

> <i_i_glide_rotatable_bonds>
3

> <r_i_docking_score>
-7.12194472519544

> <r_i_glide_ligand_efficiency>
-0.309649770660671

> <r_i_glide_ligand_efficiency_sa>
-0.880602757180118

> <r_i_glide_ligand_efficiency_ln>
-1.72215081277663

> <r_i_glide_gscore>
-7.12194472519544

> <r_i_glide_lipo>
-2.12999158908953

> <r_i_glide_hbond>
-0.318984780949836

> <r_i_glide_metal>
0

> <r_i_glide_rewards>
-1.90768218722891

> <r_i_glide_evdw>
-38.6366195678711

> <r_i_glide_ecoul>
-6.96145486831665

> <r_i_glide_erotb>
0.276155721294711

> <r_i_glide_esite>
-0.065392680580816

> <r_i_glide_emodel>
-62.0689244265768

> <r_i_glide_energy>
-45.5980744361877

> <r_i_glide_einternal>
7.92664241790771

> <i_i_glide_confnum>
2

> <i_i_glide_posenum>
68

> <r_i_glide_eff_state_penalty>
0

> <s_user_duplicate_titles>
CHEMBL301_lig590

> <s_m_subgroup_title>
dock_pv

> <s_m_subgroupid>
dock_pv

> <b_m_subgroup_collapsed>
1

$$$$
CHEMBL301_lig951
                    3D
 Schrodinger Suite 2021-1.
 48 51  0  0  1  0            999 V2000
    1.2614   29.1710    9.2067 C   0  0  0  0  0  0
    0.3802   28.6861   10.1761 C   0  0  0  0  0  0
   -0.8749   29.2676   10.3450 C   0  0  0  0  0  0
   -1.2666   30.3433    9.5414 C   0  0  0  0  0  0
   -0.3833   30.8362    8.5777 C   0  0  0  0  0  0
    0.8670   30.2518    8.4075 C   0  0  0  0  0  0
    4.1074   22.7364    3.7389 C   0  0  0  0  0  0
    4.1190   22.9312    5.1289 C   0  0  0  0  0  0
    3.8012   21.8624    5.9852 C   0  0  0  0  0  0
    3.4798   20.5933    5.5053 C   0  0  0  0  0  0
    4.4576   24.2894    5.6796 C   0  0  0  0  0  0
    4.7896   24.5390    7.3767 S   0  0  0  0  0  0
    4.9615   26.2285    7.0955 C   0  0  0  0  0  0
    4.8482   26.5767    5.8381 N   0  0  0  0  0  0
    4.5737   25.5416    5.0635 C   0  0  0  0  0  0
    5.1595   27.0536    8.1760 N   0  0  0  0  0  0
    5.0924   28.5131    8.2034 C   0  0  0  0  0  0
    3.6751   29.1280    8.0923 C   0  0  2  0  0  0
    2.6281   28.4859    9.0484 C   0  0  0  0  0  0
    3.2578   29.0580    6.7027 N   0  0  0  0  0  0
    3.6543   20.8349    1.9587 C   0  0  0  0  0  0
    3.7858   21.4651    3.2295 C   0  0  0  0  0  0
    3.4840   20.4289    4.1223 C   0  0  0  0  0  0
    3.2025   19.2850    3.4334 O   0  0  0  0  0  0
    3.3089   19.5719    2.0655 N   0  0  0  0  0  0
    3.8553   21.4520    0.7637 N   0  0  0  0  0  0
   -2.6500   30.9768    9.7065 C   0  0  0  0  0  0
   -3.5395   30.1011   10.1761 F   0  0  0  0  0  0
   -2.5583   31.9993   10.5556 F   0  0  0  0  0  0
   -3.1173   31.4352    8.5445 F   0  0  0  0  0  0
    0.6690   27.8544   10.8032 H   0  0  0  0  0  0
   -1.5410   28.8801   11.1022 H   0  0  0  0  0  0
   -0.6616   31.6761    7.9565 H   0  0  0  0  0  0
    1.5230   30.6622    7.6571 H   0  0  0  0  0  0
    4.3444   23.5460    3.0625 H   0  0  0  0  0  0
    3.7855   22.0073    7.0543 H   0  0  0  0  0  0
    3.2442   19.7789    6.1739 H   0  0  0  0  0  0
    4.4403   25.7185    4.0065 H   0  0  0  0  0  0
    5.1915   26.6534    9.1116 H   0  0  0  0  0  0
    5.7431   28.9212    7.4299 H   0  0  0  0  0  0
    5.5295   28.8252    9.1488 H   0  0  0  0  0  0
    3.7573   30.1878    8.3423 H   0  0  0  0  0  0
    3.0739   28.4270   10.0417 H   0  0  0  0  0  0
    2.4580   27.4500    8.7560 H   0  0  0  0  0  0
    3.8590   29.6720    6.1646 H   0  0  0  0  0  0
    3.4354   28.1218    6.3616 H   0  0  0  0  0  0
    4.0585   22.4465    0.7227 H   0  0  0  0  0  0
    3.8161   20.9545   -0.1122 H   0  0  0  0  0  0
  1 19  1  0  0  0
  1  6  1  0  0  0
  1  2  2  0  0  0
  2  3  1  0  0  0
  2 31  1  0  0  0
  3  4  2  0  0  0
  3 32  1  0  0  0
  4  5  1  0  0  0
  4 27  1  0  0  0
  5  6  2  0  0  0
  5 33  1  0  0  0
  6 34  1  0  0  0
  7  8  1  0  0  0
  7 22  2  0  0  0
  7 35  1  0  0  0
  8  9  2  0  0  0
  8 11  1  0  0  0
  9 10  1  0  0  0
  9 36  1  0  0  0
 10 23  2  0  0  0
 10 37  1  0  0  0
 11 15  2  0  0  0
 11 12  1  0  0  0
 12 13  1  0  0  0
 13 14  2  0  0  0
 13 16  1  0  0  0
 14 15  1  0  0  0
 15 38  1  0  0  0
 16 17  1  0  0  0
 16 39  1  0  0  0
 17 18  1  0  0  0
 17 40  1  0  0  0
 17 41  1  0  0  0
 18 19  1  0  0  0
 18 20  1  0  0  0
 18 42  1  0  0  0
 19 43  1  0  0  0
 19 44  1  0  0  0
 20 45  1  0  0  0
 20 46  1  0  0  0
 21 22  1  0  0  0
 21 25  2  0  0  0
 21 26  1  0  0  0
 22 23  1  0  0  0
 23 24  1  0  0  0
 24 25  1  0  0  0
 26 47  1  0  0  0
 26 48  1  0  0  0
 27 28  1  0  0  0
 27 29  1  0  0  0
 27 30  1  0  0  0
M  END
> <s_m_entry_id>
33061

> <s_m_entry_name>
dock_pv.462

> <s_m_Source_Path>
/home/csk/Desktop/cluster/DUD-E-result/cdk2

> <s_m_Source_File>
dock_pv.maegz

> <i_m_Source_File_Index>
462

> <chembl_id>
CHEMBL1081660

> <chembl_pref_name>
None

> <i_lp_mmshare_version>
53161

> <i_f3d_flags>
0

> <r_lp_tautomer_probability>
1

> <s_lp_Force_Field>
OPLS_2005

> <r_lp_Energy>
18.348199

> <b_lp_Chiralities_Consistent>
1

> <s_lp_Variant>
CHEMBL301_lig951-1

> <s_i_glide_gridfile>
glide-grid_1h00

> <i_i_glide_lignum>
1345

> <i_i_glide_rotatable_bonds>
7

> <r_i_docking_score>
-7.12177998236152

> <r_i_glide_ligand_efficiency>
-0.237392666078717

> <r_i_glide_ligand_efficiency_sa>
-0.73763420787856

> <r_i_glide_ligand_efficiency_ln>
-1.61814601000056

> <r_i_glide_gscore>
-7.12177998236152

> <r_i_glide_lipo>
-2.82712226057011

> <r_i_glide_hbond>
-0.546281686339343

> <r_i_glide_metal>
0

> <r_i_glide_rewards>
-1.10160666971268

> <r_i_glide_evdw>
-38.7959098815918

> <r_i_glide_ecoul>
-7.38583898544312

> <r_i_glide_erotb>
0.635744686782304

> <r_i_glide_esite>
-0.234842710625638

> <r_i_glide_emodel>
-65.2576395346709

> <r_i_glide_energy>
-46.1817488670349

> <r_i_glide_einternal>
4.10375642776489

> <i_i_glide_confnum>
2

> <i_i_glide_posenum>
58

> <r_i_glide_eff_state_penalty>
0

> <s_user_duplicate_titles>
CHEMBL301_lig951

> <s_m_subgroup_title>
dock_pv

> <s_m_subgroupid>
dock_pv

> <b_m_subgroup_collapsed>
1

$$$$
CHEMBL301_lig338
                    3D
 Schrodinger Suite 2021-1.
 53 57  0  0  1  0            999 V2000
    7.0914   24.8024    6.3124 S   0  0  0  0  0  0
    1.2425   30.3153    8.1862 C   0  0  0  0  0  0
    0.0212   30.3877    8.9731 C   0  0  0  0  0  0
    1.2579   31.5189    7.3759 C   0  0  0  0  0  0
    0.2123   32.2559    7.7763 N   0  0  0  0  0  0
    6.7820   24.1419    4.6993 N   0  0  0  0  0  0
   -0.5811   31.5941    8.6868 C   0  0  0  0  0  0
    2.2044   29.3705    8.1432 C   0  0  0  0  0  0
   -0.5978   29.5421    9.9036 C   0  0  0  0  0  0
    6.0108   22.9767    4.5836 C   0  0  0  0  0  0
   -2.3418   29.0195   11.3759 N   0  0  0  0  0  0
    5.8686   26.0742    6.5860 C   0  0  0  0  0  0
   -0.1139   27.9680   10.5334 S   0  0  0  0  0  0
   -1.5655   27.9823   11.4976 C   0  0  0  0  0  0
   -1.8303   29.9236   10.5029 C   0  0  0  0  0  0
    8.3863   25.4852    6.2426 O   0  0  0  0  0  0
    6.8567   23.7349    7.2912 O   0  0  0  0  0  0
    3.3359   29.3227    7.3578 N   0  0  0  0  0  0
    2.0580   31.8521    6.5111 O   0  0  0  0  0  0
   -1.7817   31.9954    9.2681 C   0  0  0  0  0  0
    6.6015   21.7155    4.8063 C   0  0  0  0  0  0
    4.6500   23.0571    4.2335 C   0  0  0  0  0  0
   -2.4281   31.1547   10.1771 C   0  0  0  0  0  0
    5.6566   27.0518    5.6172 C   0  0  0  0  0  0
    5.2014   26.1424    7.8058 C   0  0  0  0  0  0
    4.1612   28.2146    7.1228 C   0  0  0  0  0  0
    4.8086   28.1241    5.8900 C   0  0  0  0  0  0
    4.3553   27.2125    8.0795 C   0  0  0  0  0  0
    4.4806   20.6411    4.3506 C   0  0  0  0  0  0
    3.8992   21.8844    4.1188 C   0  0  0  0  0  0
    5.8270   20.5578    4.6903 C   0  0  0  0  0  0
    3.9636   24.3890    3.9526 C   0  0  0  0  0  0
    8.0830   21.5660    5.1365 C   0  0  0  0  0  0
    0.0310   33.1803    7.4103 H   0  0  0  0  0  0
    6.3300   24.8817    4.1868 H   0  0  0  0  0  0
    2.1173   28.5089    8.7869 H   0  0  0  0  0  0
   -1.7976   27.1612   12.1603 H   0  0  0  0  0  0
    3.4781   30.0831    6.6984 H   0  0  0  0  0  0
   -2.2233   32.9509    9.0225 H   0  0  0  0  0  0
   -3.3571   31.4518   10.6435 H   0  0  0  0  0  0
    6.1935   27.0249    4.6795 H   0  0  0  0  0  0
    5.3745   25.4017    8.5733 H   0  0  0  0  0  0
    4.6785   28.8980    5.1466 H   0  0  0  0  0  0
    3.8891   27.2638    9.0521 H   0  0  0  0  0  0
    3.8909   19.7415    4.2565 H   0  0  0  0  0  0
    2.8581   21.9345    3.8417 H   0  0  0  0  0  0
    6.2707   19.5865    4.8555 H   0  0  0  0  0  0
    3.0638   24.2538    3.3509 H   0  0  0  0  0  0
    3.6935   24.8867    4.8841 H   0  0  0  0  0  0
    4.6108   25.0521    3.3783 H   0  0  0  0  0  0
    8.4511   20.5665    4.9029 H   0  0  0  0  0  0
    8.6817   22.2598    4.5461 H   0  0  0  0  0  0
    8.2669   21.7726    6.1901 H   0  0  0  0  0  0
  1  6  1  0  0  0
  1 12  1  0  0  0
  1 16  2  0  0  0
  1 17  2  0  0  0
  2  8  2  0  0  0
  2  3  1  0  0  0
  2  4  1  0  0  0
  3  7  2  0  0  0
  3  9  1  0  0  0
  4  5  1  0  0  0
  4 19  2  0  0  0
  5  7  1  0  0  0
  5 34  1  0  0  0
  6 10  1  0  0  0
  6 35  1  0  0  0
  7 20  1  0  0  0
  8 18  1  0  0  0
  8 36  1  0  0  0
  9 13  1  0  0  0
  9 15  2  0  0  0
 10 21  2  0  0  0
 10 22  1  0  0  0
 11 15  1  0  0  0
 11 14  2  0  0  0
 12 24  2  0  0  0
 12 25  1  0  0  0
 13 14  1  0  0  0
 14 37  1  0  0  0
 15 23  1  0  0  0
 18 26  1  0  0  0
 18 38  1  0  0  0
 20 23  2  0  0  0
 20 39  1  0  0  0
 21 31  1  0  0  0
 21 33  1  0  0  0
 22 30  2  0  0  0
 22 32  1  0  0  0
 23 40  1  0  0  0
 24 27  1  0  0  0
 24 41  1  0  0  0
 25 28  2  0  0  0
 25 42  1  0  0  0
 26 28  1  0  0  0
 26 27  2  0  0  0
 27 43  1  0  0  0
 28 44  1  0  0  0
 29 30  1  0  0  0
 29 31  2  0  0  0
 29 45  1  0  0  0
 30 46  1  0  0  0
 31 47  1  0  0  0
 32 48  1  0  0  0
 32 49  1  0  0  0
 32 50  1  0  0  0
 33 51  1  0  0  0
 33 52  1  0  0  0
 33 53  1  0  0  0
M  END
> <s_m_entry_id>
33062

> <s_m_entry_name>
dock_pv.463

> <s_m_Source_Path>
/home/csk/Desktop/cluster/DUD-E-result/cdk2

> <s_m_Source_File>
dock_pv.maegz

> <i_m_Source_File_Index>
463

> <chembl_id>
CHEMBL1964252

> <chembl_pref_name>
None

> <i_lp_mmshare_version>
53161

> <i_f3d_flags>
0

> <r_lp_tautomer_probability>
0.499999999999422

> <s_lp_Force_Field>
OPLS_2005

> <r_lp_Energy>
44.249101

> <b_lp_Chiralities_Consistent>
1

> <s_lp_Variant>
CHEMBL301_lig338-1

> <s_i_glide_gridfile>
glide-grid_1h00

> <i_i_glide_lignum>
518

> <i_i_glide_rotatable_bonds>
5

> <r_i_docking_score>
-7.12040135752862

> <r_i_glide_ligand_efficiency>
-0.215769738106928

> <r_i_glide_ligand_efficiency_sa>
-0.692088841545548

> <r_i_glide_ligand_efficiency_ln>
-1.58354039444924

> <r_i_glide_gscore>
-7.12040135752862

> <r_i_glide_lipo>
-2.47357101015503

> <r_i_glide_hbond>
-0.613198143991175

> <r_i_glide_metal>
0

> <r_i_glide_rewards>
-1.05678821016811

> <r_i_glide_evdw>
-41.2760314941406

> <r_i_glide_ecoul>
-8.13199043273926

> <r_i_glide_erotb>
0.312069309017438

> <r_i_glide_esite>
-0.00531316261382513

> <r_i_glide_emodel>
-64.3213463173394

> <r_i_glide_energy>
-49.4080219268799

> <r_i_glide_einternal>
10.627760887146

> <i_i_glide_confnum>
20

> <i_i_glide_posenum>
323

> <r_i_glide_eff_state_penalty>
0

> <s_user_duplicate_titles>
CHEMBL301_lig338,226514

> <s_m_subgroup_title>
dock_pv

> <s_m_subgroupid>
dock_pv

> <b_m_subgroup_collapsed>
1

$$$$
CHEMBL301_lig1157
                    3D
 Schrodinger Suite 2021-1.
 48 50  0  0  1  0            999 V2000
    3.7158   28.5983    5.8066 C   0  0  0  0  0  0
    4.6162   27.5480    5.6097 C   0  0  0  0  0  0
    5.2532   26.9889    6.7229 C   0  0  0  0  0  0
    4.9626   27.4606    8.0065 C   0  0  0  0  0  0
    4.0227   28.4770    8.1895 C   0  0  0  0  0  0
    3.3930   29.0520    7.0836 C   0  0  0  0  0  0
    4.8571   26.8476    3.9660 S   0  0  0  0  0  0
    2.4580   30.0930    7.1804 N   0  0  0  0  0  0
    1.3643   30.2944    8.0264 C   0  0  0  0  0  0
    0.6330   31.4088    7.7760 N   0  0  0  0  0  0
   -0.4441   31.6226    8.5760 C   0  0  0  0  0  0
   -0.8040   30.7435    9.5994 C   0  0  0  0  0  0
    0.0051   29.6146    9.7913 C   0  0  0  0  0  0
    1.0948   29.3925    9.0012 N   0  0  0  0  0  0
   -0.2743   28.5851   10.8377 C   0  0  0  0  0  0
    0.1506   27.2587   10.6730 C   0  0  0  0  0  0
   -0.0969   26.3069   11.6704 C   0  0  0  0  0  0
   -0.7419   26.6276   12.8181 N   0  0  0  0  0  0
   -1.1655   27.9056   12.9760 C   0  0  0  0  0  0
   -0.9584   28.9004   12.0206 C   0  0  0  0  0  0
    0.3352   24.9761   11.5729 N   0  0  0  0  0  0
    1.0884   24.4885   10.4223 C   0  0  0  0  0  0
    2.5943   24.7854   10.5249 C   0  0  0  0  0  0
    3.4015   24.4107    9.2703 C   0  0  0  0  0  0
    3.2580   23.0381    8.9760 O   0  0  0  0  0  0
    6.3830   27.4519    3.3760 N   0  0  0  0  0  0
    5.0056   25.4020    4.1565 O   0  0  0  0  0  0
    3.8239   27.4015    3.0841 O   0  0  0  0  0  0
    3.2130   29.0466    4.9760 H   0  0  0  0  0  0
    5.9525   26.1744    6.5973 H   0  0  0  0  0  0
    5.4510   27.0296    8.8681 H   0  0  0  0  0  0
    3.7901   28.8164    9.1870 H   0  0  0  0  0  0
    2.6124   30.8390    6.5183 H   0  0  0  0  0  0
   -1.0230   32.5134    8.3774 H   0  0  0  0  0  0
   -1.6762   30.9329   10.2078 H   0  0  0  0  0  0
    0.6841   26.9896    9.7761 H   0  0  0  0  0  0
   -1.6976   28.1290   13.8894 H   0  0  0  0  0  0
   -1.3207   29.8996   12.2137 H   0  0  0  0  0  0
    0.3418   24.4353   12.4244 H   0  0  0  0  0  0
    0.6941   24.9053    9.4951 H   0  0  0  0  0  0
    0.9150   23.4183   10.3061 H   0  0  0  0  0  0
    2.9960   24.2909   11.4072 H   0  0  0  0  0  0
    2.7448   25.8501   10.7136 H   0  0  0  0  0  0
    4.4578   24.6520    9.3759 H   0  0  0  0  0  0
    3.0243   24.9625    8.4077 H   0  0  0  0  0  0
    2.5843   22.9734    8.2829 H   0  0  0  0  0  0
    6.3801   28.4622    3.2317 H   0  0  0  0  0  0
    7.1717   27.1694    3.9639 H   0  0  0  0  0  0
  1  6  1  0  0  0
  1  2  2  0  0  0
  1 29  1  0  0  0
  2  7  1  0  0  0
  2  3  1  0  0  0
  3  4  2  0  0  0
  3 30  1  0  0  0
  4  5  1  0  0  0
  4 31  1  0  0  0
  5  6  2  0  0  0
  5 32  1  0  0  0
  6  8  1  0  0  0
  7 26  1  0  0  0
  7 27  2  0  0  0
  7 28  2  0  0  0
  8  9  1  0  0  0
  8 33  1  0  0  0
  9 14  1  0  0  0
  9 10  2  0  0  0
 10 11  1  0  0  0
 11 12  2  0  0  0
 11 34  1  0  0  0
 12 13  1  0  0  0
 12 35  1  0  0  0
 13 14  2  0  0  0
 13 15  1  0  0  0
 15 16  2  0  0  0
 15 20  1  0  0  0
 16 17  1  0  0  0
 16 36  1  0  0  0
 17 18  2  0  0  0
 17 21  1  0  0  0
 18 19  1  0  0  0
 19 20  2  0  0  0
 19 37  1  0  0  0
 20 38  1  0  0  0
 21 22  1  0  0  0
 21 39  1  0  0  0
 22 23  1  0  0  0
 22 40  1  0  0  0
 22 41  1  0  0  0
 23 24  1  0  0  0
 23 42  1  0  0  0
 23 43  1  0  0  0
 24 25  1  0  0  0
 24 44  1  0  0  0
 24 45  1  0  0  0
 25 46  1  0  0  0
 26 47  1  0  0  0
 26 48  1  0  0  0
M  END
> <s_m_entry_id>
33063

> <s_m_entry_name>
dock_pv.464

> <s_m_Source_Path>
/home/csk/Desktop/cluster/DUD-E-result/cdk2

> <s_m_Source_File>
dock_pv.maegz

> <i_m_Source_File_Index>
464

> <chembl_id>
CHEMBL2158843

> <chembl_pref_name>
None

> <i_lp_mmshare_version>
53161

> <i_f3d_flags>
0

> <r_lp_tautomer_probability>
0.999999759836057

> <s_lp_Force_Field>
OPLS_2005

> <r_lp_Energy>
13.659544

> <b_lp_Chiralities_Consistent>
1

> <s_lp_Variant>
CHEMBL301_lig1157-1

> <s_i_glide_gridfile>
glide-grid_1h00

> <i_i_glide_lignum>
1569

> <i_i_glide_rotatable_bonds>
9

> <r_i_docking_score>
-7.11618847870042

> <r_i_glide_ligand_efficiency>
-0.254149588525015

> <r_i_glide_ligand_efficiency_sa>
-0.771747836864591

> <r_i_glide_ligand_efficiency_ln>
-1.64262524125682

> <r_i_glide_gscore>
-7.11618847870042

> <r_i_glide_lipo>
-2.67411520179355

> <r_i_glide_hbond>
-0.409765975330323

> <r_i_glide_metal>
0

> <r_i_glide_rewards>
-1.32091332362181

> <r_i_glide_evdw>
-42.914421081543

> <r_i_glide_ecoul>
-8.92415618896484

> <r_i_glide_erotb>
0.855743894777875

> <r_i_glide_esite>
-0.0827933903107409

> <r_i_glide_emodel>
-71.3805797931913

> <r_i_glide_energy>
-51.8385772705078

> <r_i_glide_einternal>
6.08172369003296

> <i_i_glide_confnum>
109

> <i_i_glide_posenum>
253

> <r_i_glide_eff_state_penalty>
0

> <s_user_duplicate_titles>
CHEMBL301_lig1157

> <s_m_subgroup_title>
dock_pv

> <s_m_subgroupid>
dock_pv

> <b_m_subgroup_collapsed>
1

$$$$
CHEMBL301_lig1454
                    3D
 Schrodinger Suite 2021-1.
 52 54  0  0  1  0            999 V2000
    0.1887   27.1641   10.1760 C   0  0  0  0  0  0
   -0.2003   28.4384   10.9522 C   0  0  1  0  0  0
   -0.9389   29.3645   10.1281 O   0  0  0  0  0  0
   -0.3004   30.2519    9.2855 C   0  0  0  0  0  0
    0.8086   29.8205    8.6389 N   0  0  0  0  0  0
    1.3835   30.6513    7.7382 C   0  0  0  0  0  0
    2.4580   30.1867    6.9744 N   0  0  0  0  0  0
    3.2676   29.0360    7.0502 C   0  0  0  0  0  0
    4.0136   28.6521    5.9268 C   0  0  0  0  0  0
    4.8245   27.5224    5.9449 C   0  0  0  0  0  0
    4.8581   26.7271    7.0867 C   0  0  0  0  0  0
    4.0975   27.0802    8.1990 C   0  0  0  0  0  0
    3.3530   28.2526    8.2044 C   0  0  0  0  0  0
    5.8636   25.2507    7.1821 S   0  0  0  0  0  0
    6.9052   25.5306    8.1760 O   0  0  0  0  0  0
    4.9353   24.1313    7.3765 O   0  0  0  0  0  0
    6.6800   25.0404    5.4820 C   0  0  0  0  0  0
    7.9205   25.8521    5.2027 C   0  0  0  0  0  0
    8.0262   24.3594    5.4570 C   0  0  0  0  0  0
    0.9703   31.9129    7.4714 N   0  0  0  0  0  0
   -0.1043   32.3540    8.1760 C   0  0  0  0  0  0
   -0.8128   31.5382    9.0687 C   0  0  0  0  0  0
   -2.0596   32.0569    9.7682 C   0  0  0  0  0  0
   -1.9422   33.3627   10.0118 F   0  0  0  0  0  0
   -3.0926   31.8463    8.9554 F   0  0  0  0  0  0
   -2.3077   31.4502   10.9244 F   0  0  0  0  0  0
   -1.0974   28.1292   12.1937 C   0  0  0  0  0  0
   -2.5345   27.7446   11.7796 C   0  0  0  0  0  0
   -0.5423   27.0502   13.1451 C   0  0  0  0  0  0
   -1.1421   29.3058   12.9759 O   0  0  0  0  0  0
    0.6988   26.4387   10.8079 H   0  0  0  0  0  0
   -0.6787   26.6806    9.7272 H   0  0  0  0  0  0
    0.8846   27.3879    9.3762 H   0  0  0  0  0  0
    0.7210   28.9125   11.3007 H   0  0  0  0  0  0
    2.7894   30.8577    6.2962 H   0  0  0  0  0  0
    4.0005   29.2461    5.0288 H   0  0  0  0  0  0
    5.4088   27.2820    5.0694 H   0  0  0  0  0  0
    4.0580   26.4362    9.0579 H   0  0  0  0  0  0
    2.8276   28.5159    9.1064 H   0  0  0  0  0  0
    5.9462   24.8379    4.7018 H   0  0  0  0  0  0
    8.0733   26.2361    4.1939 H   0  0  0  0  0  0
    8.2704   26.5513    5.9646 H   0  0  0  0  0  0
    8.4541   24.0103    6.3981 H   0  0  0  0  0  0
    8.2577   23.6940    4.6249 H   0  0  0  0  0  0
   -0.4120   33.3724    7.9810 H   0  0  0  0  0  0
   -2.5330   26.8902   11.1043 H   0  0  0  0  0  0
   -3.0527   28.5701   11.2892 H   0  0  0  0  0  0
   -3.1416   27.4525   12.6361 H   0  0  0  0  0  0
   -0.5065   26.0662   12.6777 H   0  0  0  0  0  0
    0.4579   27.3007   13.4844 H   0  0  0  0  0  0
   -1.1615   26.9506   14.0381 H   0  0  0  0  0  0
   -2.0329   29.3763   13.3444 H   0  0  0  0  0  0
  1  2  1  0  0  0
  1 31  1  0  0  0
  1 32  1  0  0  0
  1 33  1  0  0  0
  2  3  1  0  0  0
  2 27  1  0  0  0
  2 34  1  0  0  0
  3  4  1  0  0  0
  4  5  2  0  0  0
  4 22  1  0  0  0
  5  6  1  0  0  0
  6  7  1  0  0  0
  6 20  2  0  0  0
  7  8  1  0  0  0
  7 35  1  0  0  0
  8  9  2  0  0  0
  8 13  1  0  0  0
  9 10  1  0  0  0
  9 36  1  0  0  0
 10 11  2  0  0  0
 10 37  1  0  0  0
 11 12  1  0  0  0
 11 14  1  0  0  0
 12 13  2  0  0  0
 12 38  1  0  0  0
 13 39  1  0  0  0
 14 15  2  0  0  0
 14 16  2  0  0  0
 14 17  1  0  0  0
 17 18  1  0  0  0
 17 19  1  0  0  0
 17 40  1  0  0  0
 18 19  1  0  0  0
 18 41  1  0  0  0
 18 42  1  0  0  0
 19 43  1  0  0  0
 19 44  1  0  0  0
 20 21  1  0  0  0
 21 22  2  0  0  0
 21 45  1  0  0  0
 22 23  1  0  0  0
 23 24  1  0  0  0
 23 25  1  0  0  0
 23 26  1  0  0  0
 27 28  1  0  0  0
 27 29  1  0  0  0
 27 30  1  0  0  0
 28 46  1  0  0  0
 28 47  1  0  0  0
 28 48  1  0  0  0
 29 49  1  0  0  0
 29 50  1  0  0  0
 29 51  1  0  0  0
 30 52  1  0  0  0
M  END
> <s_m_entry_id>
33064

> <s_m_entry_name>
dock_pv.465

> <s_m_Source_Path>
/home/csk/Desktop/cluster/DUD-E-result/cdk2

> <s_m_Source_File>
dock_pv.maegz

> <i_m_Source_File_Index>
465

> <chembl_id>
CHEMBL3644019

> <chembl_pref_name>
None

> <i_lp_mmshare_version>
53161

> <i_f3d_flags>
0

> <r_lp_tautomer_probability>
0.999999917912647

> <s_lp_Force_Field>
OPLS_2005

> <r_lp_Energy>
11.769903

> <b_lp_Chiralities_Consistent>
1

> <s_lp_Variant>
CHEMBL301_lig1454-1

> <s_i_glide_gridfile>
glide-grid_1h00

> <i_i_glide_lignum>
1967

> <i_i_glide_rotatable_bonds>
9

> <r_i_docking_score>
-7.1081643453831

> <r_i_glide_ligand_efficiency>
-0.23693881151277

> <r_i_glide_ligand_efficiency_sa>
-0.736223976219873

> <r_i_glide_ligand_efficiency_ln>
-1.61505238892481

> <r_i_glide_gscore>
-7.1081643453831

> <r_i_glide_lipo>
-2.53066227210515

> <r_i_glide_hbond>
-0.177491969250264

> <r_i_glide_metal>
0

> <r_i_glide_rewards>
-1.84616491709475

> <r_i_glide_evdw>
-41.9365882873535

> <r_i_glide_ecoul>
-7.30846405029297

> <r_i_glide_erotb>
0.705826587365365

> <r_i_glide_esite>
-0.0665727523866833

> <r_i_glide_emodel>
-64.8804603136992

> <r_i_glide_energy>
-49.2450523376465

> <r_i_glide_einternal>
11.8723793029785

> <i_i_glide_confnum>
32

> <i_i_glide_posenum>
321

> <r_i_glide_eff_state_penalty>
0

> <s_user_duplicate_titles>
CHEMBL301_lig1454

> <s_m_subgroup_title>
dock_pv

> <s_m_subgroupid>
dock_pv

> <b_m_subgroup_collapsed>
1

$$$$
CHEMBL301_lig573
                    3D
 Schrodinger Suite 2021-1.
 50 52  0  0  1  0            999 V2000
    0.4436   28.4125   11.5989 C   0  0  0  0  0  0
   -0.0892   29.6187   11.5789 N   0  0  0  0  0  0
   -1.3383   29.3950   11.2458 C   0  0  0  0  0  0
   -1.6703   28.0824   11.1481 O   0  0  0  0  0  0
   -0.5100   27.4279   11.3889 C   0  0  0  0  0  0
   -0.5254   25.9033   11.3843 C   0  0  0  0  0  0
   -1.2025   25.4078   12.6795 C   0  0  0  0  0  0
    0.9177   25.3535   11.3206 C   0  0  0  0  0  0
   -1.3189   25.3757   10.1696 C   0  0  0  0  0  0
   -2.4180   30.4159   10.9760 C   0  0  0  0  0  0
   -2.6569   31.0442    9.2779 S   0  0  0  0  0  0
   -1.0137   31.2072    8.6851 C   0  0  0  0  0  0
   -0.3421   32.3593    8.2946 C   0  0  0  0  0  0
    0.8581   32.1873    7.7741 N   0  0  0  0  0  0
    1.2281   30.9269    7.7760 C   0  0  0  0  0  0
    0.0147   29.8521    8.3620 S   0  0  0  0  0  0
    2.4579   30.4469    7.3760 N   0  0  0  0  0  0
    3.1126   29.2432    7.8923 C   0  0  0  0  0  0
    4.2163   28.6536    6.9877 C   0  0  0  0  0  0
    4.7506   27.3155    7.5381 C   0  0  0  0  0  0
    5.7794   26.6434    6.6101 C   0  0  0  0  0  0
    5.2592   26.4850    5.2513 N   0  0  1  0  0  0
    4.8162   27.7395    4.6431 C   0  0  0  0  0  0
    3.7894   28.4767    5.5143 C   0  0  0  0  0  0
    1.4922   28.2517   11.7759 H   0  0  0  0  0  0
   -1.2301   24.3190   12.7292 H   0  0  0  0  0  0
   -2.2304   25.7680   12.7557 H   0  0  0  0  0  0
   -0.6744   25.7639   13.5660 H   0  0  0  0  0  0
    1.4328   25.6926   10.4200 H   0  0  0  0  0  0
    1.5138   25.6885   12.1716 H   0  0  0  0  0  0
    0.9357   24.2626   11.3163 H   0  0  0  0  0  0
   -0.8684   25.6850    9.2262 H   0  0  0  0  0  0
   -1.3733   24.2876   10.1765 H   0  0  0  0  0  0
   -2.3451   25.7438   10.1705 H   0  0  0  0  0  0
   -3.3586   29.9132   11.1970 H   0  0  0  0  0  0
   -2.3417   31.2728   11.6431 H   0  0  0  0  0  0
   -0.7451   33.3603    8.3488 H   0  0  0  0  0  0
    3.1297   31.0615    6.9306 H   0  0  0  0  0  0
    3.5248   29.4533    8.8788 H   0  0  0  0  0  0
    2.3652   28.4716    8.0540 H   0  0  0  0  0  0
    5.0674   29.3369    6.9665 H   0  0  0  0  0  0
    5.1754   27.4665    8.5322 H   0  0  0  0  0  0
    3.9352   26.6103    7.7064 H   0  0  0  0  0  0
    6.6993   27.2257    6.5766 H   0  0  0  0  0  0
    6.0401   25.6582    6.9983 H   0  0  0  0  0  0
    5.9562   26.0502    4.6619 H   0  0  0  0  0  0
    5.6606   28.3929    4.4467 H   0  0  0  0  0  0
    4.3702   27.5015    3.6764 H   0  0  0  0  0  0
    2.8578   27.9271    5.4303 H   0  0  0  0  0  0
    3.5697   29.4515    5.0871 H   0  0  0  0  0  0
  1  5  2  0  0  0
  1  2  1  0  0  0
  1 25  1  0  0  0
  2  3  2  0  0  0
  3  4  1  0  0  0
  3 10  1  0  0  0
  4  5  1  0  0  0
  5  6  1  0  0  0
  6  7  1  0  0  0
  6  8  1  0  0  0
  6  9  1  0  0  0
  7 26  1  0  0  0
  7 27  1  0  0  0
  7 28  1  0  0  0
  8 29  1  0  0  0
  8 30  1  0  0  0
  8 31  1  0  0  0
  9 32  1  0  0  0
  9 33  1  0  0  0
  9 34  1  0  0  0
 10 11  1  0  0  0
 10 35  1  0  0  0
 10 36  1  0  0  0
 11 12  1  0  0  0
 12 13  2  0  0  0
 12 16  1  0  0  0
 13 14  1  0  0  0
 13 37  1  0  0  0
 14 15  2  0  0  0
 15 16  1  0  0  0
 15 17  1  0  0  0
 17 18  1  0  0  0
 17 38  1  0  0  0
 18 19  1  0  0  0
 18 39  1  0  0  0
 18 40  1  0  0  0
 19 20  1  0  0  0
 19 24  1  0  0  0
 19 41  1  0  0  0
 20 21  1  0  0  0
 20 42  1  0  0  0
 20 43  1  0  0  0
 21 22  1  0  0  0
 21 44  1  0  0  0
 21 45  1  0  0  0
 22 23  1  0  0  0
 22 46  1  0  0  0
 23 24  1  0  0  0
 23 47  1  0  0  0
 23 48  1  0  0  0
 24 49  1  0  0  0
 24 50  1  0  0  0
M  END
> <s_m_entry_id>
33065

> <s_m_entry_name>
dock_pv.466

> <s_m_Source_Path>
/home/csk/Desktop/cluster/DUD-E-result/cdk2

> <s_m_Source_File>
dock_pv.maegz

> <i_m_Source_File_Index>
466

> <chembl_id>
CHEMBL524629

> <chembl_pref_name>
None

> <i_lp_mmshare_version>
53161

> <i_f3d_flags>
0

> <r_lp_tautomer_probability>
1

> <s_lp_Force_Field>
OPLS_2005

> <r_lp_Energy>
12.813107

> <b_lp_Chiralities_Consistent>
1

> <s_lp_Variant>
CHEMBL301_lig573-1

> <s_i_glide_gridfile>
glide-grid_1h00

> <i_i_glide_lignum>
804

> <i_i_glide_rotatable_bonds>
7

> <r_i_docking_score>
-7.10475283879036

> <r_i_glide_ligand_efficiency>
-0.296031368282932

> <r_i_glide_ligand_efficiency_sa>
-0.853902226502562

> <r_i_glide_ligand_efficiency_ln>
-1.70049337018683

> <r_i_glide_gscore>
-7.10475283879036

> <r_i_glide_lipo>
-3.24702637620925

> <r_i_glide_hbond>
-0.32

> <r_i_glide_metal>
0

> <r_i_glide_rewards>
-1.98915714258161

> <r_i_glide_evdw>
-34.1624145507812

> <r_i_glide_ecoul>
-4.6669487953186

> <r_i_glide_erotb>
0.859593726837362

> <r_i_glide_esite>
0

> <r_i_glide_emodel>
-52.1771854892393

> <r_i_glide_energy>
-38.8293633460999

> <r_i_glide_einternal>
7.22698879241943

> <i_i_glide_confnum>
14

> <i_i_glide_posenum>
329

> <r_i_glide_eff_state_penalty>
0

> <s_user_duplicate_titles>
CHEMBL301_lig573,494619

> <s_m_subgroup_title>
dock_pv

> <s_m_subgroupid>
dock_pv

> <b_m_subgroup_collapsed>
1

$$$$
CHEMBL301_lig1361
                    3D
 Schrodinger Suite 2021-1.
 47 48  0  0  1  0            999 V2000
    8.4995   24.5699    6.0790 C   0  0  0  0  0  0
    7.4224   25.6578    5.9443 C   0  0  0  0  0  0
    6.2290   25.6018    7.4126 S   0  0  2  0  0  0
    7.1426   25.9955    8.5760 N   0  0  0  0  0  0
    5.4443   24.3646    7.3760 O   0  0  0  0  0  0
    5.1102   27.0014    7.2683 C   0  0  0  0  0  0
    4.4653   27.4930    8.4057 C   0  0  0  0  0  0
    3.6009   28.5750    8.3106 C   0  0  0  0  0  0
    3.3218   29.1384    7.0676 C   0  0  0  0  0  0
    2.4580   30.2346    6.9196 N   0  0  0  0  0  0
    1.3513   30.6526    7.6648 C   0  0  0  0  0  0
    0.9069   31.9090    7.4189 N   0  0  0  0  0  0
   -0.1380   32.3357    8.1761 C   0  0  0  0  0  0
   -0.7436   31.5314    9.1490 C   0  0  0  0  0  0
   -2.2019   32.2120   10.1752 Br  0  0  0  0  0  0
   -0.2174   30.2427    9.3372 C   0  0  0  0  0  0
   -0.7392   29.4006   10.3403 N   0  0  0  0  0  0
   -0.4554   27.9635   10.5539 C   0  0  1  0  0  0
    1.0189   27.5201   10.3872 C   0  0  0  0  0  0
   -0.9781   27.4546   11.9246 C   0  0  2  0  0  0
   -2.4984   27.5431   12.1104 C   0  0  0  0  0  0
   -0.3420   28.1546   12.9760 O   0  0  0  0  0  0
    0.8156   29.8087    8.5762 N   0  0  0  0  0  0
    3.9681   28.6519    5.9320 C   0  0  0  0  0  0
    4.8580   27.5853    6.0256 C   0  0  0  0  0  0
    9.1760   24.5819    5.2238 H   0  0  0  0  0  0
    9.1003   24.7179    6.9774 H   0  0  0  0  0  0
    8.0518   23.5773    6.1374 H   0  0  0  0  0  0
    6.8382   25.5172    5.0363 H   0  0  0  0  0  0
    7.8660   26.6519    5.9176 H   0  0  0  0  0  0
    6.6385   25.9719    9.4646 H   0  0  0  0  0  0
    4.6299   27.0544    9.3748 H   0  0  0  0  0  0
    3.1545   28.9697    9.2088 H   0  0  0  0  0  0
    2.8054   30.9297    6.2739 H   0  0  0  0  0  0
   -0.4838   33.3439    7.9922 H   0  0  0  0  0  0
   -1.4866   29.7887   10.8988 H   0  0  0  0  0  0
   -1.0279   27.4439    9.7838 H   0  0  0  0  0  0
    1.1958   26.5213   10.7876 H   0  0  0  0  0  0
    1.3097   27.4602    9.3434 H   0  0  0  0  0  0
    1.7008   28.1979   10.9011 H   0  0  0  0  0  0
   -0.7043   26.4049   12.0461 H   0  0  0  0  0  0
   -3.0246   26.9355   11.3760 H   0  0  0  0  0  0
   -2.8570   28.5692   12.0227 H   0  0  0  0  0  0
   -2.7867   27.1747   13.0949 H   0  0  0  0  0  0
    0.6111   28.0571   12.8774 H   0  0  0  0  0  0
    3.7873   29.1101    4.9748 H   0  0  0  0  0  0
    5.3431   27.2279    5.1305 H   0  0  0  0  0  0
  1  2  1  0  0  0
  1 26  1  0  0  0
  1 27  1  0  0  0
  1 28  1  0  0  0
  2  3  1  0  0  0
  2 29  1  0  0  0
  2 30  1  0  0  0
  3  4  2  0  0  0
  3  5  2  0  0  0
  3  6  1  0  0  0
  4 31  1  0  0  0
  6  7  2  0  0  0
  6 25  1  0  0  0
  7  8  1  0  0  0
  7 32  1  0  0  0
  8  9  2  0  0  0
  8 33  1  0  0  0
  9 10  1  0  0  0
  9 24  1  0  0  0
 10 11  1  0  0  0
 10 34  1  0  0  0
 11 12  2  0  0  0
 11 23  1  0  0  0
 12 13  1  0  0  0
 13 14  2  0  0  0
 13 35  1  0  0  0
 14 15  1  0  0  0
 14 16  1  0  0  0
 16 17  1  0  0  0
 16 23  2  0  0  0
 17 18  1  0  0  0
 17 36  1  0  0  0
 18 19  1  0  0  0
 18 20  1  0  0  0
 18 37  1  0  0  0
 19 38  1  0  0  0
 19 39  1  0  0  0
 19 40  1  0  0  0
 20 21  1  0  0  0
 20 22  1  0  0  0
 20 41  1  0  0  0
 21 42  1  0  0  0
 21 43  1  0  0  0
 21 44  1  0  0  0
 22 45  1  0  0  0
 24 25  2  0  0  0
 24 46  1  0  0  0
 25 47  1  0  0  0
M  END
> <s_m_entry_id>
33066

> <s_m_entry_name>
dock_pv.467

> <s_m_Source_Path>
/home/csk/Desktop/cluster/DUD-E-result/cdk2

> <s_m_Source_File>
dock_pv.maegz

> <i_m_Source_File_Index>
467

> <chembl_id>
CHEMBL3648122

> <chembl_pref_name>
None

> <i_lp_mmshare_version>
53161

> <i_f3d_flags>
0

> <r_lp_tautomer_probability>
0.999999624730965

> <s_lp_Force_Field>
OPLS_2005

> <r_lp_Energy>
9.458725

> <b_lp_Chiralities_Consistent>
1

> <s_lp_Variant>
CHEMBL301_lig1361-2

> <s_i_glide_gridfile>
glide-grid_1h00

> <i_i_glide_lignum>
1819

> <i_i_glide_rotatable_bonds>
8

> <r_i_docking_score>
-7.10418854016457

> <r_i_glide_ligand_efficiency>
-0.284167541606583

> <r_i_glide_ligand_efficiency_sa>
-0.830910931390458

> <r_i_glide_ligand_efficiency_ln>
-1.68390557936995

> <r_i_glide_gscore>
-7.10418854016457

> <r_i_glide_lipo>
-2.38663296512089

> <r_i_glide_hbond>
-0.489738659102537

> <r_i_glide_metal>
0

> <r_i_glide_rewards>
-1.35870314074324

> <r_i_glide_evdw>
-37.734260559082

> <r_i_glide_ecoul>
-11.6012496948242

> <r_i_glide_erotb>
0.757786706979831

> <r_i_glide_esite>
0

> <r_i_glide_emodel>
-69.1378424939817

> <r_i_glide_energy>
-49.3355102539062

> <r_i_glide_einternal>
4.92096185684204

> <i_i_glide_confnum>
17

> <i_i_glide_posenum>
313

> <r_i_glide_eff_state_penalty>
0

> <s_user_duplicate_titles>
CHEMBL301_lig1361

> <s_m_subgroup_title>
dock_pv

> <s_m_subgroupid>
dock_pv

> <b_m_subgroup_collapsed>
1

$$$$
CHEMBL301_lig595
                    3D
 Schrodinger Suite 2021-1.
 57 60  0  0  1  0            999 V2000
   -1.0137   27.8088   10.9904 C   0  0  0  0  0  0
   -1.9760   28.7752   11.3210 C   0  0  0  0  0  0
   -1.9626   30.0314   10.7202 C   0  0  0  0  0  0
   -0.0077   28.1653   10.0788 C   0  0  0  0  0  0
    0.0520   29.4418    9.4947 C   0  0  0  0  0  0
   -0.9720   30.3545    9.7912 C   0  0  0  0  0  0
   -1.0146   31.7085    9.1189 C   0  0  0  0  0  0
   -0.0616   31.8737    8.1761 N   0  0  0  0  0  0
    0.9520   31.0701    7.7758 C   0  0  0  0  0  0
    1.1594   29.8517    8.5747 C   0  0  0  0  0  0
    1.6559   31.4496    6.8378 O   0  0  0  0  0  0
   -1.8101   32.6141    9.3641 O   0  0  0  0  0  0
    2.3422   29.1843    8.5072 C   0  0  0  0  0  0
    3.4711   29.4616    7.7703 N   0  0  0  0  0  0
    4.7125   28.7099    7.7524 C   0  0  0  0  0  0
    4.6177   27.2900    7.2293 C   0  0  0  0  0  0
    4.5124   26.9817    5.9126 C   0  0  0  0  0  0
    4.4584   25.5884    5.4123 C   0  0  0  0  0  0
    4.5792   24.5641    6.4996 C   0  0  0  0  0  0
    4.7094   24.9681    7.7882 C   0  0  0  0  0  0
    4.7111   26.2905    8.1758 N   0  0  0  0  0  0
    4.3235   25.3390    4.2158 O   0  0  0  0  0  0
   -1.0285   26.3816   11.5946 C   0  0  0  0  0  0
   -1.1991   25.3355   10.4658 C   0  0  0  0  0  0
   -2.1836   26.1606   12.6059 C   0  0  0  0  0  0
    0.2975   26.1153   12.3469 C   0  0  0  0  0  0
    4.6860   23.1187    6.1682 C   0  0  0  0  0  0
    3.7366   22.4915    5.3498 C   0  0  0  0  0  0
    3.8353   21.1348    5.0594 C   0  0  0  0  0  0
    4.8845   20.3886    5.5925 C   0  0  0  0  0  0
    5.8314   20.9917    6.4169 C   0  0  0  0  0  0
    5.7307   22.3511    6.7036 C   0  0  0  0  0  0
   -2.7554   28.5783   12.0425 H   0  0  0  0  0  0
   -2.7404   30.7402   10.9750 H   0  0  0  0  0  0
    0.7355   27.4249    9.8329 H   0  0  0  0  0  0
   -0.1190   32.7464    7.6754 H   0  0  0  0  0  0
    2.5070   28.3025    9.1056 H   0  0  0  0  0  0
    3.4952   30.3071    7.2040 H   0  0  0  0  0  0
    5.3928   29.2536    7.0981 H   0  0  0  0  0  0
    5.1748   28.7298    8.7417 H   0  0  0  0  0  0
    4.4727   27.7908    5.1981 H   0  0  0  0  0  0
    4.8566   24.2624    8.5849 H   0  0  0  0  0  0
    4.8650   26.5131    9.1546 H   0  0  0  0  0  0
   -1.2245   24.3193   10.8600 H   0  0  0  0  0  0
   -0.3852   25.3733    9.7427 H   0  0  0  0  0  0
   -2.1285   25.4872    9.9153 H   0  0  0  0  0  0
   -2.1244   26.8516   13.4477 H   0  0  0  0  0  0
   -3.1610   26.2887   12.1390 H   0  0  0  0  0  0
   -2.1645   25.1526   13.0259 H   0  0  0  0  0  0
    0.4575   26.8515   13.1356 H   0  0  0  0  0  0
    0.3062   25.1299   12.8153 H   0  0  0  0  0  0
    1.1650   26.1557   11.6892 H   0  0  0  0  0  0
    2.9143   23.0511    4.9279 H   0  0  0  0  0  0
    3.1040   20.6702    4.4137 H   0  0  0  0  0  0
    4.9640   19.3356    5.3614 H   0  0  0  0  0  0
    6.6423   20.4103    6.8279 H   0  0  0  0  0  0
    6.4735   22.8087    7.3410 H   0  0  0  0  0  0
  1  4  1  0  0  0
  1 23  1  0  0  0
  1  2  2  0  0  0
  2  3  1  0  0  0
  2 33  1  0  0  0
  3  6  2  0  0  0
  3 34  1  0  0  0
  4  5  2  0  0  0
  4 35  1  0  0  0
  5 10  1  0  0  0
  5  6  1  0  0  0
  6  7  1  0  0  0
  7  8  1  0  0  0
  7 12  2  0  0  0
  8  9  1  0  0  0
  8 36  1  0  0  0
  9 10  1  0  0  0
  9 11  2  0  0  0
 10 13  2  0  0  0
 13 14  1  0  0  0
 13 37  1  0  0  0
 14 15  1  0  0  0
 14 38  1  0  0  0
 15 39  1  0  0  0
 15 40  1  0  0  0
 15 16  1  0  0  0
 16 17  2  0  0  0
 16 21  1  0  0  0
 17 18  1  0  0  0
 17 41  1  0  0  0
 18 22  2  0  0  0
 18 19  1  0  0  0
 19 20  2  0  0  0
 19 27  1  0  0  0
 20 21  1  0  0  0
 20 42  1  0  0  0
 21 43  1  0  0  0
 23 24  1  0  0  0
 23 25  1  0  0  0
 23 26  1  0  0  0
 24 44  1  0  0  0
 24 45  1  0  0  0
 24 46  1  0  0  0
 25 47  1  0  0  0
 25 48  1  0  0  0
 25 49  1  0  0  0
 26 50  1  0  0  0
 26 51  1  0  0  0
 26 52  1  0  0  0
 27 28  2  0  0  0
 27 32  1  0  0  0
 28 29  1  0  0  0
 28 53  1  0  0  0
 29 30  2  0  0  0
 29 54  1  0  0  0
 30 31  1  0  0  0
 30 55  1  0  0  0
 31 32  2  0  0  0
 31 56  1  0  0  0
 32 57  1  0  0  0
M  END
> <s_m_entry_id>
33067

> <s_m_entry_name>
dock_pv.468

> <s_m_Source_Path>
/home/csk/Desktop/cluster/DUD-E-result/cdk2

> <s_m_Source_File>
dock_pv.maegz

> <i_m_Source_File_Index>
468

> <chembl_id>
CHEMBL514678

> <chembl_pref_name>
None

> <i_lp_mmshare_version>
53161

> <i_f3d_flags>
0

> <r_lp_tautomer_probability>
0.49975

> <s_lp_Force_Field>
OPLS_2005

> <r_lp_Energy>
30.873213

> <b_lp_Chiralities_Consistent>
1

> <s_lp_Variant>
CHEMBL301_lig595-1

> <s_i_glide_gridfile>
glide-grid_1h00

> <i_i_glide_lignum>
832

> <i_i_glide_rotatable_bonds>
5

> <r_i_docking_score>
-7.10350215888145

> <r_i_glide_ligand_efficiency>
-0.221984442465045

> <r_i_glide_ligand_efficiency_sa>
-0.704756674165008

> <r_i_glide_ligand_efficiency_ln>
-1.5906677675292

> <r_i_glide_gscore>
-7.10350215888145

> <r_i_glide_lipo>
-2.66089981298659

> <r_i_glide_hbond>
-0.419396691927428

> <r_i_glide_metal>
0

> <r_i_glide_rewards>
-1.52133570778833

> <r_i_glide_evdw>
-47.0293045043945

> <r_i_glide_ecoul>
-3.81975793838501

> <r_i_glide_erotb>
0.434586957753315

> <r_i_glide_esite>
-0.0120279879549388

> <r_i_glide_emodel>
-66.6972070007678

> <r_i_glide_energy>
-50.8490624427795

> <r_i_glide_einternal>
6.57468938827515

> <i_i_glide_confnum>
5

> <i_i_glide_posenum>
192

> <r_i_glide_eff_state_penalty>
0

> <s_user_duplicate_titles>
CHEMBL301_lig595

> <s_m_subgroup_title>
dock_pv

> <s_m_subgroupid>
dock_pv

> <b_m_subgroup_collapsed>
1

$$$$
CHEMBL301_lig697
                    3D
 Schrodinger Suite 2021-1.
 37 39  0  0  1  0            999 V2000
    0.9273   29.8228    8.5835 C   0  0  0  0  0  0
   -0.0491   30.7975    8.5954 C   0  0  0  0  0  0
    0.4803   31.7575    7.7759 N   0  0  0  0  0  0
    1.6532   31.4221    7.2121 N   0  0  0  0  0  0
    1.9591   30.2521    7.7284 C   0  0  0  0  0  0
    3.1562   29.6303    7.3933 N   0  0  0  0  0  0
    3.6881   28.5384    7.9907 C   0  0  0  0  0  0
    5.0166   27.9931    7.3995 C   0  0  2  0  0  0
    3.1719   27.9707    8.9580 O   0  0  0  0  0  0
   -1.3723   30.9035    9.3313 C   0  0  0  0  0  0
   -1.7857   32.1853   10.0106 C   0  0  0  0  0  0
   -2.5328   31.6987    8.7834 C   0  0  0  0  0  0
    4.7419   27.1481    6.1455 C   0  0  0  0  0  0
    4.7366   27.7627    4.8881 C   0  0  0  0  0  0
    4.4649   27.0130    3.7470 C   0  0  0  0  0  0
    4.1900   25.6541    3.8635 C   0  0  0  0  0  0
    4.1827   25.0332    5.1080 C   0  0  0  0  0  0
    4.4573   25.7807    6.2479 C   0  0  0  0  0  0
    5.6883   27.2513    8.4294 O   0  0  0  0  0  0
    6.7991   26.4070    8.1148 C   0  0  0  0  0  0
    0.8939   28.8981    9.1392 H   0  0  0  0  0  0
    0.0258   32.6349    7.5678 H   0  0  0  0  0  0
    3.7178   30.1109    6.6998 H   0  0  0  0  0  0
    5.6582   28.8303    7.1236 H   0  0  0  0  0  0
   -1.6390   29.9886    9.8641 H   0  0  0  0  0  0
   -2.2805   32.1233   10.9809 H   0  0  0  0  0  0
   -1.1329   33.0544    9.9345 H   0  0  0  0  0  0
   -2.4260   32.2518    7.8536 H   0  0  0  0  0  0
   -3.5384   31.2918    8.9027 H   0  0  0  0  0  0
    4.9524   28.8176    4.7939 H   0  0  0  0  0  0
    4.4649   27.4729    2.7705 H   0  0  0  0  0  0
    3.9758   25.0760    2.9780 H   0  0  0  0  0  0
    3.9529   23.9811    5.1895 H   0  0  0  0  0  0
    4.4107   25.3027    7.2154 H   0  0  0  0  0  0
    7.5349   26.4627    8.9184 H   0  0  0  0  0  0
    6.4792   25.3668    8.0618 H   0  0  0  0  0  0
    7.2934   26.6508    7.1735 H   0  0  0  0  0  0
  1  5  1  0  0  0
  1  2  2  0  0  0
  1 21  1  0  0  0
  2 10  1  0  0  0
  2  3  1  0  0  0
  3  4  1  0  0  0
  3 22  1  0  0  0
  4  5  2  0  0  0
  5  6  1  0  0  0
  6  7  1  0  0  0
  6 23  1  0  0  0
  7  8  1  0  0  0
  7  9  2  0  0  0
  8 13  1  0  0  0
  8 19  1  0  0  0
  8 24  1  0  0  0
 10 11  1  0  0  0
 10 12  1  0  0  0
 10 25  1  0  0  0
 11 12  1  0  0  0
 11 26  1  0  0  0
 11 27  1  0  0  0
 12 28  1  0  0  0
 12 29  1  0  0  0
 13 14  2  0  0  0
 13 18  1  0  0  0
 14 15  1  0  0  0
 14 30  1  0  0  0
 15 16  2  0  0  0
 15 31  1  0  0  0
 16 17  1  0  0  0
 16 32  1  0  0  0
 17 18  2  0  0  0
 17 33  1  0  0  0
 18 34  1  0  0  0
 19 20  1  0  0  0
 20 35  1  0  0  0
 20 36  1  0  0  0
 20 37  1  0  0  0
M  END
> <s_m_entry_id>
33068

> <s_m_entry_name>
dock_pv.469

> <s_m_Source_Path>
/home/csk/Desktop/cluster/DUD-E-result/cdk2

> <s_m_Source_File>
dock_pv.maegz

> <i_m_Source_File_Index>
469

> <chembl_id>
CHEMBL190154

> <chembl_pref_name>
None

> <i_lp_mmshare_version>
53161

> <i_f3d_flags>
0

> <r_lp_tautomer_probability>
0.5

> <s_lp_Force_Field>
OPLS_2005

> <r_lp_Energy>
17.721843

> <b_lp_Chiralities_Consistent>
1

> <s_lp_Variant>
CHEMBL301_lig697-1

> <s_i_glide_gridfile>
glide-grid_1h00

> <i_i_glide_lignum>
978

> <i_i_glide_rotatable_bonds>
6

> <r_i_docking_score>
-7.10258305939067

> <r_i_glide_ligand_efficiency>
-0.355129152969534

> <r_i_glide_ligand_efficiency_sa>
-0.963968828024332

> <r_i_glide_ligand_efficiency_ln>
-1.77754228089794

> <r_i_glide_gscore>
-7.10258305939067

> <r_i_glide_lipo>
-2.56030493911072

> <r_i_glide_hbond>
-0.32

> <r_i_glide_metal>
0

> <r_i_glide_rewards>
-3.01245687445227

> <r_i_glide_evdw>
-32.180290222168

> <r_i_glide_ecoul>
-3.82386469841003

> <r_i_glide_erotb>
0.972772970042216

> <r_i_glide_esite>
0

> <r_i_glide_emodel>
-48.2357289884109

> <r_i_glide_energy>
-36.004154920578

> <r_i_glide_einternal>
7.46660709381104

> <i_i_glide_confnum>
12

> <i_i_glide_posenum>
238

> <r_i_glide_eff_state_penalty>
0

> <s_user_duplicate_titles>
CHEMBL301_lig697

> <s_m_subgroup_title>
dock_pv

> <s_m_subgroupid>
dock_pv

> <b_m_subgroup_collapsed>
1

$$$$
CHEMBL301_lig560
                    3D
 Schrodinger Suite 2021-1.
 51 54  0  0  1  0            999 V2000
   -2.7393   28.6532   11.3761 N   0  0  0  0  0  0
   -2.3426   29.6575   10.6273 C   0  0  0  0  0  0
   -1.1219   29.4500    9.9865 C   0  0  0  0  0  0
   -1.7530   27.7394   11.3139 N   0  0  0  0  0  0
   -0.7283   28.1550   10.4438 C   0  0  0  0  0  0
    0.3349   27.2455   10.2799 C   0  0  0  0  0  0
    0.2941   26.0293   10.9629 C   0  0  0  0  0  0
   -0.7903   25.7407   11.7890 C   0  0  0  0  0  0
   -1.8398   26.5780   11.9891 N   0  0  0  0  0  0
   -0.4128   30.3889    9.0679 C   0  0  0  0  0  0
   -0.7342   31.7464    8.9737 C   0  0  0  0  0  0
    0.0530   32.5230    8.1203 C   0  0  0  0  0  0
    1.0717   32.0040    7.3762 N   0  0  0  0  0  0
    1.3294   30.6829    7.5554 C   0  0  0  0  0  0
    0.6141   29.8526    8.3615 N   0  0  0  0  0  0
    2.4577   30.1862    6.8876 N   0  0  0  0  0  0
    3.2580   29.0766    7.1964 C   0  0  0  0  0  0
    4.0582   28.5010    6.2016 C   0  0  0  0  0  0
    4.8949   27.4134    6.4987 C   0  0  0  0  0  0
    4.8685   26.8771    7.7879 C   0  0  0  0  0  0
    4.0728   27.4525    8.7747 C   0  0  0  0  0  0
    3.3122   28.5711    8.4952 C   0  0  0  0  0  0
    5.7976   26.7821    5.4332 C   0  0  0  0  0  0
    5.2752   25.5698    4.7748 N   0  0  0  0  0  0
    5.1783   24.4308    5.6973 C   0  0  0  0  0  0
    4.0417   25.7843    4.0094 C   0  0  0  0  0  0
    4.1782   26.8244    2.8834 C   0  0  0  0  0  0
    5.0450   23.0785    4.9752 C   0  0  0  0  0  0
   -2.9592   30.5420   10.5480 H   0  0  0  0  0  0
    1.1630   27.4721    9.6304 H   0  0  0  0  0  0
    1.0991   25.3175   10.8504 H   0  0  0  0  0  0
   -0.8340   24.8030   12.3224 H   0  0  0  0  0  0
   -1.5350   32.1877    9.5485 H   0  0  0  0  0  0
   -0.1389   33.5782    8.0037 H   0  0  0  0  0  0
    2.9622   30.8796    6.3484 H   0  0  0  0  0  0
    4.0525   28.9220    5.2079 H   0  0  0  0  0  0
    5.4844   26.0256    8.0400 H   0  0  0  0  0  0
    4.0571   27.0545    9.7751 H   0  0  0  0  0  0
    2.7662   29.0333    9.3013 H   0  0  0  0  0  0
    6.7590   26.5443    5.8895 H   0  0  0  0  0  0
    6.0219   27.5206    4.6633 H   0  0  0  0  0  0
    4.3424   24.5591    6.3870 H   0  0  0  0  0  0
    6.0854   24.3924    6.3051 H   0  0  0  0  0  0
    3.7239   24.8529    3.5398 H   0  0  0  0  0  0
    3.2572   26.0745    4.7030 H   0  0  0  0  0  0
    3.2776   26.8425    2.2687 H   0  0  0  0  0  0
    4.3289   27.8296    3.2669 H   0  0  0  0  0  0
    5.0161   26.5834    2.2278 H   0  0  0  0  0  0
    5.1675   22.2551    5.6785 H   0  0  0  0  0  0
    5.8061   22.9698    4.2018 H   0  0  0  0  0  0
    4.0689   22.9551    4.5059 H   0  0  0  0  0  0
  1  4  1  0  0  0
  1  2  2  0  0  0
  2  3  1  0  0  0
  2 29  1  0  0  0
  3  5  2  0  0  0
  3 10  1  0  0  0
  4  5  1  0  0  0
  4  9  1  0  0  0
  5  6  1  0  0  0
  6  7  2  0  0  0
  6 30  1  0  0  0
  7  8  1  0  0  0
  7 31  1  0  0  0
  8  9  2  0  0  0
  8 32  1  0  0  0
 10 15  1  0  0  0
 10 11  2  0  0  0
 11 12  1  0  0  0
 11 33  1  0  0  0
 12 13  2  0  0  0
 12 34  1  0  0  0
 13 14  1  0  0  0
 14 15  2  0  0  0
 14 16  1  0  0  0
 16 17  1  0  0  0
 16 35  1  0  0  0
 17 18  2  0  0  0
 17 22  1  0  0  0
 18 19  1  0  0  0
 18 36  1  0  0  0
 19 20  2  0  0  0
 19 23  1  0  0  0
 20 21  1  0  0  0
 20 37  1  0  0  0
 21 22  2  0  0  0
 21 38  1  0  0  0
 22 39  1  0  0  0
 23 24  1  0  0  0
 23 40  1  0  0  0
 23 41  1  0  0  0
 24 25  1  0  0  0
 24 26  1  0  0  0
 25 28  1  0  0  0
 25 42  1  0  0  0
 25 43  1  0  0  0
 26 27  1  0  0  0
 26 44  1  0  0  0
 26 45  1  0  0  0
 27 46  1  0  0  0
 27 47  1  0  0  0
 27 48  1  0  0  0
 28 49  1  0  0  0
 28 50  1  0  0  0
 28 51  1  0  0  0
M  END
> <s_m_entry_id>
33069

> <s_m_entry_name>
dock_pv.470

> <s_m_Source_Path>
/home/csk/Desktop/cluster/DUD-E-result/cdk2

> <s_m_Source_File>
dock_pv.maegz

> <i_m_Source_File_Index>
470

> <chembl_id>
CHEMBL513354

> <chembl_pref_name>
None

> <i_lp_mmshare_version>
53161

> <i_f3d_flags>
0

> <r_lp_tautomer_probability>
0.999999987636

> <s_lp_Force_Field>
OPLS_2005

> <r_lp_Energy>
24.934985

> <b_lp_Chiralities_Consistent>
1

> <s_lp_Variant>
CHEMBL301_lig560-1

> <s_i_glide_gridfile>
glide-grid_1h00

> <i_i_glide_lignum>
790

> <i_i_glide_rotatable_bonds>
7

> <r_i_docking_score>
-7.09986805562609

> <r_i_glide_ligand_efficiency>
-0.25356671627236

> <r_i_glide_ligand_efficiency_sa>
-0.769977893412133

> <r_i_glide_ligand_efficiency_ln>
-1.63885800842282

> <r_i_glide_gscore>
-7.09986805562609

> <r_i_glide_lipo>
-2.58180455469573

> <r_i_glide_hbond>
-0.268810908510299

> <r_i_glide_metal>
0

> <r_i_glide_rewards>
-2.41574211419257

> <r_i_glide_evdw>
-39.1291809082031

> <r_i_glide_ecoul>
-3.79914617538452

> <r_i_glide_erotb>
0.692820493490343

> <r_i_glide_esite>
0

> <r_i_glide_emodel>
-60.4409870898493

> <r_i_glide_energy>
-42.9283270835876

> <r_i_glide_einternal>
2.88488459587097

> <i_i_glide_confnum>
40

> <i_i_glide_posenum>
135

> <r_i_glide_eff_state_penalty>
0

> <s_user_duplicate_titles>
CHEMBL301_lig560,495239

> <s_m_subgroup_title>
dock_pv

> <s_m_subgroupid>
dock_pv

> <b_m_subgroup_collapsed>
1

$$$$
CHEMBL301_lig177
                    3D
 Schrodinger Suite 2021-1.
 39 42  0  0  1  0            999 V2000
    0.7962   27.4989   10.6480 C   0  0  0  0  0  0
    1.8017   26.4029   10.8810 C   0  0  0  0  0  0
    1.3423   28.3367    9.7136 C   0  0  0  0  0  0
   -0.4815   27.7893   11.1449 C   0  0  0  0  0  0
    2.8579   26.7645   10.1212 N   0  0  0  0  0  0
    2.6010   27.9060    9.3759 C   0  0  0  0  0  0
    0.7005   29.4523    9.1512 C   0  0  0  0  0  0
   -0.6203   29.7264    9.6055 C   0  0  0  0  0  0
   -1.1767   28.8894   10.6046 C   0  0  0  0  0  0
   -1.1145   26.9901   12.2326 C   0  0  0  0  0  0
   -0.3975   26.4576   13.2785 N   0  0  0  0  0  0
    1.4398   30.1619    8.1560 C   0  0  0  0  0  0
    1.7346   25.4054   11.5966 O   0  0  0  0  0  0
    3.3229   28.6102    8.4142 C   0  0  0  0  0  0
   -2.4418   26.6420   12.4644 C   0  0  0  0  0  0
   -1.2202   25.7579   14.1216 C   0  0  0  0  0  0
   -2.5067   25.8571   13.6224 C   0  0  0  0  0  0
    2.7279   29.7246    7.8032 C   0  0  0  0  0  0
   -1.2712   30.7956    9.0186 O   0  0  0  0  0  0
    0.9162   31.2367    7.5232 F   0  0  0  0  0  0
   -2.9078   31.8161   10.5199 C   0  0  0  0  0  0
   -2.7409   33.9231   11.6531 O   0  0  0  0  0  0
   -2.6599   31.0152    9.2354 C   0  0  0  0  0  0
   -2.2054   33.1800   10.5765 C   0  0  0  0  0  0
    3.7586   26.2930   10.1728 H   0  0  0  0  0  0
   -2.1644   29.0873   10.9888 H   0  0  0  0  0  0
    0.6071   26.5433   13.3752 H   0  0  0  0  0  0
    4.3134   28.2977    8.1155 H   0  0  0  0  0  0
   -3.2819   26.9088   11.8403 H   0  0  0  0  0  0
   -0.8142   25.2498   14.9810 H   0  0  0  0  0  0
   -3.4010   25.4238   14.0448 H   0  0  0  0  0  0
    3.2582   30.2522    7.0276 H   0  0  0  0  0  0
   -3.9842   31.9430   10.6345 H   0  0  0  0  0  0
   -2.5747   31.2347   11.3744 H   0  0  0  0  0  0
   -3.6006   34.2614   11.3766 H   0  0  0  0  0  0
   -3.0376   31.5815    8.3823 H   0  0  0  0  0  0
   -3.2220   30.0806    9.2332 H   0  0  0  0  0  0
   -1.1238   33.0533   10.6553 H   0  0  0  0  0  0
   -2.3413   33.7338    9.6505 H   0  0  0  0  0  0
  1  2  1  0  0  0
  1  3  1  0  0  0
  1  4  2  0  0  0
  2  5  1  0  0  0
  2 13  2  0  0  0
  3  6  1  0  0  0
  3  7  2  0  0  0
  4  9  1  0  0  0
  4 10  1  0  0  0
  5  6  1  0  0  0
  5 25  1  0  0  0
  6 14  2  0  0  0
  7 12  1  0  0  0
  7  8  1  0  0  0
  8  9  2  0  0  0
  8 19  1  0  0  0
  9 26  1  0  0  0
 10 11  1  0  0  0
 10 15  2  0  0  0
 11 16  1  0  0  0
 11 27  1  0  0  0
 12 18  2  0  0  0
 12 20  1  0  0  0
 14 18  1  0  0  0
 14 28  1  0  0  0
 15 17  1  0  0  0
 15 29  1  0  0  0
 16 17  2  0  0  0
 16 30  1  0  0  0
 17 31  1  0  0  0
 18 32  1  0  0  0
 19 23  1  0  0  0
 21 23  1  0  0  0
 21 24  1  0  0  0
 21 33  1  0  0  0
 21 34  1  0  0  0
 22 24  1  0  0  0
 22 35  1  0  0  0
 23 36  1  0  0  0
 23 37  1  0  0  0
 24 38  1  0  0  0
 24 39  1  0  0  0
M  END
> <s_m_entry_id>
33070

> <s_m_entry_name>
dock_pv.471

> <s_m_Source_Path>
/home/csk/Desktop/cluster/DUD-E-result/cdk2

> <s_m_Source_File>
dock_pv.maegz

> <i_m_Source_File_Index>
471

> <chembl_id>
CHEMBL79364

> <chembl_pref_name>
None

> <i_lp_mmshare_version>
53161

> <i_f3d_flags>
0

> <r_lp_tautomer_probability>
1

> <s_lp_Force_Field>
OPLS_2005

> <r_lp_Energy>
61.697532

> <b_lp_Chiralities_Consistent>
1

> <s_lp_Variant>
CHEMBL301_lig177-1

> <s_i_glide_gridfile>
glide-grid_1h00

> <i_i_glide_lignum>
318

> <i_i_glide_rotatable_bonds>
6

> <r_i_docking_score>
-7.09950541621375

> <r_i_glide_ligand_efficiency>
-0.295812725675573

> <r_i_glide_ligand_efficiency_sa>
-0.853271552090203

> <r_i_glide_ligand_efficiency_ln>
-1.69923742117571

> <r_i_glide_gscore>
-7.09950541621375

> <r_i_glide_lipo>
-2.56918499370091

> <r_i_glide_hbond>
-0.483408521398836

> <r_i_glide_metal>
0

> <r_i_glide_rewards>
-1.77531274610589

> <r_i_glide_evdw>
-36.9580383300781

> <r_i_glide_ecoul>
-8.23881530761719

> <r_i_glide_erotb>
0.880547296078304

> <r_i_glide_esite>
-0.0684222384399388

> <r_i_glide_emodel>
-62.9098567319868

> <r_i_glide_energy>
-45.1968536376953

> <r_i_glide_einternal>
2.947270154953

> <i_i_glide_confnum>
99

> <i_i_glide_posenum>
213

> <r_i_glide_eff_state_penalty>
0

> <s_user_duplicate_titles>
CHEMBL301_lig177,130863

> <s_m_subgroup_title>
dock_pv

> <s_m_subgroupid>
dock_pv

> <b_m_subgroup_collapsed>
1

$$$$
CHEMBL301_lig1476
                    3D
 Schrodinger Suite 2021-1.
 56 59  0  0  1  0            999 V2000
   -0.1130   19.9918   15.8934 C   0  0  0  0  0  0
   -1.1443   21.5443   15.6750 S   0  0  2  0  0  0
   -0.0996   22.6520   15.7647 N   0  0  0  0  0  0
   -2.3143   21.4890   16.5563 O   0  0  0  0  0  0
   -1.6906   21.5736   13.8608 C   0  0  0  0  0  0
   -0.5692   21.8039   12.8543 C   0  0  0  0  0  0
    0.2241   20.7371   12.4259 C   0  0  0  0  0  0
    1.2213   20.9394   11.4757 C   0  0  0  0  0  0
    1.4350   22.2136   10.9508 C   0  0  0  0  0  0
    0.6621   23.2965   11.3760 C   0  0  0  0  0  0
    0.9133   24.5435   10.7793 N   0  0  0  0  0  0
    0.5626   25.8570   11.1158 C   0  0  0  0  0  0
   -0.0390   26.1258   12.3063 N   0  0  0  0  0  0
   -0.3429   27.4243   12.5595 C   0  0  0  0  0  0
   -0.0460   28.4483   11.6611 C   0  0  0  0  0  0
   -0.3480   29.7327   11.9632 F   0  0  0  0  0  0
    0.5721   28.0872   10.4515 C   0  0  0  0  0  0
    0.8782   26.7878   10.1787 N   0  0  0  0  0  0
    0.8859   29.0808    9.3836 C   0  0  0  0  0  0
   -0.1044   30.0066    9.0243 C   0  0  0  0  0  0
    0.1425   30.9910    8.0751 C   0  0  0  0  0  0
    1.3804   31.0517    7.4501 C   0  0  0  0  0  0
    1.6580   32.0406    6.5754 F   0  0  0  0  0  0
    2.3658   30.1296    7.7759 C   0  0  0  0  0  0
    2.1497   29.1443    8.7535 C   0  0  0  0  0  0
    3.1318   28.2522    9.1593 O   0  0  0  0  0  0
    4.4351   28.2572    8.5653 C   0  0  0  0  0  0
    4.4605   27.3746    7.3258 C   0  0  0  0  0  0
    4.4686   27.9387    6.0462 C   0  0  0  0  0  0
    4.4670   27.1169    4.9230 C   0  0  0  0  0  0
    4.4577   25.7333    5.0803 C   0  0  0  0  0  0
    4.4577   25.1622    6.3519 C   0  0  0  0  0  0
    4.4607   25.9842    7.4774 C   0  0  0  0  0  0
   -0.3441   23.0804   12.3283 C   0  0  0  0  0  0
    0.7274   20.0207   15.2020 H   0  0  0  0  0  0
    0.2405   19.9515   16.9212 H   0  0  0  0  0  0
   -0.7412   19.1272   15.6783 H   0  0  0  0  0  0
    0.0246   23.1267   14.8803 H   0  0  0  0  0  0
   -2.4432   22.3574   13.7826 H   0  0  0  0  0  0
   -2.1933   20.6262   13.6615 H   0  0  0  0  0  0
    0.0581   19.7398   12.8108 H   0  0  0  0  0  0
    1.8177   20.1038   11.1392 H   0  0  0  0  0  0
    2.1968   22.3511   10.1973 H   0  0  0  0  0  0
    1.3895   24.4932    9.8900 H   0  0  0  0  0  0
   -0.8211   27.6427   13.5020 H   0  0  0  0  0  0
   -1.0746   29.9789    9.4989 H   0  0  0  0  0  0
   -0.6168   31.7197    7.8344 H   0  0  0  0  0  0
    3.3126   30.2450    7.2823 H   0  0  0  0  0  0
    5.1310   27.8425    9.2942 H   0  0  0  0  0  0
    4.8292   29.2562    8.3724 H   0  0  0  0  0  0
    4.4931   29.0102    5.9123 H   0  0  0  0  0  0
    4.4782   27.5508    3.9336 H   0  0  0  0  0  0
    4.4527   25.0967    4.2058 H   0  0  0  0  0  0
    4.4440   24.0873    6.4624 H   0  0  0  0  0  0
    4.4521   25.5454    8.4662 H   0  0  0  0  0  0
   -0.9846   23.8866   12.6449 H   0  0  0  0  0  0
  1  2  1  0  0  0
  1 35  1  0  0  0
  1 36  1  0  0  0
  1 37  1  0  0  0
  2  3  2  0  0  0
  2  4  2  0  0  0
  2  5  1  0  0  0
  3 38  1  0  0  0
  5  6  1  0  0  0
  5 39  1  0  0  0
  5 40  1  0  0  0
  6  7  2  0  0  0
  6 34  1  0  0  0
  7  8  1  0  0  0
  7 41  1  0  0  0
  8  9  2  0  0  0
  8 42  1  0  0  0
  9 10  1  0  0  0
  9 43  1  0  0  0
 10 11  1  0  0  0
 10 34  2  0  0  0
 11 12  1  0  0  0
 11 44  1  0  0  0
 12 13  2  0  0  0
 12 18  1  0  0  0
 13 14  1  0  0  0
 14 15  2  0  0  0
 14 45  1  0  0  0
 15 16  1  0  0  0
 15 17  1  0  0  0
 17 18  2  0  0  0
 17 19  1  0  0  0
 19 20  2  0  0  0
 19 25  1  0  0  0
 20 21  1  0  0  0
 20 46  1  0  0  0
 21 22  2  0  0  0
 21 47  1  0  0  0
 22 23  1  0  0  0
 22 24  1  0  0  0
 24 25  2  0  0  0
 24 48  1  0  0  0
 25 26  1  0  0  0
 26 27  1  0  0  0
 27 28  1  0  0  0
 27 49  1  0  0  0
 27 50  1  0  0  0
 28 29  2  0  0  0
 28 33  1  0  0  0
 29 30  1  0  0  0
 29 51  1  0  0  0
 30 31  2  0  0  0
 30 52  1  0  0  0
 31 32  1  0  0  0
 31 53  1  0  0  0
 32 33  2  0  0  0
 32 54  1  0  0  0
 33 55  1  0  0  0
 34 56  1  0  0  0
M  END
> <s_m_entry_id>
33071

> <s_m_entry_name>
dock_pv.472

> <s_m_Source_Path>
/home/csk/Desktop/cluster/DUD-E-result/cdk2

> <s_m_Source_File>
dock_pv.maegz

> <i_m_Source_File_Index>
472

> <chembl_id>
CHEMBL3927078

> <chembl_pref_name>
None

> <i_lp_mmshare_version>
53161

> <i_f3d_flags>
0

> <r_lp_tautomer_probability>
0.999999987636

> <s_lp_Force_Field>
OPLS_2005

> <r_lp_Energy>
16.382885

> <b_lp_Chiralities_Consistent>
1

> <s_lp_Variant>
CHEMBL301_lig1476-2

> <s_i_glide_gridfile>
glide-grid_1h00

> <i_i_glide_lignum>
1993

> <i_i_glide_rotatable_bonds>
8

> <r_i_docking_score>
-7.09902035863547

> <r_i_glide_ligand_efficiency>
-0.208794716430455

> <r_i_glide_ligand_efficiency_sa>
-0.676413826597395

> <r_i_glide_ligand_efficiency_ln>
-1.56837271799896

> <r_i_glide_gscore>
-7.09902035863547

> <r_i_glide_lipo>
-3.26484691658126

> <r_i_glide_hbond>
0

> <r_i_glide_metal>
0

> <r_i_glide_rewards>
-0.909858807651206

> <r_i_glide_evdw>
-49.7568130493164

> <r_i_glide_ecoul>
-7.32188653945923

> <r_i_glide_erotb>
0.70260288603447

> <r_i_glide_esite>
-0.0407938870527717

> <r_i_glide_emodel>
-80.4770447875845

> <r_i_glide_energy>
-57.0786995887756

> <r_i_glide_einternal>
4.29470109939575

> <i_i_glide_confnum>
92

> <i_i_glide_posenum>
45

> <r_i_glide_eff_state_penalty>
0

> <s_user_duplicate_titles>
CHEMBL301_lig1476

> <s_m_subgroup_title>
dock_pv

> <s_m_subgroupid>
dock_pv

> <b_m_subgroup_collapsed>
1

$$$$
CHEMBL301_lig280
                    3D
 Schrodinger Suite 2021-1.
 38 40  0  0  1  0            999 V2000
   -1.6990   26.0622   14.0468 S   0  0  0  0  0  0
    2.6024   28.4832    8.9764 C   0  0  0  0  0  0
    2.8526   29.7841    7.2812 N   0  0  0  0  0  0
    1.5831   29.4462    8.9347 C   0  0  0  0  0  0
    3.3829   28.6572    7.8494 C   0  0  0  0  0  0
    1.7642   30.2520    7.9112 N   0  0  0  0  0  0
   -0.9826   27.0925   12.7709 C   0  0  0  0  0  0
    0.5037   29.6179    9.7659 N   0  0  0  0  0  0
   -1.3751   24.6627   13.7513 O   0  0  0  0  0  0
   -1.3742   26.6475   15.3496 O   0  0  0  0  0  0
    4.4807   27.8267    7.2921 C   0  0  0  0  0  0
   -3.4117   26.2520   13.8405 N   0  0  0  0  0  0
   -1.0767   28.4792   12.8875 C   0  0  0  0  0  0
   -0.3739   26.5234   11.6510 C   0  0  0  0  0  0
    4.5642   27.5535    5.9244 C   0  0  0  0  0  0
    5.3726   27.2221    8.1759 C   0  0  0  0  0  0
    0.0397   28.7395   10.7594 C   0  0  0  0  0  0
    6.3974   26.0403    6.3472 C   0  0  0  0  0  0
    7.3577   25.1508    5.8759 N   0  0  0  0  0  0
    0.1342   27.3473   10.6479 C   0  0  0  0  0  0
   -0.5765   29.2961   11.8783 C   0  0  0  0  0  0
    6.3236   26.3173    7.7102 C   0  0  0  0  0  0
    5.5196   26.6523    5.4531 C   0  0  0  0  0  0
    2.7196   27.6992    9.7077 H   0  0  0  0  0  0
    3.2374   30.2399    6.4630 H   0  0  0  0  0  0
    0.1500   30.5552    9.8771 H   0  0  0  0  0  0
   -3.9411   25.4907   14.2636 H   0  0  0  0  0  0
   -3.7204   27.1800   14.1759 H   0  0  0  0  0  0
   -1.5421   28.9278   13.7521 H   0  0  0  0  0  0
   -0.3046   25.4505   11.5479 H   0  0  0  0  0  0
    3.8697   28.0050    5.2315 H   0  0  0  0  0  0
    5.3144   27.4520    9.2300 H   0  0  0  0  0  0
    7.5087   25.1159    4.8785 H   0  0  0  0  0  0
    8.1107   24.8995    6.4971 H   0  0  0  0  0  0
    0.5771   26.8939    9.7761 H   0  0  0  0  0  0
   -0.6687   30.3654   11.9753 H   0  0  0  0  0  0
    6.9952   25.8469    8.4122 H   0  0  0  0  0  0
    5.5732   26.4358    4.3960 H   0  0  0  0  0  0
  1  7  1  0  0  0
  1  9  2  0  0  0
  1 10  2  0  0  0
  1 12  1  0  0  0
  2  4  1  0  0  0
  2  5  2  0  0  0
  2 24  1  0  0  0
  3  5  1  0  0  0
  3 25  1  0  0  0
  3  6  1  0  0  0
  4  6  2  0  0  0
  4  8  1  0  0  0
  5 11  1  0  0  0
  7 13  2  0  0  0
  7 14  1  0  0  0
  8 17  1  0  0  0
  8 26  1  0  0  0
 11 15  2  0  0  0
 11 16  1  0  0  0
 12 27  1  0  0  0
 12 28  1  0  0  0
 13 21  1  0  0  0
 13 29  1  0  0  0
 14 20  2  0  0  0
 14 30  1  0  0  0
 15 23  1  0  0  0
 15 31  1  0  0  0
 16 22  2  0  0  0
 16 32  1  0  0  0
 17 20  1  0  0  0
 17 21  2  0  0  0
 18 22  1  0  0  0
 18 19  1  0  0  0
 18 23  2  0  0  0
 19 33  1  0  0  0
 19 34  1  0  0  0
 20 35  1  0  0  0
 21 36  1  0  0  0
 22 37  1  0  0  0
 23 38  1  0  0  0
M  END
> <s_m_entry_id>
33072

> <s_m_entry_name>
dock_pv.473

> <s_m_Source_Path>
/home/csk/Desktop/cluster/DUD-E-result/cdk2

> <s_m_Source_File>
dock_pv.maegz

> <i_m_Source_File_Index>
473

> <chembl_id>
CHEMBL321517

> <chembl_pref_name>
None

> <i_lp_mmshare_version>
53161

> <i_f3d_flags>
0

> <r_lp_tautomer_probability>
0.842599999161192

> <s_lp_Force_Field>
OPLS_2005

> <r_lp_Energy>
19.817621

> <b_lp_Chiralities_Consistent>
1

> <s_lp_Variant>
CHEMBL301_lig280-1

> <s_i_glide_gridfile>
glide-grid_1h00

> <i_i_glide_lignum>
442

> <i_i_glide_rotatable_bonds>
4

> <r_i_docking_score>
-7.09702274910733

> <r_i_glide_ligand_efficiency>
-0.308566206482927

> <r_i_glide_ligand_efficiency_sa>
-0.877521244797703

> <r_i_glide_ligand_efficiency_ln>
-1.71612445297854

> <r_i_glide_gscore>
-7.09702274910733

> <r_i_glide_lipo>
-2.57167821868936

> <r_i_glide_hbond>
-0.386012983116453

> <r_i_glide_metal>
0

> <r_i_glide_rewards>
-1.62588893593447

> <r_i_glide_evdw>
-34.855583190918

> <r_i_glide_ecoul>
-7.40727615356445

> <r_i_glide_erotb>
0.519700572398417

> <r_i_glide_esite>
-0.179272601184902

> <r_i_glide_emodel>
-59.2363574294785

> <r_i_glide_energy>
-42.2628593444824

> <r_i_glide_einternal>
4.52899360656738

> <i_i_glide_confnum>
2

> <i_i_glide_posenum>
185

> <r_i_glide_eff_state_penalty>
0

> <s_user_duplicate_titles>
CHEMBL301_lig280,166118

> <s_m_subgroup_title>
dock_pv

> <s_m_subgroupid>
dock_pv

> <b_m_subgroup_collapsed>
1

$$$$
CHEMBL301_lig1287
                    3D
 Schrodinger Suite 2021-1.
 37 40  0  0  1  0            999 V2000
   -0.0880   31.9578    8.2782 C   0  0  0  0  0  0
    0.8589   32.4376    7.3763 C   0  0  0  0  0  0
    1.8576   31.6613    6.8844 N   0  0  0  0  0  0
    1.9239   30.3879    7.3522 C   0  0  0  0  0  0
    1.0780   29.8520    8.2654 N   0  0  0  0  0  0
    0.0564   30.6309    8.6977 C   0  0  0  0  0  0
   -0.8644   29.9949    9.6743 C   0  0  0  0  0  0
   -2.1162   30.4660   10.0298 C   0  0  0  0  0  0
   -2.6685   29.6485   10.9760 N   0  0  0  0  0  0
   -0.6451   28.8037   10.4671 C   0  0  0  0  0  0
   -1.8031   28.6248   11.2764 C   0  0  0  0  0  0
   -1.8879   27.5639   12.1797 C   0  0  0  0  0  0
   -0.8698   26.6764   12.3003 N   0  0  0  0  0  0
    0.2331   26.8327   11.5299 C   0  0  0  0  0  0
    0.3988   27.8676   10.6086 C   0  0  0  0  0  0
    2.9698   29.5174    6.7963 C   0  0  0  0  0  0
    3.5798   28.5103    7.4524 C   0  0  0  0  0  0
    4.5872   27.5898    6.8940 C   0  0  0  0  0  0
    4.7122   27.3746    5.5153 C   0  0  0  0  0  0
    5.6529   26.4699    5.0301 C   0  0  0  0  0  0
    6.4781   25.7875    5.9212 C   0  0  0  0  0  0
    6.3673   25.9982    7.2932 C   0  0  0  0  0  0
    5.4232   26.9002    7.7758 C   0  0  0  0  0  0
   -0.8814   32.5932    8.6415 H   0  0  0  0  0  0
    0.8125   33.4518    7.0170 H   0  0  0  0  0  0
   -2.6560   31.3466    9.7103 H   0  0  0  0  0  0
   -3.5282   29.8830   11.4653 H   0  0  0  0  0  0
   -2.7429   27.4357   12.8269 H   0  0  0  0  0  0
    1.0205   26.1080   11.6789 H   0  0  0  0  0  0
    1.3099   27.9480   10.0369 H   0  0  0  0  0  0
    3.2584   29.7385    5.7795 H   0  0  0  0  0  0
    3.2966   28.3234    8.4788 H   0  0  0  0  0  0
    4.0752   27.8894    4.8122 H   0  0  0  0  0  0
    5.7456   26.3012    3.9669 H   0  0  0  0  0  0
    7.2116   25.0911    5.5423 H   0  0  0  0  0  0
    7.0083   25.4657    7.9801 H   0  0  0  0  0  0
    5.3417   27.0574    8.8425 H   0  0  0  0  0  0
  1  2  2  0  0  0
  1  6  1  0  0  0
  1 24  1  0  0  0
  2  3  1  0  0  0
  2 25  1  0  0  0
  3  4  2  0  0  0
  4  5  1  0  0  0
  4 16  1  0  0  0
  5  6  2  0  0  0
  6  7  1  0  0  0
  7  8  2  0  0  0
  7 10  1  0  0  0
  8  9  1  0  0  0
  8 26  1  0  0  0
  9 11  1  0  0  0
  9 27  1  0  0  0
 10 11  2  0  0  0
 10 15  1  0  0  0
 11 12  1  0  0  0
 12 13  2  0  0  0
 12 28  1  0  0  0
 13 14  1  0  0  0
 14 15  2  0  0  0
 14 29  1  0  0  0
 15 30  1  0  0  0
 16 17  2  0  0  0
 16 31  1  0  0  0
 17 18  1  0  0  0
 17 32  1  0  0  0
 18 19  2  0  0  0
 18 23  1  0  0  0
 19 20  1  0  0  0
 19 33  1  0  0  0
 20 21  2  0  0  0
 20 34  1  0  0  0
 21 22  1  0  0  0
 21 35  1  0  0  0
 22 23  2  0  0  0
 22 36  1  0  0  0
 23 37  1  0  0  0
M  END
> <s_m_entry_id>
33073

> <s_m_entry_name>
dock_pv.474

> <s_m_Source_Path>
/home/csk/Desktop/cluster/DUD-E-result/cdk2

> <s_m_Source_File>
dock_pv.maegz

> <i_m_Source_File_Index>
474

> <chembl_id>
CHEMBL3421978

> <chembl_pref_name>
None

> <i_lp_mmshare_version>
53161

> <i_f3d_flags>
0

> <r_lp_tautomer_probability>
0.999762906630677

> <s_lp_Force_Field>
OPLS_2005

> <r_lp_Energy>
10.678232

> <b_lp_Chiralities_Consistent>
1

> <s_lp_Variant>
CHEMBL301_lig1287-1

> <s_i_glide_gridfile>
glide-grid_1h00

> <i_i_glide_lignum>
1703

> <i_i_glide_rotatable_bonds>
3

> <r_i_docking_score>
-7.09692611198072

> <r_i_glide_ligand_efficiency>
-0.308562004868727

> <r_i_glide_ligand_efficiency_sa>
-0.877509295965828

> <r_i_glide_ligand_efficiency_ln>
-1.71610108524507

> <r_i_glide_gscore>
-7.09692611198072

> <r_i_glide_lipo>
-2.3415901028549

> <r_i_glide_hbond>
-0.349288479565848

> <r_i_glide_metal>
0

> <r_i_glide_rewards>
-2.74180003111136

> <r_i_glide_evdw>
-32.491138458252

> <r_i_glide_ecoul>
-3.86103701591492

> <r_i_glide_erotb>
0.618470126047828

> <r_i_glide_esite>
-0.0790051491965921

> <r_i_glide_emodel>
-52.0489356536776

> <r_i_glide_energy>
-36.3521754741669

> <r_i_glide_einternal>
2.9601263999939

> <i_i_glide_confnum>
5

> <i_i_glide_posenum>
55

> <r_i_glide_eff_state_penalty>
0

> <s_user_duplicate_titles>
CHEMBL301_lig1287

> <s_m_subgroup_title>
dock_pv

> <s_m_subgroupid>
dock_pv

> <b_m_subgroup_collapsed>
1

$$$$
CHEMBL301_lig1314
                    3D
 Schrodinger Suite 2021-1.
 63 67  0  0  1  0            999 V2000
    1.4365   28.7394    9.3944 C   0  0  0  0  0  0
    0.2961   28.5152   10.2299 N   0  0  0  0  0  0
   -0.7457   30.5129    9.3600 C   0  0  0  0  0  0
   -0.8423   29.2873   10.1685 C   0  0  0  0  0  0
    1.4677   29.8519    8.5351 C   0  0  0  0  0  0
    0.3377   30.8087    8.5760 C   0  0  0  0  0  0
    2.4604   27.8375    9.4233 N   0  0  0  0  0  0
    3.4765   28.0144    8.5486 C   0  0  0  0  0  0
    3.5776   29.0357    7.6661 N   0  0  0  0  0  0
    2.5810   29.9522    7.6869 C   0  0  0  0  0  0
    8.4482   25.5360    4.9350 N   0  0  0  0  0  0
   -1.8311   31.4995    9.4700 C   0  0  0  0  0  0
   -1.8889   28.9807   10.7477 O   0  0  0  0  0  0
    4.4675   27.0352    8.5760 N   0  0  0  0  0  0
    0.2981   27.2705   11.0743 C   0  0  0  0  0  0
    7.4252   25.8384    5.8307 C   0  0  0  0  0  0
   10.6035   25.0113    2.9910 N   0  0  0  0  0  0
   -1.6589   32.6247    9.9390 O   0  0  0  0  0  0
    7.6457   25.7864    7.2123 C   0  0  0  0  0  0
    6.1674   26.2530    5.3691 C   0  0  0  0  0  0
    5.4329   26.6517    7.6358 C   0  0  0  0  0  0
    0.5191   32.0905    7.7500 C   0  0  0  0  0  0
    5.1825   26.6726    6.2628 C   0  0  0  0  0  0
    6.6554   26.1772    8.1040 C   0  0  0  0  0  0
    9.8736   25.5173    5.3193 C   0  0  0  0  0  0
    8.2309   24.7789    3.6890 C   0  0  0  0  0  0
    9.2182   25.1685    2.5654 C   0  0  0  0  0  0
   10.8333   25.8536    4.1583 C   0  0  0  0  0  0
   -3.2195   31.1082    8.9749 C   0  0  0  0  0  0
   -0.3023   27.3638   12.5092 C   0  0  0  0  0  0
   -0.4352   26.0881   10.3976 C   0  0  0  0  0  0
   -1.0774   25.2900   11.5338 C   0  0  0  0  0  0
   -1.4610   26.3586   12.5566 C   0  0  0  0  0  0
    2.7096   30.7630    6.9870 H   0  0  0  0  0  0
    4.4836   26.4962    9.4378 H   0  0  0  0  0  0
    1.3118   26.9218   11.2788 H   0  0  0  0  0  0
   11.2131   25.3279    2.2372 H   0  0  0  0  0  0
    8.5913   25.4519    7.6109 H   0  0  0  0  0  0
    5.9627   26.3186    4.3117 H   0  0  0  0  0  0
    1.2589   32.7564    8.1764 H   0  0  0  0  0  0
    0.8580   31.8666    6.7399 H   0  0  0  0  0  0
   -0.3749   32.6993    7.6592 H   0  0  0  0  0  0
    4.2311   27.0168    5.8854 H   0  0  0  0  0  0
    6.8601   26.1339    9.1616 H   0  0  0  0  0  0
   10.0577   26.2270    6.1268 H   0  0  0  0  0  0
   10.1191   24.5258    5.7030 H   0  0  0  0  0  0
    8.3587   23.7188    3.9134 H   0  0  0  0  0  0
    7.2095   24.8812    3.3255 H   0  0  0  0  0  0
    9.0544   24.5552    1.6789 H   0  0  0  0  0  0
    9.0471   26.1971    2.2429 H   0  0  0  0  0  0
   11.8717   25.7440    4.4728 H   0  0  0  0  0  0
   10.7250   26.9032    3.8790 H   0  0  0  0  0  0
   -3.5102   30.1185    9.3228 H   0  0  0  0  0  0
   -3.9484   31.8208    9.3568 H   0  0  0  0  0  0
   -3.2507   31.1196    7.8866 H   0  0  0  0  0  0
   -0.6042   28.3651   12.8191 H   0  0  0  0  0  0
    0.4514   27.0361   13.2282 H   0  0  0  0  0  0
    0.2343   25.4918    9.7764 H   0  0  0  0  0  0
   -1.2265   26.4478    9.7368 H   0  0  0  0  0  0
   -1.9384   24.7100   11.1982 H   0  0  0  0  0  0
   -0.3541   24.5951   11.9650 H   0  0  0  0  0  0
   -2.3926   26.8444   12.2610 H   0  0  0  0  0  0
   -1.6132   25.9451   13.5537 H   0  0  0  0  0  0
  1  2  1  0  0  0
  1  5  1  0  0  0
  1  7  2  0  0  0
  2  4  1  0  0  0
  2 15  1  0  0  0
  3  6  2  0  0  0
  3 12  1  0  0  0
  3  4  1  0  0  0
  4 13  2  0  0  0
  5  6  1  0  0  0
  5 10  2  0  0  0
  6 22  1  0  0  0
  7  8  1  0  0  0
  8  9  2  0  0  0
  8 14  1  0  0  0
  9 10  1  0  0  0
 10 34  1  0  0  0
 11 16  1  0  0  0
 11 25  1  0  0  0
 11 26  1  0  0  0
 12 18  2  0  0  0
 12 29  1  0  0  0
 14 21  1  0  0  0
 14 35  1  0  0  0
 15 30  1  0  0  0
 15 31  1  0  0  0
 15 36  1  0  0  0
 16 19  1  0  0  0
 16 20  2  0  0  0
 17 27  1  0  0  0
 17 28  1  0  0  0
 17 37  1  0  0  0
 19 24  2  0  0  0
 19 38  1  0  0  0
 20 23  1  0  0  0
 20 39  1  0  0  0
 21 23  2  0  0  0
 21 24  1  0  0  0
 22 40  1  0  0  0
 22 41  1  0  0  0
 22 42  1  0  0  0
 23 43  1  0  0  0
 24 44  1  0  0  0
 25 28  1  0  0  0
 25 45  1  0  0  0
 25 46  1  0  0  0
 26 27  1  0  0  0
 26 47  1  0  0  0
 26 48  1  0  0  0
 27 49  1  0  0  0
 27 50  1  0  0  0
 28 51  1  0  0  0
 28 52  1  0  0  0
 29 53  1  0  0  0
 29 54  1  0  0  0
 29 55  1  0  0  0
 30 33  1  0  0  0
 30 56  1  0  0  0
 30 57  1  0  0  0
 31 32  1  0  0  0
 31 58  1  0  0  0
 31 59  1  0  0  0
 32 33  1  0  0  0
 32 60  1  0  0  0
 32 61  1  0  0  0
 33 62  1  0  0  0
 33 63  1  0  0  0
M  END
> <s_m_entry_id>
33075

> <s_m_entry_name>
dock_pv.476

> <s_m_Source_Path>
/home/csk/Desktop/cluster/DUD-E-result/cdk2

> <s_m_Source_File>
dock_pv.maegz

> <i_m_Source_File_Index>
476

> <chembl_id>
CHEMBL365847

> <chembl_pref_name>
None

> <i_lp_mmshare_version>
53161

> <i_f3d_flags>
0

> <r_lp_tautomer_probability>
0.99995

> <s_lp_Force_Field>
OPLS_2005

> <r_lp_Energy>
78.583526

> <b_lp_Chiralities_Consistent>
1

> <s_lp_Variant>
CHEMBL301_lig1314-1

> <s_i_glide_gridfile>
glide-grid_1h00

> <i_i_glide_lignum>
1730

> <i_i_glide_rotatable_bonds>
5

> <r_i_docking_score>
-7.08880626960253

> <r_i_glide_ligand_efficiency>
-0.214812311200077

> <r_i_glide_ligand_efficiency_sa>
-0.689017861876941

> <r_i_glide_ligand_efficiency_ln>
-1.57651381048509

> <r_i_glide_gscore>
-7.08880626960253

> <r_i_glide_lipo>
-2.80093261470515

> <r_i_glide_hbond>
-0.291880649562787

> <r_i_glide_metal>
0

> <r_i_glide_rewards>
-1.53469668834149

> <r_i_glide_evdw>
-48.8283462524414

> <r_i_glide_ecoul>
-2.55765676498413

> <r_i_glide_erotb>
0.401546134381586

> <r_i_glide_esite>
-0.0377766240050034

> <r_i_glide_emodel>
-68.6224884282643

> <r_i_glide_energy>
-51.3860030174255

> <r_i_glide_einternal>
8.22330760955811

> <i_i_glide_confnum>
1

> <i_i_glide_posenum>
12

> <r_i_glide_eff_state_penalty>
0

> <s_user_duplicate_titles>
CHEMBL301_lig1314,319806

> <s_m_subgroup_title>
dock_pv

> <s_m_subgroupid>
dock_pv

> <b_m_subgroup_collapsed>
1

$$$$
CHEMBL301_lig344
                    3D
 Schrodinger Suite 2021-1.
 38 40  0  0  1  0            999 V2000
   -0.5255   28.0215   11.3950 C   0  0  0  0  0  0
   -1.5550   28.9682   11.2316 C   0  0  0  0  0  0
   -1.4664   29.9656   10.2544 C   0  0  0  0  0  0
    0.6147   28.1152   10.5768 C   0  0  0  0  0  0
    0.6904   29.1110    9.6004 C   0  0  0  0  0  0
   -0.3384   30.0057    9.4374 C   0  0  0  0  0  0
   -0.0234   30.8383    8.3835 N   0  0  0  0  0  0
    1.1627   30.5464    7.8189 C   0  0  0  0  0  0
    1.6946   29.4323    8.5945 C   0  0  0  0  0  0
    1.6581   31.1345    6.8582 O   0  0  0  0  0  0
    2.8749   28.8208    8.3603 C   0  0  0  0  0  0
    3.8114   29.0519    7.3781 N   0  0  0  0  0  0
    4.4576   28.0490    6.6451 C   0  0  0  0  0  0
    4.8777   26.8504    7.2343 C   0  0  0  0  0  0
    5.4412   25.8501    6.4471 C   0  0  0  0  0  0
    5.5810   26.0479    5.0725 C   0  0  0  0  0  0
    5.1821   27.2490    4.4864 C   0  0  0  0  0  0
    4.6281   28.2512    5.2770 C   0  0  0  0  0  0
    6.2615   24.7575    4.0411 S   0  0  0  0  0  0
    4.8622   23.9654    3.3760 N   0  0  0  0  0  0
    6.9698   25.4066    2.9343 O   0  0  0  0  0  0
    6.9280   23.7926    4.9219 O   0  0  0  0  0  0
   -0.6971   26.8792   12.3675 C   0  0  0  0  0  0
    0.4575   26.2558   12.7421 O   0  0  0  0  0  0
   -1.8014   26.5327   12.7797 O   0  0  0  0  0  0
   -2.4432   28.9285   11.8503 H   0  0  0  0  0  0
   -2.2751   30.6720   10.1375 H   0  0  0  0  0  0
    1.4198   27.3990   10.6604 H   0  0  0  0  0  0
   -0.6073   31.5916    8.0563 H   0  0  0  0  0  0
    3.1680   28.0063    9.0067 H   0  0  0  0  0  0
    3.6992   29.9057    6.8395 H   0  0  0  0  0  0
    4.7707   26.6802    8.2956 H   0  0  0  0  0  0
    5.7548   24.9232    6.9047 H   0  0  0  0  0  0
    5.2998   27.4037    3.4233 H   0  0  0  0  0  0
    4.3153   29.1788    4.8210 H   0  0  0  0  0  0
    4.6218   24.2522    2.4072 H   0  0  0  0  0  0
    4.8414   22.9543    3.5119 H   0  0  0  0  0  0
    1.2280   26.8162   12.6079 H   0  0  0  0  0  0
  1  2  2  0  0  0
  1  4  1  0  0  0
  1 23  1  0  0  0
  2  3  1  0  0  0
  2 26  1  0  0  0
  3  6  2  0  0  0
  3 27  1  0  0  0
  4  5  2  0  0  0
  4 28  1  0  0  0
  5  9  1  0  0  0
  5  6  1  0  0  0
  6  7  1  0  0  0
  7  8  1  0  0  0
  7 29  1  0  0  0
  8  9  1  0  0  0
  8 10  2  0  0  0
  9 11  2  0  0  0
 11 12  1  0  0  0
 11 30  1  0  0  0
 12 13  1  0  0  0
 12 31  1  0  0  0
 13 14  2  0  0  0
 13 18  1  0  0  0
 14 15  1  0  0  0
 14 32  1  0  0  0
 15 16  2  0  0  0
 15 33  1  0  0  0
 16 17  1  0  0  0
 16 19  1  0  0  0
 17 18  2  0  0  0
 17 34  1  0  0  0
 18 35  1  0  0  0
 19 20  1  0  0  0
 19 21  2  0  0  0
 19 22  2  0  0  0
 20 36  1  0  0  0
 20 37  1  0  0  0
 23 24  1  0  0  0
 23 25  2  0  0  0
 24 38  1  0  0  0
M  END
> <s_m_entry_id>
33076

> <s_m_entry_name>
dock_pv.477

> <s_m_Source_Path>
/home/csk/Desktop/cluster/DUD-E-result/cdk2

> <s_m_Source_File>
dock_pv.maegz

> <i_m_Source_File_Index>
477

> <chembl_id>
CHEMBL272668

> <chembl_pref_name>
None

> <i_lp_mmshare_version>
53161

> <i_f3d_flags>
0

> <r_lp_tautomer_probability>
0.499999999999422

> <s_lp_Force_Field>
OPLS_2005

> <r_lp_Energy>
41.277518

> <b_lp_Chiralities_Consistent>
1

> <s_lp_Variant>
CHEMBL301_lig344-1

> <s_i_glide_gridfile>
glide-grid_1h00

> <i_i_glide_lignum>
524

> <i_i_glide_rotatable_bonds>
5

> <r_i_docking_score>
-7.0878472400997

> <r_i_glide_ligand_efficiency>
-0.283513889603988

> <r_i_glide_ligand_efficiency_sa>
-0.828999641342303

> <r_i_glide_ligand_efficiency_ln>
-1.68003220154533

> <r_i_glide_gscore>
-7.0878472400997

> <r_i_glide_lipo>
-2.04804200704029

> <r_i_glide_hbond>
-0.386419821643391

> <r_i_glide_metal>
0

> <r_i_glide_rewards>
-1.52203033912234

> <r_i_glide_evdw>
-35.7562713623047

> <r_i_glide_ecoul>
-11.1315593719482

> <r_i_glide_erotb>
0.445255990479305

> <r_i_glide_esite>
-0.119063588865515

> <r_i_glide_emodel>
-63.391280315901

> <r_i_glide_energy>
-46.8878307342529

> <r_i_glide_einternal>
9.24173736572266

> <i_i_glide_confnum>
12

> <i_i_glide_posenum>
285

> <r_i_glide_eff_state_penalty>
0

> <s_user_duplicate_titles>
CHEMBL301_lig344,226523,440838

> <s_m_subgroup_title>
dock_pv

> <s_m_subgroupid>
dock_pv

> <b_m_subgroup_collapsed>
1

$$$$
CHEMBL301_lig830
                    3D
 Schrodinger Suite 2021-1.
 52 54  0  0  1  0            999 V2000
   -1.0673   26.6029   13.1399 C   0  0  0  0  0  0
   -1.1421   27.9013   13.3755 N   0  0  0  0  0  0
   -0.8745   28.4525   12.2126 C   0  0  0  0  0  0
   -0.5927   27.5684   11.2363 O   0  0  0  0  0  0
   -0.7470   26.3611   11.8118 C   0  0  0  0  0  0
   -0.7981   29.9154   11.8469 C   0  0  0  0  0  0
   -1.4194   30.2958   10.1673 S   0  0  0  0  0  0
    0.0573   30.2272    9.1901 C   0  0  0  0  0  0
    0.4040   31.0525    8.1200 C   0  0  0  0  0  0
    1.5394   30.7998    7.4927 N   0  0  0  0  0  0
    2.1748   29.7846    8.0188 C   0  0  0  0  0  0
    1.3314   29.0519    9.3759 S   0  0  0  0  0  0
    3.3940   29.3561    7.4828 N   0  0  0  0  0  0
    4.0524   28.1987    7.7336 C   0  0  0  0  0  0
    5.3520   27.9260    6.9320 C   0  0  1  0  0  0
    3.6926   27.3919    8.5885 O   0  0  0  0  0  0
   -0.6067   25.1674   10.8864 C   0  0  0  0  0  0
   -0.8693   23.8452   11.6342 C   0  0  0  0  0  0
    0.8198   25.1346   10.2900 C   0  0  0  0  0  0
   -1.6430   25.3711    9.7592 C   0  0  0  0  0  0
    5.9919   26.5556    7.2705 C   0  0  0  0  0  0
    5.2113   25.3414    6.7088 C   0  0  0  0  0  0
    4.9271   25.4832    5.2759 N   0  0  2  0  0  0
    4.2512   26.7303    4.9067 C   0  0  1  0  0  0
    5.0840   27.9357    5.4048 C   0  0  0  0  0  0
    4.0581   26.7915    3.3829 C   0  0  0  0  0  0
   -1.2680   25.8647   13.9014 H   0  0  0  0  0  0
   -1.4226   30.4830   12.5365 H   0  0  0  0  0  0
    0.2217   30.2817   11.9619 H   0  0  0  0  0  0
   -0.1969   31.8801    7.7778 H   0  0  0  0  0  0
    3.8095   29.9792    6.7994 H   0  0  0  0  0  0
    5.9937   28.7634    7.1939 H   0  0  0  0  0  0
   -0.7474   22.9851   10.9761 H   0  0  0  0  0  0
   -1.8758   23.8162   12.0538 H   0  0  0  0  0  0
   -0.1747   23.7156   12.4666 H   0  0  0  0  0  0
    1.0624   26.0658    9.7771 H   0  0  0  0  0  0
    1.5751   25.0006   11.0664 H   0  0  0  0  0  0
    0.9403   24.3261    9.5653 H   0  0  0  0  0  0
   -1.5419   26.3472    9.2837 H   0  0  0  0  0  0
   -1.5420   24.6521    8.9630 H   0  0  0  0  0  0
   -2.6645   25.3101   10.1368 H   0  0  0  0  0  0
    7.0306   26.5386    6.9350 H   0  0  0  0  0  0
    6.1598   26.4765    8.3475 H   0  0  0  0  0  0
    4.2701   25.2084    7.2435 H   0  0  0  0  0  0
    5.7911   24.4297    6.8559 H   0  0  0  0  0  0
    4.3880   24.6919    4.9520 H   0  0  0  0  0  0
    3.2675   26.7307    5.3697 H   0  0  0  0  0  0
    4.7534   28.9050    5.0294 H   0  0  0  0  0  0
    6.0529   27.8517    4.9083 H   0  0  0  0  0  0
    3.5727   27.7175    3.0787 H   0  0  0  0  0  0
    5.0127   26.7343    2.8573 H   0  0  0  0  0  0
    3.4422   25.9648    3.0263 H   0  0  0  0  0  0
  1  5  2  0  0  0
  1  2  1  0  0  0
  1 27  1  0  0  0
  2  3  2  0  0  0
  3  6  1  0  0  0
  3  4  1  0  0  0
  4  5  1  0  0  0
  5 17  1  0  0  0
  6  7  1  0  0  0
  6 28  1  0  0  0
  6 29  1  0  0  0
  7  8  1  0  0  0
  8  9  2  0  0  0
  8 12  1  0  0  0
  9 10  1  0  0  0
  9 30  1  0  0  0
 10 11  2  0  0  0
 11 13  1  0  0  0
 11 12  1  0  0  0
 13 14  1  0  0  0
 13 31  1  0  0  0
 14 15  1  0  0  0
 14 16  2  0  0  0
 15 21  1  0  0  0
 15 25  1  0  0  0
 15 32  1  0  0  0
 17 18  1  0  0  0
 17 19  1  0  0  0
 17 20  1  0  0  0
 18 33  1  0  0  0
 18 34  1  0  0  0
 18 35  1  0  0  0
 19 36  1  0  0  0
 19 37  1  0  0  0
 19 38  1  0  0  0
 20 39  1  0  0  0
 20 40  1  0  0  0
 20 41  1  0  0  0
 21 22  1  0  0  0
 21 42  1  0  0  0
 21 43  1  0  0  0
 22 23  1  0  0  0
 22 44  1  0  0  0
 22 45  1  0  0  0
 23 24  1  0  0  0
 23 46  1  0  0  0
 24 25  1  0  0  0
 24 26  1  0  0  0
 24 47  1  0  0  0
 25 48  1  0  0  0
 25 49  1  0  0  0
 26 50  1  0  0  0
 26 51  1  0  0  0
 26 52  1  0  0  0
M  END
> <s_m_entry_id>
33077

> <s_m_entry_name>
dock_pv.478

> <s_m_Source_Path>
/home/csk/Desktop/cluster/DUD-E-result/cdk2

> <s_m_Source_File>
dock_pv.maegz

> <i_m_Source_File_Index>
478

> <chembl_id>
CHEMBL455194

> <chembl_pref_name>
None

> <i_lp_mmshare_version>
53161

> <i_f3d_flags>
0

> <r_lp_tautomer_probability>
0.999000488399163

> <s_lp_Force_Field>
OPLS_2005

> <r_lp_Energy>
12.561779

> <b_lp_Chiralities_Consistent>
1

> <s_lp_Variant>
CHEMBL301_lig830-4

> <s_i_glide_gridfile>
glide-grid_1h00

> <i_i_glide_lignum>
1188

> <i_i_glide_rotatable_bonds>
7

> <r_i_docking_score>
-7.08517215816457

> <r_i_glide_ligand_efficiency>
-0.272506621467868

> <r_i_glide_ligand_efficiency_sa>
-0.807299793836782

> <r_i_glide_ligand_efficiency_ln>
-1.66392943299888

> <r_i_glide_gscore>
-7.08517215816457

> <r_i_glide_lipo>
-3.09033084561638

> <r_i_glide_hbond>
-0.32

> <r_i_glide_metal>
0

> <r_i_glide_rewards>
-2.0880263178506

> <r_i_glide_evdw>
-40.1905937194824

> <r_i_glide_ecoul>
-2.20417928695679

> <r_i_glide_erotb>
0.753341584320047

> <r_i_glide_esite>
0

> <r_i_glide_emodel>
-57.4198200424008

> <r_i_glide_energy>
-42.3947730064392

> <r_i_glide_einternal>
2.65742444992065

> <i_i_glide_confnum>
58

> <i_i_glide_posenum>
130

> <r_i_glide_eff_state_penalty>
0

> <s_user_duplicate_titles>
CHEMBL301_lig830,453123

> <s_m_subgroup_title>
dock_pv

> <s_m_subgroupid>
dock_pv

> <b_m_subgroup_collapsed>
1

$$$$
CHEMBL301_lig292
                    3D
 Schrodinger Suite 2021-1.
 38 40  0  0  1  0            999 V2000
   -1.7006   26.0595   14.0742 S   0  0  0  0  0  0
    7.4394   25.1923    5.8080 N   0  3  0  0  0  0
    2.5551   28.4942    8.9763 C   0  0  0  0  0  0
    2.7892   29.8040    7.2830 N   0  0  0  0  0  0
    1.5298   29.4487    8.9393 C   0  0  0  0  0  0
    3.3345   28.6830    7.8503 C   0  0  0  0  0  0
    1.6956   30.2521    7.9129 N   0  0  0  0  0  0
   -0.9939   27.0865   12.7920 C   0  0  0  0  0  0
    6.3946   26.1102    6.3237 C   0  0  0  0  0  0
    0.4587   29.6188    9.7796 N   0  0  0  0  0  0
   -1.3776   24.6595   13.7843 O   0  0  0  0  0  0
   -1.3750   26.6519   15.3755 O   0  0  0  0  0  0
    7.4522   24.9324    4.6083 O   0  5  0  0  0  0
    4.4470   27.8733    7.2932 C   0  0  0  0  0  0
    8.2484   24.7205    6.6016 O   0  0  0  0  0  0
   -3.4145   26.2520   13.8672 N   0  0  0  0  0  0
    6.2820   26.3616    7.6991 C   0  0  0  0  0  0
    5.5112   26.7514    5.4417 C   0  0  0  0  0  0
    4.5475   27.6351    5.9221 C   0  0  0  0  0  0
    5.3229   27.2496    8.1759 C   0  0  0  0  0  0
   -0.3993   26.5190   11.6634 C   0  0  0  0  0  0
   -1.0852   28.4732   12.9123 C   0  0  0  0  0  0
    0.0042   28.7370   10.7730 C   0  0  0  0  0  0
    0.0969   27.3444   10.6555 C   0  0  0  0  0  0
   -0.5973   29.2920   11.9010 C   0  0  0  0  0  0
    2.6800   27.7108    9.7084 H   0  0  0  0  0  0
    3.1708   30.2725    6.4687 H   0  0  0  0  0  0
    0.1084   30.5559    9.9026 H   0  0  0  0  0  0
   -3.9416   25.5141   14.3333 H   0  0  0  0  0  0
   -3.7141   27.1923   14.1759 H   0  0  0  0  0  0
    6.9405   25.8826    8.4099 H   0  0  0  0  0  0
    5.5736   26.5749    4.3769 H   0  0  0  0  0  0
    3.8598   28.1023    5.2330 H   0  0  0  0  0  0
    5.2475   27.4522    9.2349 H   0  0  0  0  0  0
   -0.3366   25.4458   11.5539 H   0  0  0  0  0  0
   -1.5422   28.9218   13.7809 H   0  0  0  0  0  0
    0.5313   26.8938    9.7769 H   0  0  0  0  0  0
   -0.6906   30.3608   12.0040 H   0  0  0  0  0  0
  1  8  1  0  0  0
  1 11  2  0  0  0
  1 12  2  0  0  0
  1 16  1  0  0  0
  2  9  1  0  0  0
  2 13  1  0  0  0
  2 15  2  0  0  0
  3  5  1  0  0  0
  3  6  2  0  0  0
  3 26  1  0  0  0
  4  7  1  0  0  0
  4  6  1  0  0  0
  4 27  1  0  0  0
  5 10  1  0  0  0
  5  7  2  0  0  0
  6 14  1  0  0  0
  8 21  2  0  0  0
  8 22  1  0  0  0
  9 17  2  0  0  0
  9 18  1  0  0  0
 10 23  1  0  0  0
 10 28  1  0  0  0
 14 19  1  0  0  0
 14 20  2  0  0  0
 16 29  1  0  0  0
 16 30  1  0  0  0
 17 20  1  0  0  0
 17 31  1  0  0  0
 18 19  2  0  0  0
 18 32  1  0  0  0
 19 33  1  0  0  0
 20 34  1  0  0  0
 21 24  1  0  0  0
 21 35  1  0  0  0
 22 25  2  0  0  0
 22 36  1  0  0  0
 23 25  1  0  0  0
 23 24  2  0  0  0
 24 37  1  0  0  0
 25 38  1  0  0  0
M  CHG  2   2   1  13  -1
M  END
> <s_m_entry_id>
33078

> <s_m_entry_name>
dock_pv.479

> <s_m_Source_Path>
/home/csk/Desktop/cluster/DUD-E-result/cdk2

> <s_m_Source_File>
dock_pv.maegz

> <i_m_Source_File_Index>
479

> <chembl_id>
CHEMBL317703

> <chembl_pref_name>
None

> <i_lp_mmshare_version>
53161

> <i_f3d_flags>
0

> <r_lp_tautomer_probability>
0.842599999161192

> <s_lp_Force_Field>
OPLS_2005

> <r_lp_Energy>
21.850523

> <b_lp_Chiralities_Consistent>
1

> <s_lp_Variant>
CHEMBL301_lig292-1

> <s_i_glide_gridfile>
glide-grid_1h00

> <i_i_glide_lignum>
466

> <i_i_glide_rotatable_bonds>
5

> <r_i_docking_score>
-7.08353246142552

> <r_i_glide_ligand_efficiency>
-0.283341298457021

> <r_i_glide_ligand_efficiency_sa>
-0.828494981767653

> <r_i_glide_ligand_efficiency_ln>
-1.67900946969607

> <r_i_glide_gscore>
-7.08353246142552

> <r_i_glide_lipo>
-2.56192967377431

> <r_i_glide_hbond>
-0.386053303590741

> <r_i_glide_metal>
0

> <r_i_glide_rewards>
-1.44207148561167

> <r_i_glide_evdw>
-36.4512634277344

> <r_i_glide_ecoul>
-7.52169179916382

> <r_i_glide_erotb>
0.445248703063433

> <r_i_glide_esite>
-0.187909760250934

> <r_i_glide_emodel>
-60.08727257533

> <r_i_glide_energy>
-43.9729552268982

> <r_i_glide_einternal>
4.5542368888855

> <i_i_glide_confnum>
6

> <i_i_glide_posenum>
389

> <r_i_glide_eff_state_penalty>
0

> <s_user_duplicate_titles>
CHEMBL301_lig292,166090

> <s_m_subgroup_title>
dock_pv

> <s_m_subgroupid>
dock_pv

> <b_m_subgroup_collapsed>
1

$$$$
CHEMBL301_lig108
                    3D
 Schrodinger Suite 2021-1.
 53 55  0  0  1  0            999 V2000
    0.6059   29.8535    8.6203 N   0  0  0  0  0  0
   -0.4730   30.3799    9.2648 C   0  0  0  0  0  0
    1.2927   30.6661    7.7724 C   0  0  0  0  0  0
   -0.8615   31.7112    9.0593 C   0  0  0  0  0  0
    0.9650   31.9566    7.5019 N   0  0  0  0  0  0
   -1.1846   29.6213   10.2102 N   0  0  0  0  0  0
    2.4569   30.2065    7.1372 N   0  0  0  0  0  0
   -0.0972   32.4708    8.1758 C   0  0  0  0  0  0
   -1.9231   32.2597    9.6981 F   0  0  0  0  0  0
    3.2422   29.0522    7.2971 C   0  0  0  0  0  0
    5.6469   25.6603    7.6656 O   0  0  0  0  0  0
    4.3462   24.0676    6.2852 C   0  0  2  0  0  0
    4.9476   22.3255    4.4583 N   0  0  0  0  0  0
    4.1247   23.4773    4.8637 C   0  0  0  0  0  0
   -0.9097   28.4134   10.8728 C   0  0  0  0  0  0
    4.8632   26.7853    7.5061 C   0  0  0  0  0  0
    5.7172   24.7250    6.5823 C   0  0  0  0  0  0
    3.2726   28.3253    8.4887 C   0  0  0  0  0  0
    4.0396   28.6519    6.2219 C   0  0  0  0  0  0
    4.8580   27.5342    6.3258 C   0  0  0  0  0  0
    4.0634   27.1872    8.5750 C   0  0  0  0  0  0
    4.0581   23.1124    7.2915 O   0  0  0  0  0  0
    4.3412   21.7143    3.2758 C   0  0  0  0  0  0
    6.3193   22.7005    4.1121 C   0  0  0  0  0  0
   -1.5410   28.2060   12.1014 C   0  0  0  0  0  0
   -0.0614   27.4242   10.3605 C   0  0  0  0  0  0
    0.1721   26.2562   11.0824 C   0  0  0  0  0  0
   -1.3108   27.0388   12.8247 C   0  0  0  0  0  0
   -0.4504   26.0698   12.3147 C   0  0  0  0  0  0
   -1.9196   30.1569   10.6517 H   0  0  0  0  0  0
    2.9266   30.9066    6.5753 H   0  0  0  0  0  0
   -0.3454   33.5031    7.9761 H   0  0  0  0  0  0
    3.5806   24.8369    6.3876 H   0  0  0  0  0  0
    4.2276   24.2746    4.1227 H   0  0  0  0  0  0
    3.0717   23.1897    4.8085 H   0  0  0  0  0  0
    6.4482   23.9655    6.8606 H   0  0  0  0  0  0
    6.1215   25.2049    5.6914 H   0  0  0  0  0  0
    2.6936   28.6256    9.3478 H   0  0  0  0  0  0
    4.0492   29.2255    5.3063 H   0  0  0  0  0  0
    5.4907   27.2707    5.4920 H   0  0  0  0  0  0
    4.0546   26.6075    9.4763 H   0  0  0  0  0  0
    3.0957   23.0266    7.3327 H   0  0  0  0  0  0
    3.3238   21.3819    3.4877 H   0  0  0  0  0  0
    4.9074   20.8360    2.9577 H   0  0  0  0  0  0
    4.2969   22.4116    2.4362 H   0  0  0  0  0  0
    6.8816   23.0370    4.9779 H   0  0  0  0  0  0
    6.8648   21.8433    3.7136 H   0  0  0  0  0  0
    6.3441   23.4906    3.3592 H   0  0  0  0  0  0
   -2.2098   28.9512   12.5092 H   0  0  0  0  0  0
    0.4197   27.5357    9.4041 H   0  0  0  0  0  0
    0.8345   25.5005   10.6864 H   0  0  0  0  0  0
   -1.8010   26.8924   13.7763 H   0  0  0  0  0  0
   -0.2665   25.1659   12.8760 H   0  0  0  0  0  0
  1  2  2  0  0  0
  1  3  1  0  0  0
  2  4  1  0  0  0
  2  6  1  0  0  0
  3  5  2  0  0  0
  3  7  1  0  0  0
  4  9  1  0  0  0
  4  8  2  0  0  0
  5  8  1  0  0  0
  6 15  1  0  0  0
  6 30  1  0  0  0
  7 10  1  0  0  0
  7 31  1  0  0  0
  8 32  1  0  0  0
 10 18  2  0  0  0
 10 19  1  0  0  0
 11 16  1  0  0  0
 11 17  1  0  0  0
 12 17  1  0  0  0
 12 14  1  0  0  0
 12 22  1  0  0  0
 12 33  1  0  0  0
 13 14  1  0  0  0
 13 23  1  0  0  0
 13 24  1  0  0  0
 14 34  1  0  0  0
 14 35  1  0  0  0
 15 25  2  0  0  0
 15 26  1  0  0  0
 16 20  1  0  0  0
 16 21  2  0  0  0
 17 36  1  0  0  0
 17 37  1  0  0  0
 18 21  1  0  0  0
 18 38  1  0  0  0
 19 20  2  0  0  0
 19 39  1  0  0  0
 20 40  1  0  0  0
 21 41  1  0  0  0
 22 42  1  0  0  0
 23 43  1  0  0  0
 23 44  1  0  0  0
 23 45  1  0  0  0
 24 46  1  0  0  0
 24 47  1  0  0  0
 24 48  1  0  0  0
 25 28  1  0  0  0
 25 49  1  0  0  0
 26 27  2  0  0  0
 26 50  1  0  0  0
 27 29  1  0  0  0
 27 51  1  0  0  0
 28 29  2  0  0  0
 28 52  1  0  0  0
 29 53  1  0  0  0
M  END
> <s_m_entry_id>
33079

> <s_m_entry_name>
dock_pv.480

> <s_m_Source_Path>
/home/csk/Desktop/cluster/DUD-E-result/cdk2

> <s_m_Source_File>
dock_pv.maegz

> <i_m_Source_File_Index>
480

> <chembl_id>
CHEMBL98335

> <chembl_pref_name>
None

> <i_lp_mmshare_version>
53161

> <i_f3d_flags>
0

> <r_lp_tautomer_probability>
0.999999624730965

> <s_lp_Force_Field>
OPLS_2005

> <r_lp_Energy>
29.114277

> <b_lp_Chiralities_Consistent>
1

> <s_lp_Variant>
CHEMBL301_lig108-2

> <s_i_glide_gridfile>
glide-grid_1h00

> <i_i_glide_lignum>
228

> <i_i_glide_rotatable_bonds>
10

> <r_i_docking_score>
-7.0818086266798

> <r_i_glide_ligand_efficiency>
-0.244200297471717

> <r_i_glide_ligand_efficiency_sa>
-0.75026068191773

> <r_i_glide_ligand_efficiency_ln>
-1.62155459633742

> <r_i_glide_gscore>
-7.0818086266798

> <r_i_glide_lipo>
-2.42031817206097

> <r_i_glide_hbond>
-0.261953122889627

> <r_i_glide_metal>
0

> <r_i_glide_rewards>
-2.0215093949899

> <r_i_glide_evdw>
-39.0895805358887

> <r_i_glide_ecoul>
-9.43273639678955

> <r_i_glide_erotb>
0.991361549573555

> <r_i_glide_esite>
0

> <r_i_glide_emodel>
-64.8337734290311

> <r_i_glide_energy>
-48.5223169326782

> <r_i_glide_einternal>
6.42233085632324

> <i_i_glide_confnum>
70

> <i_i_glide_posenum>
371

> <r_i_glide_eff_state_penalty>
0

> <s_user_duplicate_titles>
CHEMBL301_lig108

> <s_m_subgroup_title>
dock_pv

> <s_m_subgroupid>
dock_pv

> <b_m_subgroup_collapsed>
1

$$$$
CHEMBL301_lig1153
                    3D
 Schrodinger Suite 2021-1.
 53 57  0  0  1  0            999 V2000
    4.9411   27.0946    5.6554 C   0  0  0  0  0  0
    5.3941   26.3959    4.0706 S   0  0  0  0  0  0
    3.8990   25.8506    3.3760 N   0  0  0  0  0  0
    5.8669   27.4920    3.2220 O   0  0  0  0  0  0
    6.2189   25.2106    4.3201 O   0  0  0  0  0  0
    4.0851   28.1967    5.7131 C   0  0  0  0  0  0
    5.4468   26.5525    6.8388 C   0  0  0  0  0  0
    5.0939   27.1130    8.0658 C   0  0  0  0  0  0
    4.2208   28.1970    8.1242 C   0  0  0  0  0  0
    3.7044   28.7393    6.9444 C   0  0  0  0  0  0
    2.8554   29.8521    6.9355 N   0  0  0  0  0  0
    1.7982   30.2508    7.7593 C   0  0  0  0  0  0
    1.1618   31.3892    7.3880 N   0  0  0  0  0  0
    0.0584   31.7208    8.1131 C   0  0  0  0  0  0
   -0.4382   30.9187    9.1405 C   0  0  0  0  0  0
    0.2968   29.7705    9.4739 C   0  0  0  0  0  0
    1.4278   29.4520    8.7891 N   0  0  0  0  0  0
   -0.1164   28.8316   10.5639 C   0  0  0  0  0  0
    0.2595   27.4727   10.5647 C   0  0  0  0  0  0
   -0.2062   26.6062   11.5689 C   0  0  0  0  0  0
   -1.0006   27.0683   12.5708 N   0  0  0  0  0  0
   -1.3258   28.3789   12.5945 C   0  0  0  0  0  0
   -0.9209   29.2784   11.6182 C   0  0  0  0  0  0
    0.0302   25.2290   11.5534 N   0  0  0  0  0  0
    0.9378   24.5913   10.5789 C   0  0  0  0  0  0
    1.2576   23.0983   10.8646 C   0  0  2  0  0  0
    0.0388   22.3712   10.9795 O   0  0  0  0  0  0
   -0.5261   22.8050   12.2080 C   0  0  2  0  0  0
   -0.9764   24.2843   12.0919 C   0  0  0  0  0  0
    0.6619   22.5772   13.1408 C   0  0  0  0  0  0
    1.8711   22.8153   12.2427 C   0  0  0  0  0  0
    3.4423   26.6016    2.8588 H   0  0  0  0  0  0
    4.0574   25.0830    2.7068 H   0  0  0  0  0  0
    3.7060   28.6253    4.7973 H   0  0  0  0  0  0
    6.1191   25.7079    6.8108 H   0  0  0  0  0  0
    5.4986   26.7059    8.9758 H   0  0  0  0  0  0
    3.9636   28.6224    9.0828 H   0  0  0  0  0  0
    3.1453   30.5639    6.2744 H   0  0  0  0  0  0
   -0.4440   32.6354    7.8297 H   0  0  0  0  0  0
   -1.3445   31.1961    9.6569 H   0  0  0  0  0  0
    0.8721   27.0912    9.7635 H   0  0  0  0  0  0
   -1.9414   28.7043   13.4173 H   0  0  0  0  0  0
   -1.2410   30.3055   11.6940 H   0  0  0  0  0  0
    1.8780   25.1422   10.5609 H   0  0  0  0  0  0
    0.5049   24.6856    9.5826 H   0  0  0  0  0  0
    1.8674   22.6893   10.0582 H   0  0  0  0  0  0
   -1.3734   22.1764   12.4887 H   0  0  0  0  0  0
   -1.8577   24.3440   11.4529 H   0  0  0  0  0  0
   -1.2957   24.6086   13.0830 H   0  0  0  0  0  0
    0.6623   21.5493   13.5088 H   0  0  0  0  0  0
    0.6221   23.2397   14.0056 H   0  0  0  0  0  0
    2.4907   21.9183   12.2105 H   0  0  0  0  0  0
    2.4886   23.6456   12.5859 H   0  0  0  0  0  0
  1  2  1  0  0  0
  1  7  1  0  0  0
  1  6  2  0  0  0
  2  3  1  0  0  0
  2  4  2  0  0  0
  2  5  2  0  0  0
  3 32  1  0  0  0
  3 33  1  0  0  0
  6 10  1  0  0  0
  6 34  1  0  0  0
  7  8  2  0  0  0
  7 35  1  0  0  0
  8  9  1  0  0  0
  8 36  1  0  0  0
  9 10  2  0  0  0
  9 37  1  0  0  0
 10 11  1  0  0  0
 11 12  1  0  0  0
 11 38  1  0  0  0
 12 13  2  0  0  0
 12 17  1  0  0  0
 13 14  1  0  0  0
 14 15  2  0  0  0
 14 39  1  0  0  0
 15 16  1  0  0  0
 15 40  1  0  0  0
 16 18  1  0  0  0
 16 17  2  0  0  0
 18 23  1  0  0  0
 18 19  2  0  0  0
 19 20  1  0  0  0
 19 41  1  0  0  0
 20 21  2  0  0  0
 20 24  1  0  0  0
 21 22  1  0  0  0
 22 23  2  0  0  0
 22 42  1  0  0  0
 23 43  1  0  0  0
 24 25  1  0  0  0
 24 29  1  0  0  0
 25 26  1  0  0  0
 25 44  1  0  0  0
 25 45  1  0  0  0
 26 27  1  0  0  0
 26 31  1  0  0  0
 26 46  1  0  0  0
 27 28  1  0  0  0
 28 29  1  0  0  0
 28 30  1  0  0  0
 28 47  1  0  0  0
 29 48  1  0  0  0
 29 49  1  0  0  0
 30 31  1  0  0  0
 30 50  1  0  0  0
 30 51  1  0  0  0
 31 52  1  0  0  0
 31 53  1  0  0  0
M  END
> <s_m_entry_id>
33080

> <s_m_entry_name>
dock_pv.481

> <s_m_Source_Path>
/home/csk/Desktop/cluster/DUD-E-result/cdk2

> <s_m_Source_File>
dock_pv.maegz

> <i_m_Source_File_Index>
481

> <chembl_id>
CHEMBL2158855

> <chembl_pref_name>
None

> <i_lp_mmshare_version>
53161

> <i_f3d_flags>
0

> <r_lp_tautomer_probability>
0.999999987636

> <s_lp_Force_Field>
OPLS_2005

> <r_lp_Energy>
39.193088

> <b_lp_Chiralities_Consistent>
1

> <s_lp_Variant>
CHEMBL301_lig1153-1

> <s_i_glide_gridfile>
glide-grid_1h00

> <i_i_glide_lignum>
1565

> <i_i_glide_rotatable_bonds>
5

> <r_i_docking_score>
-7.07514876582967

> <r_i_glide_ligand_efficiency>
-0.228230605349344

> <r_i_glide_ligand_efficiency_sa>
-0.716959207107329

> <r_i_glide_ligand_efficiency_ln>
-1.59566287396429

> <r_i_glide_gscore>
-7.07514876582967

> <r_i_glide_lipo>
-2.97590818850985

> <r_i_glide_hbond>
-0.504034923316429

> <r_i_glide_metal>
0

> <r_i_glide_rewards>
-0.625745656912122

> <r_i_glide_evdw>
-43.7325325012207

> <r_i_glide_ecoul>
-7.20302772521973

> <r_i_glide_erotb>
0.415015176106287

> <r_i_glide_esite>
-0.117394389353562

> <r_i_glide_emodel>
-67.9832624284734

> <r_i_glide_energy>
-50.9355602264404

> <r_i_glide_einternal>
4.5297703742981

> <i_i_glide_confnum>
4

> <i_i_glide_posenum>
279

> <r_i_glide_eff_state_penalty>
0

> <s_user_duplicate_titles>
CHEMBL301_lig1153

> <s_m_subgroup_title>
dock_pv

> <s_m_subgroupid>
dock_pv

> <b_m_subgroup_collapsed>
1

$$$$
CHEMBL301_lig93
                    3D
 Schrodinger Suite 2021-1.
 36 37  0  0  1  0            999 V2000
    0.7840   29.6298    9.3059 C   0  0  0  0  0  0
   -0.3906   30.2838    9.5627 N   0  0  0  0  0  0
    0.8313   28.6249   10.2537 C   0  0  0  0  0  0
    1.7036   29.8520    8.3281 N   0  0  0  0  0  0
   -0.1988   28.7054   11.1145 N   0  0  0  0  0  0
    2.8069   27.8986    9.1699 N   0  0  0  0  0  0
   -0.9073   29.7162   10.6760 C   0  0  0  0  0  0
    1.9034   27.7166   10.1503 C   0  0  0  0  0  0
    2.6880   28.9361    8.3368 C   0  0  0  0  0  0
   -1.0001   31.3399    8.7238 C   0  0  0  0  0  0
    3.6213   29.0525    7.3107 N   0  0  0  0  0  0
    2.1086   26.6246   10.9760 N   0  0  0  0  0  0
    5.5312   27.4877    7.9719 C   0  0  0  0  0  0
    7.2582   25.9563    8.5760 O   0  0  0  0  0  0
    4.5851   28.0300    6.8838 C   0  0  0  0  0  0
    6.5001   26.4099    7.4758 C   0  0  0  0  0  0
   -0.3426   32.7082    8.9476 C   0  0  0  0  0  0
   -2.5382   31.3954    8.8620 C   0  0  0  0  0  0
   -1.8368   30.0589   11.1097 H   0  0  0  0  0  0
   -0.7423   31.0133    7.7193 H   0  0  0  0  0  0
    3.6204   29.8332    6.6688 H   0  0  0  0  0  0
    1.6956   26.6898   11.8964 H   0  0  0  0  0  0
    3.0410   26.2441   10.8878 H   0  0  0  0  0  0
    6.0503   28.3274    8.4207 H   0  0  0  0  0  0
    4.9775   27.0355    8.7874 H   0  0  0  0  0  0
    6.6515   25.8483    9.3225 H   0  0  0  0  0  0
    4.0562   27.1970    6.4217 H   0  0  0  0  0  0
    5.1862   28.4451    6.0731 H   0  0  0  0  0  0
    5.9426   25.5794    7.0401 H   0  0  0  0  0  0
    7.1386   26.7756    6.6709 H   0  0  0  0  0  0
   -0.8667   33.4867    8.3922 H   0  0  0  0  0  0
    0.6832   32.7131    8.5761 H   0  0  0  0  0  0
   -0.3437   32.9962    9.9992 H   0  0  0  0  0  0
   -2.9699   32.0825    8.1343 H   0  0  0  0  0  0
   -2.9956   30.4200    8.6946 H   0  0  0  0  0  0
   -2.8445   31.7452    9.8490 H   0  0  0  0  0  0
  1  2  1  0  0  0
  1  3  2  0  0  0
  1  4  1  0  0  0
  2  7  1  0  0  0
  2 10  1  0  0  0
  3  5  1  0  0  0
  3  8  1  0  0  0
  4  9  2  0  0  0
  5  7  2  0  0  0
  6  9  1  0  0  0
  6  8  2  0  0  0
  7 19  1  0  0  0
  8 12  1  0  0  0
  9 11  1  0  0  0
 10 17  1  0  0  0
 10 18  1  0  0  0
 10 20  1  0  0  0
 11 15  1  0  0  0
 11 21  1  0  0  0
 12 22  1  0  0  0
 12 23  1  0  0  0
 13 15  1  0  0  0
 13 16  1  0  0  0
 13 24  1  0  0  0
 13 25  1  0  0  0
 14 16  1  0  0  0
 14 26  1  0  0  0
 15 27  1  0  0  0
 15 28  1  0  0  0
 16 29  1  0  0  0
 16 30  1  0  0  0
 17 31  1  0  0  0
 17 32  1  0  0  0
 17 33  1  0  0  0
 18 34  1  0  0  0
 18 35  1  0  0  0
 18 36  1  0  0  0
M  END
> <s_m_entry_id>
33081

> <s_m_entry_name>
dock_pv.482

> <s_m_Source_Path>
/home/csk/Desktop/cluster/DUD-E-result/cdk2

> <s_m_Source_File>
dock_pv.maegz

> <i_m_Source_File_Index>
482

> <chembl_id>
CHEMBL84140

> <chembl_pref_name>
None

> <i_lp_mmshare_version>
53161

> <i_f3d_flags>
0

> <r_lp_tautomer_probability>
1

> <s_lp_Force_Field>
OPLS_2005

> <r_lp_Energy>
11.357032

> <b_lp_Chiralities_Consistent>
1

> <s_lp_Variant>
CHEMBL301_lig93-1

> <s_i_glide_gridfile>
glide-grid_1h00

> <i_i_glide_lignum>
199

> <i_i_glide_rotatable_bonds>
6

> <r_i_docking_score>
-7.07389760451456

> <r_i_glide_ligand_efficiency>
-0.39299431136192

> <r_i_glide_ligand_efficiency_sa>
-1.0299364584825

> <r_i_glide_ligand_efficiency_ln>
-1.81830890329617

> <r_i_glide_gscore>
-7.07389760451456

> <r_i_glide_lipo>
-1.84595980235047

> <r_i_glide_hbond>
-0.519600200446442

> <r_i_glide_metal>
0

> <r_i_glide_rewards>
-3.20102911682608

> <r_i_glide_evdw>
-29.4920921325684

> <r_i_glide_ecoul>
-7.32974243164062

> <r_i_glide_erotb>
1.11769789830607

> <r_i_glide_esite>
-0.0509404118231319

> <r_i_glide_emodel>
-51.8080862194571

> <r_i_glide_energy>
-36.821834564209

> <r_i_glide_einternal>
3.40974998474121

> <i_i_glide_confnum>
20

> <i_i_glide_posenum>
101

> <r_i_glide_eff_state_penalty>
0

> <s_user_duplicate_titles>
CHEMBL301_lig93

> <s_m_subgroup_title>
dock_pv

> <s_m_subgroupid>
dock_pv

> <b_m_subgroup_collapsed>
1

$$$$
CHEMBL301_lig731
                    3D
 Schrodinger Suite 2021-1.
 37 40  0  0  1  0            999 V2000
    4.9199   26.9565    7.7760 C   0  0  0  0  0  0
    4.6187   29.0520    7.3610 N   0  0  0  0  0  0
    5.4021   27.9889    7.1305 N   0  0  0  0  0  0
    3.5557   28.7228    8.1616 C   0  0  0  0  0  0
    3.7642   27.3743    8.5176 C   0  0  0  0  0  0
    2.8568   26.7611    9.3843 C   0  0  0  0  0  0
    1.7194   27.4603    9.7870 C   0  0  0  0  0  0
    1.4922   28.7921    9.3760 C   0  0  0  0  0  0
    2.4424   29.4484    8.5760 C   0  0  0  0  0  0
    0.2439   29.5383    9.7109 C   0  0  0  0  0  0
   -0.4311   30.2520    8.7091 C   0  0  0  0  0  0
   -1.5939   30.9601    8.9980 C   0  0  0  0  0  0
   -2.1014   30.9409   10.2906 C   0  0  0  0  0  0
   -1.4437   30.2442   11.2991 C   0  0  0  0  0  0
   -0.2630   29.5668   11.0154 C   0  0  0  0  0  0
   -3.2564   31.6118   10.5760 O   0  0  0  0  0  0
    0.4455   26.4641   10.8043 Br  0  0  0  0  0  0
    5.4867   25.6507    7.6158 C   0  0  0  0  0  0
    4.5707   24.7211    7.2917 N   0  0  0  0  0  0
    6.7005   25.4482    7.6817 O   0  0  0  0  0  0
    4.8811   23.3447    6.9294 C   0  0  0  0  0  0
    4.1290   22.7242    5.7760 C   0  0  0  0  0  0
    5.5897   23.0791    5.6197 C   0  0  0  0  0  0
    4.8093   29.9442    6.9100 H   0  0  0  0  0  0
    3.0006   25.7353    9.6879 H   0  0  0  0  0  0
    2.2974   30.4683    8.2525 H   0  0  0  0  0  0
   -0.0595   30.2541    7.6947 H   0  0  0  0  0  0
   -2.1090   31.5085    8.2233 H   0  0  0  0  0  0
   -1.8374   30.2368   12.3050 H   0  0  0  0  0  0
    0.2534   29.0559   11.8151 H   0  0  0  0  0  0
   -3.5420   31.4520   11.4966 H   0  0  0  0  0  0
    3.6032   24.9180    7.5009 H   0  0  0  0  0  0
    5.1407   22.7101    7.7760 H   0  0  0  0  0  0
    3.3776   23.3222    5.2582 H   0  0  0  0  0  0
    3.8384   21.6767    5.8537 H   0  0  0  0  0  0
    6.3348   22.2842    5.5885 H   0  0  0  0  0  0
    5.8678   23.9295    4.9952 H   0  0  0  0  0  0
  1  3  2  0  0  0
  1  5  1  0  0  0
  1 18  1  0  0  0
  2  4  1  0  0  0
  2  3  1  0  0  0
  2 24  1  0  0  0
  4  9  1  0  0  0
  4  5  2  0  0  0
  5  6  1  0  0  0
  6  7  2  0  0  0
  6 25  1  0  0  0
  7  8  1  0  0  0
  7 17  1  0  0  0
  8 10  1  0  0  0
  8  9  2  0  0  0
  9 26  1  0  0  0
 10 15  1  0  0  0
 10 11  2  0  0  0
 11 12  1  0  0  0
 11 27  1  0  0  0
 12 13  2  0  0  0
 12 28  1  0  0  0
 13 14  1  0  0  0
 13 16  1  0  0  0
 14 15  2  0  0  0
 14 29  1  0  0  0
 15 30  1  0  0  0
 16 31  1  0  0  0
 18 19  1  0  0  0
 18 20  2  0  0  0
 19 21  1  0  0  0
 19 32  1  0  0  0
 21 22  1  0  0  0
 21 23  1  0  0  0
 21 33  1  0  0  0
 22 23  1  0  0  0
 22 34  1  0  0  0
 22 35  1  0  0  0
 23 36  1  0  0  0
 23 37  1  0  0  0
M  END
> <s_m_entry_id>
33082

> <s_m_entry_name>
dock_pv.483

> <s_m_Source_Path>
/home/csk/Desktop/cluster/DUD-E-result/cdk2

> <s_m_Source_File>
dock_pv.maegz

> <i_m_Source_File_Index>
483

> <chembl_id>
CHEMBL481562

> <chembl_pref_name>
None

> <i_lp_mmshare_version>
53161

> <i_f3d_flags>
0

> <r_lp_tautomer_probability>
0.980392156860212

> <s_lp_Force_Field>
OPLS_2005

> <r_lp_Energy>
30.481052

> <b_lp_Chiralities_Consistent>
1

> <s_lp_Variant>
CHEMBL301_lig731-1

> <s_i_glide_gridfile>
glide-grid_1h00

> <i_i_glide_lignum>
1046

> <i_i_glide_rotatable_bonds>
5

> <r_i_docking_score>
-7.07170735891797

> <r_i_glide_ligand_efficiency>
-0.307465537344259

> <r_i_glide_ligand_efficiency_sa>
-0.874391088181775

> <r_i_glide_ligand_efficiency_ln>
-1.71000296208349

> <r_i_glide_gscore>
-7.07170735891797

> <r_i_glide_lipo>
-2.19767101989066

> <r_i_glide_hbond>
-0.456

> <r_i_glide_metal>
0

> <r_i_glide_rewards>
-1.96340709698489

> <r_i_glide_evdw>
-32.0597915649414

> <r_i_glide_ecoul>
-9.39465427398682

> <r_i_glide_erotb>
0.557558477302678

> <r_i_glide_esite>
0

> <r_i_glide_emodel>
-54.5139471205165

> <r_i_glide_energy>
-41.4544458389282

> <r_i_glide_einternal>
7.9263801574707

> <i_i_glide_confnum>
34

> <i_i_glide_posenum>
318

> <r_i_glide_eff_state_penalty>
0

> <s_user_duplicate_titles>
CHEMBL301_lig731,475349

> <s_m_subgroup_title>
dock_pv

> <s_m_subgroupid>
dock_pv

> <b_m_subgroup_collapsed>
1

$$$$
CHEMBL301_lig534
                    3D
 Schrodinger Suite 2021-1.
 46 48  0  0  1  0            999 V2000
   -0.8787   23.5565   12.9732 C   0  0  0  0  0  0
   -0.8074   22.2234   12.5750 C   0  0  0  0  0  0
    0.2392   21.7787   11.7692 C   0  0  0  0  0  0
    1.2321   22.6724   11.3674 C   0  0  0  0  0  0
    1.1797   24.0083   11.7795 C   0  0  0  0  0  0
    0.1157   24.4488   12.5780 C   0  0  0  0  0  0
    2.2949   24.9789   11.3714 C   0  0  0  0  0  0
    1.8518   26.1499   10.4810 C   0  0  0  0  0  0
    0.6674   26.2844   10.1762 O   0  0  0  0  0  0
    2.8587   26.9452   10.0584 N   0  0  0  0  0  0
    2.7883   28.0562    9.2289 C   0  0  0  0  0  0
    3.3942   29.4518    7.7205 N   0  0  0  0  0  0
    3.7893   28.3883    8.4499 N   0  0  0  0  0  0
    2.1146   29.8524    8.0429 C   0  0  0  0  0  0
    1.7151   28.9984    9.0929 C   0  0  0  0  0  0
    0.4844   29.2119    9.7112 C   0  0  0  0  0  0
   -0.3679   30.2350    9.2806 C   0  0  0  0  0  0
    0.0364   30.9986    8.1767 C   0  0  0  0  0  0
    1.2722   30.8483    7.5413 C   0  0  0  0  0  0
   -1.6300   30.4288    9.9177 N   0  0  0  0  0  0
   -2.1665   31.7439   10.3210 C   0  0  0  0  0  0
   -1.7099   33.0171    9.6045 C   0  0  0  0  0  0
   -2.1535   29.3403   10.7619 C   0  0  0  0  0  0
   -1.5996   29.3212   12.2053 C   0  0  0  0  0  0
   -1.6989   23.8977   13.5871 H   0  0  0  0  0  0
   -1.5713   21.5239   12.8842 H   0  0  0  0  0  0
    0.2799   20.7428   11.4591 H   0  0  0  0  0  0
    2.0372   22.3212   10.7401 H   0  0  0  0  0  0
    0.0607   25.4830   12.8902 H   0  0  0  0  0  0
    2.7616   25.3772   12.2730 H   0  0  0  0  0  0
    3.0710   24.4378   10.8289 H   0  0  0  0  0  0
    3.8013   26.6522   10.3021 H   0  0  0  0  0  0
    4.0196   29.8794    7.0452 H   0  0  0  0  0  0
    0.2204   28.5663   10.5207 H   0  0  0  0  0  0
   -0.6264   31.7393    7.7747 H   0  0  0  0  0  0
    1.5576   31.4766    6.7102 H   0  0  0  0  0  0
   -3.2551   31.6961   10.2609 H   0  0  0  0  0  0
   -1.9447   31.8798   11.3742 H   0  0  0  0  0  0
   -2.1084   33.8964   10.1108 H   0  0  0  0  0  0
   -0.6255   33.0972    9.6243 H   0  0  0  0  0  0
   -2.0679   33.0511    8.5781 H   0  0  0  0  0  0
   -3.2417   29.4034   10.7897 H   0  0  0  0  0  0
   -1.9422   28.3803   10.2875 H   0  0  0  0  0  0
   -1.9431   28.4320   12.7335 H   0  0  0  0  0  0
   -0.5130   29.3397   12.2732 H   0  0  0  0  0  0
   -1.9409   30.1831   12.7704 H   0  0  0  0  0  0
  1  6  1  0  0  0
  1  2  2  0  0  0
  1 25  1  0  0  0
  2  3  1  0  0  0
  2 26  1  0  0  0
  3  4  2  0  0  0
  3 27  1  0  0  0
  4  5  1  0  0  0
  4 28  1  0  0  0
  5  6  2  0  0  0
  5  7  1  0  0  0
  6 29  1  0  0  0
  7  8  1  0  0  0
  7 30  1  0  0  0
  7 31  1  0  0  0
  8  9  2  0  0  0
  8 10  1  0  0  0
 10 11  1  0  0  0
 10 32  1  0  0  0
 11 13  2  0  0  0
 11 15  1  0  0  0
 12 14  1  0  0  0
 12 13  1  0  0  0
 12 33  1  0  0  0
 14 15  2  0  0  0
 14 19  1  0  0  0
 15 16  1  0  0  0
 16 17  2  0  0  0
 16 34  1  0  0  0
 17 18  1  0  0  0
 17 20  1  0  0  0
 18 19  2  0  0  0
 18 35  1  0  0  0
 19 36  1  0  0  0
 20 21  1  0  0  0
 20 23  1  0  0  0
 21 22  1  0  0  0
 21 37  1  0  0  0
 21 38  1  0  0  0
 22 39  1  0  0  0
 22 40  1  0  0  0
 22 41  1  0  0  0
 23 24  1  0  0  0
 23 42  1  0  0  0
 23 43  1  0  0  0
 24 44  1  0  0  0
 24 45  1  0  0  0
 24 46  1  0  0  0
M  END
> <s_m_entry_id>
33084

> <s_m_entry_name>
dock_pv.485

> <s_m_Source_Path>
/home/csk/Desktop/cluster/DUD-E-result/cdk2

> <s_m_Source_File>
dock_pv.maegz

> <i_m_Source_File_Index>
485

> <chembl_id>
CHEMBL402910

> <chembl_pref_name>
None

> <i_lp_mmshare_version>
53161

> <i_f3d_flags>
0

> <r_lp_tautomer_probability>
0.983170504884756

> <s_lp_Force_Field>
OPLS_2005

> <r_lp_Energy>
18.815144

> <b_lp_Chiralities_Consistent>
1

> <s_lp_Variant>
CHEMBL301_lig534-1

> <s_i_glide_gridfile>
glide-grid_1h00

> <i_i_glide_lignum>
752

> <i_i_glide_rotatable_bonds>
7

> <r_i_docking_score>
-7.06938252789157

> <r_i_glide_ligand_efficiency>
-0.294557605328815

> <r_i_glide_ligand_efficiency_sa>
-0.849651158532448

> <r_i_glide_ligand_efficiency_ln>
-1.69202763175094

> <r_i_glide_gscore>
-7.06938252789157

> <r_i_glide_lipo>
-2.44345711754079

> <r_i_glide_hbond>
-0.455259423564998

> <r_i_glide_metal>
0

> <r_i_glide_rewards>
-2.10250128502064

> <r_i_glide_evdw>
-37.6498184204102

> <r_i_glide_ecoul>
-5.82332849502563

> <r_i_glide_erotb>
0.719610024510208

> <r_i_glide_esite>
-0.031784531000999

> <r_i_glide_emodel>
-56.9194317936724

> <r_i_glide_energy>
-43.4731469154358

> <r_i_glide_einternal>
11.9011726379395

> <i_i_glide_confnum>
33

> <i_i_glide_posenum>
340

> <r_i_glide_eff_state_penalty>
0

> <s_user_duplicate_titles>
CHEMBL301_lig534,424677

> <s_m_subgroup_title>
dock_pv

> <s_m_subgroupid>
dock_pv

> <b_m_subgroup_collapsed>
1

$$$$
CHEMBL301_lig1379
                    3D
 Schrodinger Suite 2021-1.
 52 54  0  0  1  0            999 V2000
    0.7578   27.6072   11.4515 C   0  0  0  0  0  0
    0.4909   28.9336   11.0107 O   0  0  0  0  0  0
   -0.8034   29.2730   10.6801 C   0  0  0  0  0  0
   -1.8987   28.6872   11.3277 C   0  0  0  0  0  0
   -3.1893   29.0520   10.9760 C   0  0  0  0  0  0
   -4.2470   28.3806   11.4873 F   0  0  0  0  0  0
   -3.3950   30.0709   10.0501 C   0  0  0  0  0  0
   -2.3262   30.6517    9.3961 C   0  0  0  0  0  0
   -1.0242   30.2215    9.6550 C   0  0  0  0  0  0
    0.0581   30.7048    8.7606 C   0  0  0  0  0  0
    0.0580   32.0035    8.2339 C   0  0  0  0  0  0
    1.0846   32.3780    7.3760 C   0  0  0  0  0  0
    2.0580   31.5221    6.9756 N   0  0  0  0  0  0
    2.0953   30.2699    7.5000 C   0  0  0  0  0  0
    3.1757   29.4520    7.0907 N   0  0  0  0  0  0
    3.6865   28.3449    7.6814 C   0  0  0  0  0  0
    3.3010   27.9123    8.7687 O   0  0  0  0  0  0
    4.8324   27.6131    6.9258 C   0  0  1  0  0  0
    5.7941   26.9054    7.9078 C   0  0  0  0  0  0
    6.9417   26.2521    7.1150 C   0  0  0  0  0  0
    6.4240   25.2264    6.0932 C   0  0  0  0  0  0
    5.3230   25.7860    5.1483 C   0  0  2  0  0  0
    4.2389   26.6127    5.8943 C   0  0  0  0  0  0
    4.7866   24.8252    4.1760 N   0  0  0  0  0  0
    4.1922   23.6544    4.4621 C   0  0  0  0  0  0
    4.0583   23.2069    5.5992 O   0  0  0  0  0  0
    3.6598   22.8671    3.2758 C   0  0  0  0  0  0
    1.1026   29.8520    8.3884 C   0  0  0  0  0  0
    1.8289   27.4192   11.3759 H   0  0  0  0  0  0
    0.4580   27.4673   12.4911 H   0  0  0  0  0  0
    0.2560   26.8620   10.8317 H   0  0  0  0  0  0
   -1.7676   27.9328   12.0872 H   0  0  0  0  0  0
   -4.3754   30.3960    9.7757 H   0  0  0  0  0  0
   -2.5330   31.3822    8.6278 H   0  0  0  0  0  0
   -0.7021   32.7228    8.5010 H   0  0  0  0  0  0
    1.1185   33.3803    6.9762 H   0  0  0  0  0  0
    3.7004   29.8366    6.3168 H   0  0  0  0  0  0
    5.3559   28.4036    6.3846 H   0  0  0  0  0  0
    5.2909   26.0999    8.4474 H   0  0  0  0  0  0
    6.2382   27.6122    8.6043 H   0  0  0  0  0  0
    7.6444   25.7752    7.7998 H   0  0  0  0  0  0
    7.5064   27.0137    6.5760 H   0  0  0  0  0  0
    6.0256   24.3892    6.6662 H   0  0  0  0  0  0
    7.2597   24.8404    5.5078 H   0  0  0  0  0  0
    5.8570   26.5130    4.5321 H   0  0  0  0  0  0
    3.6580   27.1361    5.1338 H   0  0  0  0  0  0
    3.6580   25.8520    6.4206 H   0  0  0  0  0  0
    4.7123   25.1390    3.2165 H   0  0  0  0  0  0
    4.4620   22.6519    2.5701 H   0  0  0  0  0  0
    2.8897   23.4410    2.7579 H   0  0  0  0  0  0
    3.2275   21.9216    3.6016 H   0  0  0  0  0  0
    1.1099   28.8395    8.7536 H   0  0  0  0  0  0
  1  2  1  0  0  0
  1 29  1  0  0  0
  1 30  1  0  0  0
  1 31  1  0  0  0
  2  3  1  0  0  0
  3  4  2  0  0  0
  3  9  1  0  0  0
  4  5  1  0  0  0
  4 32  1  0  0  0
  5  6  1  0  0  0
  5  7  2  0  0  0
  7  8  1  0  0  0
  7 33  1  0  0  0
  8  9  2  0  0  0
  8 34  1  0  0  0
  9 10  1  0  0  0
 10 11  2  0  0  0
 10 28  1  0  0  0
 11 12  1  0  0  0
 11 35  1  0  0  0
 12 13  2  0  0  0
 12 36  1  0  0  0
 13 14  1  0  0  0
 14 15  1  0  0  0
 14 28  2  0  0  0
 15 16  1  0  0  0
 15 37  1  0  0  0
 16 17  2  0  0  0
 16 18  1  0  0  0
 18 19  1  0  0  0
 18 23  1  0  0  0
 18 38  1  0  0  0
 19 20  1  0  0  0
 19 39  1  0  0  0
 19 40  1  0  0  0
 20 21  1  0  0  0
 20 41  1  0  0  0
 20 42  1  0  0  0
 21 22  1  0  0  0
 21 43  1  0  0  0
 21 44  1  0  0  0
 22 23  1  0  0  0
 22 24  1  0  0  0
 22 45  1  0  0  0
 23 46  1  0  0  0
 23 47  1  0  0  0
 24 25  1  0  0  0
 24 48  1  0  0  0
 25 26  2  0  0  0
 25 27  1  0  0  0
 27 49  1  0  0  0
 27 50  1  0  0  0
 27 51  1  0  0  0
 28 52  1  0  0  0
M  END
> <s_m_entry_id>
33085

> <s_m_entry_name>
dock_pv.486

> <s_m_Source_Path>
/home/csk/Desktop/cluster/DUD-E-result/cdk2

> <s_m_Source_File>
dock_pv.maegz

> <i_m_Source_File_Index>
486

> <chembl_id>
CHEMBL3673434

> <chembl_pref_name>
None

> <i_lp_mmshare_version>
53161

> <i_f3d_flags>
0

> <r_lp_tautomer_probability>
1

> <s_lp_Force_Field>
OPLS_2005

> <r_lp_Energy>
23.512654

> <b_lp_Chiralities_Consistent>
1

> <s_lp_Variant>
CHEMBL301_lig1379-1

> <s_i_glide_gridfile>
glide-grid_1h00

> <i_i_glide_lignum>
1851

> <i_i_glide_rotatable_bonds>
7

> <r_i_docking_score>
-7.06692700621841

> <r_i_glide_ligand_efficiency>
-0.252390250222086

> <r_i_glide_ligand_efficiency_sa>
-0.766405449582053

> <r_i_glide_ligand_efficiency_ln>
-1.63125424702829

> <r_i_glide_gscore>
-7.06692700621841

> <r_i_glide_lipo>
-2.39185723466378

> <r_i_glide_hbond>
-0.414580691085976

> <r_i_glide_metal>
0

> <r_i_glide_rewards>
-2.40003924090491

> <r_i_glide_evdw>
-28.435489654541

> <r_i_glide_ecoul>
-5.16836929321289

> <r_i_glide_erotb>
0.458308627776422

> <r_i_glide_esite>
-0.121728590631184

> <r_i_glide_emodel>
-45.0486406180857

> <r_i_glide_energy>
-33.6038589477539

> <r_i_glide_einternal>
9.40901947021484

> <i_i_glide_confnum>
77

> <i_i_glide_posenum>
368

> <r_i_glide_eff_state_penalty>
0

> <s_user_duplicate_titles>
CHEMBL301_lig1379

> <s_m_subgroup_title>
dock_pv

> <s_m_subgroupid>
dock_pv

> <b_m_subgroup_collapsed>
1

$$$$
CHEMBL301_lig193
                    3D
 Schrodinger Suite 2021-1.
 39 42  0  0  1  0            999 V2000
    0.9433   29.9880    8.6720 C   0  0  0  0  0  0
    1.0882   31.1892    7.7759 C   0  0  0  0  0  0
   -0.0702   28.0006   10.4199 C   0  0  0  0  0  0
   -0.6248   26.6363   11.4601 S   0  0  0  0  0  0
   -0.2906   30.1023    9.2753 C   0  0  0  0  0  0
   -0.8801   29.1512   10.1315 C   0  0  0  0  0  0
    1.7469   28.8796    8.9760 C   0  0  0  0  0  0
    0.0194   31.9536    8.0777 N   0  0  0  0  0  0
   -0.8743   31.2895    8.8998 C   0  0  0  0  0  0
    1.2208   27.9162    9.8602 C   0  0  0  0  0  0
    3.0845   28.5993    8.3537 C   0  0  0  0  0  0
    4.0580   27.8521    8.9761 N   0  0  0  0  0  0
   -2.2056   29.4769   10.5763 C   0  0  0  0  0  0
   -0.7730   27.4292   13.1683 C   0  0  0  0  0  0
   -1.9420   26.2169   10.9760 O   0  0  0  0  0  0
    0.4622   25.6524   11.5265 O   0  0  0  0  0  0
    1.9679   31.4950    6.9758 O   0  0  0  0  0  0
   -2.1493   31.6009    9.3540 C   0  0  0  0  0  0
    3.6068   28.8861    7.0926 C   0  0  0  0  0  0
    5.1312   27.6462    8.1538 C   0  0  0  0  0  0
    4.8579   28.2768    6.9599 C   0  0  0  0  0  0
   -2.8077   30.6823   10.1759 C   0  0  0  0  0  0
   -2.9153   28.6527   11.3761 F   0  0  0  0  0  0
   -2.6897   26.2519   14.1198 N   0  0  0  0  0  0
   -1.2535   26.4248   14.2258 C   0  0  0  0  0  0
   -0.1254   32.8717    7.6852 H   0  0  0  0  0  0
    1.8153   27.0416   10.0775 H   0  0  0  0  0  0
    3.9893   27.4726    9.9113 H   0  0  0  0  0  0
    0.2216   27.8025   13.3766 H   0  0  0  0  0  0
   -1.4143   28.3045   13.1148 H   0  0  0  0  0  0
   -2.6382   32.5244    9.0794 H   0  0  0  0  0  0
    3.1181   29.4440    6.3086 H   0  0  0  0  0  0
    5.9721   27.0575    8.4921 H   0  0  0  0  0  0
    5.4956   28.3000    6.0876 H   0  0  0  0  0  0
   -3.7986   30.9145   10.5396 H   0  0  0  0  0  0
   -3.0529   25.7035   14.8841 H   0  0  0  0  0  0
   -3.1439   27.1638   14.1742 H   0  0  0  0  0  0
   -0.7451   25.4658   14.1129 H   0  0  0  0  0  0
   -1.0167   26.7859   15.2276 H   0  0  0  0  0  0
  1  2  1  0  0  0
  1  5  1  0  0  0
  1  7  2  0  0  0
  2  8  1  0  0  0
  2 17  2  0  0  0
  3 10  2  0  0  0
  3  4  1  0  0  0
  3  6  1  0  0  0
  4 14  1  0  0  0
  4 15  2  0  0  0
  4 16  2  0  0  0
  5  6  2  0  0  0
  5  9  1  0  0  0
  6 13  1  0  0  0
  7 10  1  0  0  0
  7 11  1  0  0  0
  8  9  1  0  0  0
  8 26  1  0  0  0
  9 18  2  0  0  0
 10 27  1  0  0  0
 11 12  1  0  0  0
 11 19  2  0  0  0
 12 20  1  0  0  0
 12 28  1  0  0  0
 13 23  1  0  0  0
 13 22  2  0  0  0
 14 25  1  0  0  0
 14 29  1  0  0  0
 14 30  1  0  0  0
 18 22  1  0  0  0
 18 31  1  0  0  0
 19 21  1  0  0  0
 19 32  1  0  0  0
 20 21  2  0  0  0
 20 33  1  0  0  0
 21 34  1  0  0  0
 22 35  1  0  0  0
 24 25  1  0  0  0
 24 36  1  0  0  0
 24 37  1  0  0  0
 25 38  1  0  0  0
 25 39  1  0  0  0
M  END
> <s_m_entry_id>
33086

> <s_m_entry_name>
dock_pv.487

> <s_m_Source_Path>
/home/csk/Desktop/cluster/DUD-E-result/cdk2

> <s_m_Source_File>
dock_pv.maegz

> <i_m_Source_File_Index>
487

> <chembl_id>
CHEMBL309767

> <chembl_pref_name>
None

> <i_lp_mmshare_version>
53161

> <i_f3d_flags>
0

> <r_lp_tautomer_probability>
1

> <s_lp_Force_Field>
OPLS_2005

> <r_lp_Energy>
58.382123

> <b_lp_Chiralities_Consistent>
1

> <s_lp_Variant>
CHEMBL301_lig193-1

> <s_i_glide_gridfile>
glide-grid_1h00

> <i_i_glide_lignum>
335

> <i_i_glide_rotatable_bonds>
4

> <r_i_docking_score>
-7.06118134572467

> <r_i_glide_ligand_efficiency>
-0.282447253828987

> <r_i_glide_ligand_efficiency_sa>
-0.825880779419333

> <r_i_glide_ligand_efficiency_ln>
-1.67371158546608

> <r_i_glide_gscore>
-7.06118134572467

> <r_i_glide_lipo>
-3.02705550144093

> <r_i_glide_hbond>
-0.311075886847047

> <r_i_glide_metal>
0

> <r_i_glide_rewards>
-1.72205799283851

> <r_i_glide_evdw>
-36.4776649475098

> <r_i_glide_ecoul>
-3.67607879638672

> <r_i_glide_erotb>
0.445215706569673

> <r_i_glide_esite>
-0.0709126043343598

> <r_i_glide_emodel>
-57.6221602202962

> <r_i_glide_energy>
-40.1537437438965

> <r_i_glide_einternal>
0.572354257106781

> <i_i_glide_confnum>
1

> <i_i_glide_posenum>
327

> <r_i_glide_eff_state_penalty>
0

> <s_user_duplicate_titles>
CHEMBL301_lig193,131397

> <s_m_subgroup_title>
dock_pv

> <s_m_subgroupid>
dock_pv

> <b_m_subgroup_collapsed>
1

$$$$
CHEMBL301_lig561
                    3D
 Schrodinger Suite 2021-1.
 36 39  0  0  1  0            999 V2000
   -2.3420   28.3606   11.7760 N   0  0  0  0  0  0
   -2.0700   29.3757   10.9853 C   0  0  0  0  0  0
   -0.8877   29.2456   10.2560 C   0  0  0  0  0  0
   -1.3282   27.4941   11.6135 N   0  0  0  0  0  0
   -0.3898   27.9730   10.6815 C   0  0  0  0  0  0
    0.7101   27.1266   10.4437 C   0  0  0  0  0  0
    0.7908   25.9104   11.1243 C   0  0  0  0  0  0
   -0.2145   25.5606   12.0243 C   0  0  0  0  0  0
   -1.2965   26.3333   12.2940 N   0  0  0  0  0  0
   -0.3038   30.2232    9.2860 C   0  0  0  0  0  0
   -0.8115   31.5152    9.0918 C   0  0  0  0  0  0
   -0.1404   32.3325    8.1760 C   0  0  0  0  0  0
    0.9366   31.9033    7.4680 N   0  0  0  0  0  0
    1.3608   30.6397    7.7234 C   0  0  0  0  0  0
    0.7891   29.7891    8.6099 N   0  0  0  0  0  0
    2.4580   30.2058    6.9760 N   0  0  0  0  0  0
    3.2643   29.0520    7.0211 C   0  0  0  0  0  0
    3.8798   28.6562    5.8382 C   0  0  0  0  0  0
    4.6731   27.5231    5.7624 C   0  0  0  0  0  0
    4.8580   26.7353    6.8972 C   0  0  0  0  0  0
    4.2738   27.1474    8.1025 C   0  0  0  0  0  0
    3.5093   28.3129    8.1772 C   0  0  0  0  0  0
    5.6562   25.4897    6.8156 N   0  3  0  0  0  0
    6.2810   25.2564    5.7853 O   0  0  0  0  0  0
    5.6533   24.7291    7.7760 O   0  5  0  0  0  0
   -2.7420   30.2210   10.9467 H   0  0  0  0  0  0
    1.4799   27.4017    9.7458 H   0  0  0  0  0  0
    1.6301   25.2512   10.9558 H   0  0  0  0  0  0
   -0.1607   24.6237   12.5593 H   0  0  0  0  0  0
   -1.6671   31.8814    9.6389 H   0  0  0  0  0  0
   -0.4582   33.3510    8.0038 H   0  0  0  0  0  0
    2.8849   30.9332    6.4161 H   0  0  0  0  0  0
    3.7659   29.2694    4.9760 H   0  0  0  0  0  0
    5.1318   27.2608    4.8190 H   0  0  0  0  0  0
    4.4002   26.5441    8.9760 H   0  0  0  0  0  0
    3.1022   28.6301    9.1234 H   0  0  0  0  0  0
  1  4  1  0  0  0
  1  2  2  0  0  0
  2  3  1  0  0  0
  2 26  1  0  0  0
  3  5  2  0  0  0
  3 10  1  0  0  0
  4  5  1  0  0  0
  4  9  1  0  0  0
  5  6  1  0  0  0
  6  7  2  0  0  0
  6 27  1  0  0  0
  7  8  1  0  0  0
  7 28  1  0  0  0
  8  9  2  0  0  0
  8 29  1  0  0  0
 10 15  1  0  0  0
 10 11  2  0  0  0
 11 12  1  0  0  0
 11 30  1  0  0  0
 12 13  2  0  0  0
 12 31  1  0  0  0
 13 14  1  0  0  0
 14 15  2  0  0  0
 14 16  1  0  0  0
 16 17  1  0  0  0
 16 32  1  0  0  0
 17 18  2  0  0  0
 17 22  1  0  0  0
 18 19  1  0  0  0
 18 33  1  0  0  0
 19 20  2  0  0  0
 19 34  1  0  0  0
 20 21  1  0  0  0
 20 23  1  0  0  0
 21 22  2  0  0  0
 21 35  1  0  0  0
 22 36  1  0  0  0
 23 24  2  0  0  0
 23 25  1  0  0  0
M  CHG  2  23   1  25  -1
M  END
> <s_m_entry_id>
33087

> <s_m_entry_name>
dock_pv.488

> <s_m_Source_Path>
/home/csk/Desktop/cluster/DUD-E-result/cdk2

> <s_m_Source_File>
dock_pv.maegz

> <i_m_Source_File_Index>
488

> <chembl_id>
CHEMBL188938

> <chembl_pref_name>
None

> <i_lp_mmshare_version>
53161

> <i_f3d_flags>
0

> <r_lp_tautomer_probability>
0.999999987636

> <s_lp_Force_Field>
OPLS_2005

> <r_lp_Energy>
17.849315

> <b_lp_Chiralities_Consistent>
1

> <s_lp_Variant>
CHEMBL301_lig561-1

> <s_i_glide_gridfile>
glide-grid_1h00

> <i_i_glide_lignum>
791

> <i_i_glide_rotatable_bonds>
4

> <r_i_docking_score>
-7.06092021891346

> <r_i_glide_ligand_efficiency>
-0.282436808756538

> <r_i_glide_ligand_efficiency_sa>
-0.82585023784225

> <r_i_glide_ligand_efficiency_ln>
-1.67364969058648

> <r_i_glide_gscore>
-7.06092021891346

> <r_i_glide_lipo>
-2.38048826380783

> <r_i_glide_hbond>
-0.23331966976626

> <r_i_glide_metal>
0

> <r_i_glide_rewards>
-2.5990750460399

> <r_i_glide_evdw>
-35.6392097473145

> <r_i_glide_ecoul>
-3.77521872520447

> <r_i_glide_erotb>
0.508924738239051

> <r_i_glide_esite>
-0.00871868139212869

> <r_i_glide_emodel>
-56.0656825818711

> <r_i_glide_energy>
-39.4144284725189

> <r_i_glide_einternal>
2.28835988044739

> <i_i_glide_confnum>
1

> <i_i_glide_posenum>
116

> <r_i_glide_eff_state_penalty>
0

> <s_user_duplicate_titles>
CHEMBL301_lig561,313041

> <s_m_subgroup_title>
dock_pv

> <s_m_subgroupid>
dock_pv

> <b_m_subgroup_collapsed>
1

$$$$
CHEMBL301_lig1486
                    3D
 Schrodinger Suite 2021-1.
 46 48  0  0  1  0            999 V2000
   -3.8515   30.3945    9.5919 C   0  0  0  0  0  0
   -2.4512   30.2414    9.4652 O   0  0  0  0  0  0
   -1.7357   29.4764   10.3674 C   0  0  0  0  0  0
   -2.3423   28.6991   11.3747 C   0  0  0  0  0  0
   -1.5807   27.8833   12.2068 C   0  0  0  0  0  0
   -2.1762   27.0654   13.1047 F   0  0  0  0  0  0
   -0.1999   27.8905   12.0997 C   0  0  0  0  0  0
    0.4111   28.6694   11.1260 C   0  0  0  0  0  0
   -0.3344   29.4466   10.2190 C   0  0  0  0  0  0
    0.3802   30.1538    9.0989 C   0  0  0  0  0  0
    1.4828   29.4963    8.6498 N   0  0  0  0  0  0
    2.2534   30.0711    7.6980 C   0  0  0  0  0  0
    3.4568   29.4520    7.3271 N   0  0  0  0  0  0
    3.9708   28.1618    7.5430 C   0  0  0  0  0  0
    3.5354   27.3226    8.5779 C   0  0  0  0  0  0
    3.8463   25.9656    8.5728 C   0  0  0  0  0  0
    3.2581   25.1376    9.4699 F   0  0  0  0  0  0
    4.7129   25.4590    7.6029 C   0  0  0  0  0  0
    5.0185   24.1412    7.6046 F   0  0  0  0  0  0
    5.2371   26.3064    6.6174 C   0  0  0  0  0  0
    6.1599   25.7669    5.5341 C   0  0  0  0  0  0
    5.2184   24.8484    4.1777 S   0  0  2  0  0  0
    4.5687   25.9722    3.3761 N   0  0  0  0  0  0
    4.4821   23.7158    4.7456 O   0  0  0  0  0  0
    6.5397   24.2333    2.9938 C   0  0  0  0  0  0
    4.8573   27.6515    6.5921 C   0  0  0  0  0  0
    1.9578   31.2448    7.0809 N   0  0  0  0  0  0
    0.8584   31.9063    7.5331 C   0  0  0  0  0  0
    0.0531   31.4172    8.5653 C   0  0  0  0  0  0
   -0.9356   32.2011    9.0532 F   0  0  0  0  0  0
   -4.1981   31.1145    8.8524 H   0  0  0  0  0  0
   -4.3448   29.4520    9.3786 H   0  0  0  0  0  0
   -4.1389   30.7631   10.5760 H   0  0  0  0  0  0
   -3.4129   28.6898   11.5041 H   0  0  0  0  0  0
    0.4000   27.2761   12.7551 H   0  0  0  0  0  0
    1.4881   28.6331   11.0623 H   0  0  0  0  0  0
    3.9870   30.0204    6.6718 H   0  0  0  0  0  0
    2.8743   27.6660    9.3530 H   0  0  0  0  0  0
    6.8586   25.0502    5.9631 H   0  0  0  0  0  0
    6.7472   26.5586    5.0667 H   0  0  0  0  0  0
    4.4578   25.6931    2.4012 H   0  0  0  0  0  0
    7.1881   25.0656    2.7240 H   0  0  0  0  0  0
    6.0582   23.8355    2.1013 H   0  0  0  0  0  0
    7.1147   23.4520    3.4873 H   0  0  0  0  0  0
    5.2080   28.2848    5.7886 H   0  0  0  0  0  0
    0.6561   32.8746    7.0965 H   0  0  0  0  0  0
  1  2  1  0  0  0
  1 31  1  0  0  0
  1 32  1  0  0  0
  1 33  1  0  0  0
  2  3  1  0  0  0
  3  4  2  0  0  0
  3  9  1  0  0  0
  4  5  1  0  0  0
  4 34  1  0  0  0
  5  6  1  0  0  0
  5  7  2  0  0  0
  7  8  1  0  0  0
  7 35  1  0  0  0
  8  9  2  0  0  0
  8 36  1  0  0  0
  9 10  1  0  0  0
 10 11  2  0  0  0
 10 29  1  0  0  0
 11 12  1  0  0  0
 12 13  1  0  0  0
 12 27  2  0  0  0
 13 14  1  0  0  0
 13 37  1  0  0  0
 14 15  2  0  0  0
 14 26  1  0  0  0
 15 16  1  0  0  0
 15 38  1  0  0  0
 16 17  1  0  0  0
 16 18  2  0  0  0
 18 19  1  0  0  0
 18 20  1  0  0  0
 20 21  1  0  0  0
 20 26  2  0  0  0
 21 22  1  0  0  0
 21 39  1  0  0  0
 21 40  1  0  0  0
 22 23  2  0  0  0
 22 24  2  0  0  0
 22 25  1  0  0  0
 23 41  1  0  0  0
 25 42  1  0  0  0
 25 43  1  0  0  0
 25 44  1  0  0  0
 26 45  1  0  0  0
 27 28  1  0  0  0
 28 29  2  0  0  0
 28 46  1  0  0  0
 29 30  1  0  0  0
M  END
> <s_m_entry_id>
33089

> <s_m_entry_name>
dock_pv.490

> <s_m_Source_Path>
/home/csk/Desktop/cluster/DUD-E-result/cdk2

> <s_m_Source_File>
dock_pv.maegz

> <i_m_Source_File_Index>
490

> <chembl_id>
CHEMBL3897217

> <chembl_pref_name>
None

> <i_lp_mmshare_version>
53161

> <i_f3d_flags>
0

> <r_lp_tautomer_probability>
0.999999987636

> <s_lp_Force_Field>
OPLS_2005

> <r_lp_Energy>
17.01077

> <b_lp_Chiralities_Consistent>
1

> <s_lp_Variant>
CHEMBL301_lig1486-1

> <s_i_glide_gridfile>
glide-grid_1h00

> <i_i_glide_lignum>
2012

> <i_i_glide_rotatable_bonds>
6

> <r_i_docking_score>
-7.04557585409275

> <r_i_glide_ligand_efficiency>
-0.234852528469758

> <r_i_glide_ligand_efficiency_sa>
-0.729741409739356

> <r_i_glide_ligand_efficiency_ln>
-1.60083160174741

> <r_i_glide_gscore>
-7.04557585409275

> <r_i_glide_lipo>
-1.97460381933056

> <r_i_glide_hbond>
-0.456

> <r_i_glide_metal>
0

> <r_i_glide_rewards>
-2.01182637320816

> <r_i_glide_evdw>
-33.6548271179199

> <r_i_glide_ecoul>
-8.74156093597412

> <r_i_glide_erotb>
0.514689849886378

> <r_i_glide_esite>
-0.1238600151483

> <r_i_glide_emodel>
-56.6353094747304

> <r_i_glide_energy>
-42.396388053894

> <r_i_glide_einternal>
4.42680358886719

> <i_i_glide_confnum>
232

> <i_i_glide_posenum>
100

> <r_i_glide_eff_state_penalty>
0

> <s_user_duplicate_titles>
CHEMBL301_lig1486

> <s_m_subgroup_title>
dock_pv

> <s_m_subgroupid>
dock_pv

> <b_m_subgroup_collapsed>
1

$$$$
CHEMBL301_lig793
                    3D
 Schrodinger Suite 2021-1.
 45 47  0  0  1  0            999 V2000
    4.9030   27.4810    8.1625 C   0  0  0  0  0  0
    5.3883   27.0936    6.9137 C   0  0  0  0  0  0
    4.8573   27.6890    5.7639 C   0  0  0  0  0  0
    3.8599   28.6520    5.8795 C   0  0  0  0  0  0
    3.3773   29.0345    7.1335 C   0  0  0  0  0  0
    3.9100   28.4460    8.2785 C   0  0  0  0  0  0
    2.3769   30.0151    7.1876 N   0  0  0  0  0  0
    1.3233   30.2523    8.0820 C   0  0  0  0  0  0
    1.0976   29.4063    9.1253 N   0  0  0  0  0  0
   -0.0024   29.6224    9.9010 C   0  0  0  0  0  0
   -0.8550   30.7098    9.6390 C   0  0  0  0  0  0
   -0.5234   31.5475    8.5762 C   0  0  0  0  0  0
    0.5508   31.3237    7.7762 N   0  0  0  0  0  0
   -0.2657   28.6682   11.0433 C   0  0  0  0  0  0
   -1.0254   28.9180   12.1844 C   0  0  0  0  0  0
   -1.0746   27.9058   13.0158 N   0  0  0  0  0  0
   -0.3520   26.9740   12.4573 C   0  0  0  0  0  0
    0.1735   27.3544   11.2292 N   0  0  0  0  0  0
   -0.1688   25.6254   13.1226 C   0  0  0  0  0  0
    1.0091   26.5263   10.3312 C   0  0  0  0  0  0
    0.3772   25.1502   10.0213 C   0  0  0  0  0  0
    2.4574   26.4284   10.8461 C   0  0  0  0  0  0
    6.4779   26.0575    6.8314 C   0  0  0  0  0  0
    7.4054   26.2519    5.8963 N   0  0  0  0  0  0
    6.5332   25.1068    7.6075 O   0  0  0  0  0  0
   -1.9689   30.9611   10.3636 F   0  0  0  0  0  0
    5.3241   27.0519    9.0495 H   0  0  0  0  0  0
    5.2103   27.4143    4.7796 H   0  0  0  0  0  0
    3.4682   29.1036    4.9839 H   0  0  0  0  0  0
    3.5771   28.7390    9.2608 H   0  0  0  0  0  0
    2.4155   30.6716    6.4234 H   0  0  0  0  0  0
   -1.1390   32.4018    8.3341 H   0  0  0  0  0  0
   -1.5473   29.8340   12.4246 H   0  0  0  0  0  0
   -0.3306   25.6763   14.1997 H   0  0  0  0  0  0
    0.8313   25.2254   12.9758 H   0  0  0  0  0  0
   -0.8758   24.8926   12.7349 H   0  0  0  0  0  0
    1.0535   27.0296    9.3762 H   0  0  0  0  0  0
    0.9142   24.6533    9.2133 H   0  0  0  0  0  0
    0.4152   24.4614   10.8611 H   0  0  0  0  0  0
   -0.6641   25.2481    9.7100 H   0  0  0  0  0  0
    3.0991   25.9490   10.1062 H   0  0  0  0  0  0
    2.8758   27.4160   11.0417 H   0  0  0  0  0  0
    2.5445   25.8515   11.7656 H   0  0  0  0  0  0
    8.1465   25.5789    5.7858 H   0  0  0  0  0  0
    7.4891   27.1736    5.4711 H   0  0  0  0  0  0
  1  2  2  0  0  0
  1  6  1  0  0  0
  1 27  1  0  0  0
  2  3  1  0  0  0
  2 23  1  0  0  0
  3  4  2  0  0  0
  3 28  1  0  0  0
  4  5  1  0  0  0
  4 29  1  0  0  0
  5  7  1  0  0  0
  5  6  2  0  0  0
  6 30  1  0  0  0
  7  8  1  0  0  0
  7 31  1  0  0  0
  8 13  1  0  0  0
  8  9  2  0  0  0
  9 10  1  0  0  0
 10 14  1  0  0  0
 10 11  2  0  0  0
 11 12  1  0  0  0
 11 26  1  0  0  0
 12 13  2  0  0  0
 12 32  1  0  0  0
 14 15  2  0  0  0
 14 18  1  0  0  0
 15 16  1  0  0  0
 15 33  1  0  0  0
 16 17  2  0  0  0
 17 18  1  0  0  0
 17 19  1  0  0  0
 18 20  1  0  0  0
 19 34  1  0  0  0
 19 35  1  0  0  0
 19 36  1  0  0  0
 20 21  1  0  0  0
 20 22  1  0  0  0
 20 37  1  0  0  0
 21 38  1  0  0  0
 21 39  1  0  0  0
 21 40  1  0  0  0
 22 41  1  0  0  0
 22 42  1  0  0  0
 22 43  1  0  0  0
 23 24  1  0  0  0
 23 25  2  0  0  0
 24 44  1  0  0  0
 24 45  1  0  0  0
M  END
> <s_m_entry_id>
33090

> <s_m_entry_name>
dock_pv.491

> <s_m_Source_Path>
/home/csk/Desktop/cluster/DUD-E-result/cdk2

> <s_m_Source_File>
dock_pv.maegz

> <i_m_Source_File_Index>
491

> <chembl_id>
CHEMBL509881

> <chembl_pref_name>
None

> <i_lp_mmshare_version>
53161

> <i_f3d_flags>
0

> <r_lp_tautomer_probability>
0.999999987636

> <s_lp_Force_Field>
OPLS_2005

> <r_lp_Energy>
20.875143

> <b_lp_Chiralities_Consistent>
1

> <s_lp_Variant>
CHEMBL301_lig793-1

> <s_i_glide_gridfile>
glide-grid_1h00

> <i_i_glide_lignum>
1132

> <i_i_glide_rotatable_bonds>
5

> <r_i_docking_score>
-7.04448122990583

> <r_i_glide_ligand_efficiency>
-0.270941585765609

> <r_i_glide_ligand_efficiency_sa>
-0.802663381726957

> <r_i_glide_ligand_efficiency_ln>
-1.65437330201514

> <r_i_glide_gscore>
-7.04448122990583

> <r_i_glide_lipo>
-2.29943546260067

> <r_i_glide_hbond>
-0.32

> <r_i_glide_metal>
0

> <r_i_glide_rewards>
-1.94464403430383

> <r_i_glide_evdw>
-40.0364036560059

> <r_i_glide_ecoul>
-5.86404752731323

> <r_i_glide_erotb>
0.456452654261345

> <r_i_glide_esite>
-0.055427075365401

> <r_i_glide_emodel>
-63.0911474384925

> <r_i_glide_energy>
-45.9004511833191

> <r_i_glide_einternal>
2.84943032264709

> <i_i_glide_confnum>
8

> <i_i_glide_posenum>
295

> <r_i_glide_eff_state_penalty>
0

> <s_user_duplicate_titles>
CHEMBL301_lig793,453105

> <s_m_subgroup_title>
dock_pv

> <s_m_subgroupid>
dock_pv

> <b_m_subgroup_collapsed>
1

$$$$
CHEMBL301_lig1085
                    3D
 Schrodinger Suite 2021-1.
 52 54  0  0  1  0            999 V2000
   -1.1810   31.6043    9.5659 C   0  0  0  0  0  0
   -0.7418   32.4880    8.5782 C   0  0  0  0  0  0
    0.3303   32.2802    7.7760 N   0  0  0  0  0  0
   -0.4744   30.4099    9.8020 C   0  0  0  0  0  0
   -0.8815   29.5543   10.8364 N   0  0  0  0  0  0
   -1.2208   28.2011   10.4215 C   0  0  0  0  0  0
    0.6497   30.1630    8.9747 C   0  0  0  0  0  0
    0.9457   31.1196    7.9758 C   0  0  0  0  0  0
    2.0602   30.6466    7.3417 N   0  0  0  0  0  0
    2.4268   29.4867    7.9806 C   0  0  0  0  0  0
    1.6144   29.1789    8.9757 N   0  0  0  0  0  0
    3.5693   28.6520    7.5110 C   0  0  0  0  0  0
    4.2268   27.7852    8.3856 C   0  0  0  0  0  0
    5.1827   26.8995    7.8981 C   0  0  0  0  0  0
    5.4928   26.8566    6.5423 C   0  0  0  0  0  0
    4.8581   27.7517    5.6691 C   0  0  0  0  0  0
    3.9145   28.6517    6.1542 C   0  0  0  0  0  0
    6.4201   25.9080    6.1587 O   0  0  0  0  0  0
    6.7336   25.7593    4.7784 C   0  0  0  0  0  0
   -2.7220   32.0907   10.5760 Br  0  0  0  0  0  0
   -1.7596   27.3302   11.5711 C   0  0  0  0  0  0
   -0.7290   26.9615   12.6619 C   0  0  0  0  0  0
    0.4563   26.2524   12.1760 N   0  0  0  0  0  0
    0.4618   25.0341   11.6074 C   0  0  0  0  0  0
    1.8373   24.4944   11.1646 C   0  0  0  0  0  0
   -0.5617   24.3709   11.4278 O   0  0  0  0  0  0
    2.2129   25.0452    9.7756 C   0  0  0  0  0  0
    1.8963   22.9486   11.1762 C   0  0  0  0  0  0
   -1.2646   33.4200    8.4176 H   0  0  0  0  0  0
   -1.6066   29.9655   11.4094 H   0  0  0  0  0  0
   -0.3386   27.7339    9.9827 H   0  0  0  0  0  0
   -1.9418   28.2514    9.6080 H   0  0  0  0  0  0
    2.5967   31.0498    6.5865 H   0  0  0  0  0  0
    3.9774   27.7667    9.4371 H   0  0  0  0  0  0
    5.6709   26.2166    8.5762 H   0  0  0  0  0  0
    5.0863   27.7595    4.6147 H   0  0  0  0  0  0
    3.4220   29.3124    5.4565 H   0  0  0  0  0  0
    7.4342   24.9334    4.6576 H   0  0  0  0  0  0
    5.8468   25.5275    4.1864 H   0  0  0  0  0  0
    7.2101   26.6525    4.3757 H   0  0  0  0  0  0
   -2.1886   26.4180   11.1553 H   0  0  0  0  0  0
   -2.5985   27.8435   12.0452 H   0  0  0  0  0  0
   -1.2059   26.3928   13.4627 H   0  0  0  0  0  0
   -0.3560   27.8811   13.1158 H   0  0  0  0  0  0
    1.3439   26.7197   12.3273 H   0  0  0  0  0  0
    2.5792   24.8656   11.8749 H   0  0  0  0  0  0
    2.1648   26.1348    9.7449 H   0  0  0  0  0  0
    1.5410   24.6684    9.0049 H   0  0  0  0  0  0
    3.2286   24.7643    9.4948 H   0  0  0  0  0  0
    1.7355   22.5505   12.1794 H   0  0  0  0  0  0
    1.1327   22.5123   10.5295 H   0  0  0  0  0  0
    2.8540   22.5760   10.8169 H   0  0  0  0  0  0
  1  2  2  0  0  0
  1  4  1  0  0  0
  1 20  1  0  0  0
  2  3  1  0  0  0
  2 29  1  0  0  0
  3  8  2  0  0  0
  4  7  2  0  0  0
  4  5  1  0  0  0
  5  6  1  0  0  0
  5 30  1  0  0  0
  6 21  1  0  0  0
  6 31  1  0  0  0
  6 32  1  0  0  0
  7  8  1  0  0  0
  7 11  1  0  0  0
  8  9  1  0  0  0
  9 10  1  0  0  0
  9 33  1  0  0  0
 10 11  2  0  0  0
 10 12  1  0  0  0
 12 17  1  0  0  0
 12 13  2  0  0  0
 13 14  1  0  0  0
 13 34  1  0  0  0
 14 15  2  0  0  0
 14 35  1  0  0  0
 15 16  1  0  0  0
 15 18  1  0  0  0
 16 17  2  0  0  0
 16 36  1  0  0  0
 17 37  1  0  0  0
 18 19  1  0  0  0
 19 38  1  0  0  0
 19 39  1  0  0  0
 19 40  1  0  0  0
 21 22  1  0  0  0
 21 41  1  0  0  0
 21 42  1  0  0  0
 22 23  1  0  0  0
 22 43  1  0  0  0
 22 44  1  0  0  0
 23 24  1  0  0  0
 23 45  1  0  0  0
 24 25  1  0  0  0
 24 26  2  0  0  0
 25 27  1  0  0  0
 25 28  1  0  0  0
 25 46  1  0  0  0
 27 47  1  0  0  0
 27 48  1  0  0  0
 27 49  1  0  0  0
 28 50  1  0  0  0
 28 51  1  0  0  0
 28 52  1  0  0  0
M  END
> <s_m_entry_id>
33091

> <s_m_entry_name>
dock_pv.492

> <s_m_Source_Path>
/home/csk/Desktop/cluster/DUD-E-result/cdk2

> <s_m_Source_File>
dock_pv.maegz

> <i_m_Source_File_Index>
492

> <chembl_id>
CHEMBL2011929

> <chembl_pref_name>
None

> <i_lp_mmshare_version>
53161

> <i_f3d_flags>
0

> <r_lp_tautomer_probability>
1

> <s_lp_Force_Field>
OPLS_2005

> <r_lp_Energy>
20.900266

> <b_lp_Chiralities_Consistent>
1

> <s_lp_Variant>
CHEMBL301_lig1085-1

> <s_i_glide_gridfile>
glide-grid_1h00

> <i_i_glide_lignum>
1488

> <i_i_glide_rotatable_bonds>
9

> <r_i_docking_score>
-7.04425157726383

> <r_i_glide_ligand_efficiency>
-0.251580413473708

> <r_i_glide_ligand_efficiency_sa>
-0.763946308245639

> <r_i_glide_ligand_efficiency_ln>
-1.62602009224605

> <r_i_glide_gscore>
-7.04425157726383

> <r_i_glide_lipo>
-2.4580408185487

> <r_i_glide_hbond>
-0.45547061659748

> <r_i_glide_metal>
0

> <r_i_glide_rewards>
-1.97828594649725

> <r_i_glide_evdw>
-40.6267356872559

> <r_i_glide_ecoul>
-5.36972045898438

> <r_i_glide_erotb>
0.703288954317615

> <r_i_glide_esite>
-0.0189482967275625

> <r_i_glide_emodel>
-64.2143269838137

> <r_i_glide_energy>
-45.9964561462402

> <r_i_glide_einternal>
4.43228578567505

> <i_i_glide_confnum>
7

> <i_i_glide_posenum>
227

> <r_i_glide_eff_state_penalty>
0

> <s_user_duplicate_titles>
CHEMBL301_lig1085

> <s_m_subgroup_title>
dock_pv

> <s_m_subgroupid>
dock_pv

> <b_m_subgroup_collapsed>
1

$$$$
CHEMBL301_lig864
                    3D
 Schrodinger Suite 2021-1.
 57 61  0  0  1  0            999 V2000
   -1.3541   26.3289   13.6929 C   0  0  0  0  0  0
   -0.9274   26.1188   14.8255 O   0  0  0  0  0  0
   -2.6459   26.2522   13.3801 N   0  0  0  0  0  0
    4.6930   27.6324    8.0974 C   0  0  0  0  0  0
    5.5688   26.5971    7.7754 C   0  0  0  0  0  0
    5.8896   26.3046    6.4440 C   0  0  0  0  0  0
    5.2635   27.0528    5.4360 C   0  0  0  0  0  0
    4.4043   28.0979    5.7512 C   0  0  0  0  0  0
    4.1134   28.3862    7.0811 C   0  0  0  0  0  0
    3.2479   29.4560    7.3340 N   0  0  0  0  0  0
    2.1365   29.5675    8.1763 C   0  0  0  0  0  0
    1.9461   28.6359    9.1415 N   0  0  0  0  0  0
    0.1065   30.6016    8.5890 C   0  0  0  0  0  0
    1.2583   30.5604    7.8691 N   0  0  0  0  0  0
   -0.2025   29.6760    9.5931 C   0  0  0  0  0  0
    0.7768   28.6934    9.8260 C   0  0  0  0  0  0
   -1.3841   29.0984   11.8257 C   0  0  0  0  0  0
   -1.5222   29.6635   10.3777 C   0  0  0  0  0  0
   -0.5325   27.8293   11.8149 C   0  0  0  0  0  0
    0.4675   27.6777   10.8674 C   0  0  0  0  0  0
    1.0375   26.4560   11.1379 N   0  0  0  0  0  0
    0.4586   25.8389   12.1776 N   0  0  0  0  0  0
   -0.4979   26.6442   12.5876 C   0  0  0  0  0  0
    2.1629   25.8214   10.4717 C   0  0  0  0  0  0
    6.8078   25.2885    6.1582 N   0  0  0  0  0  0
    7.0771   24.8246    4.7816 C   0  0  0  0  0  0
    8.2178   25.6241    4.0998 C   0  0  0  0  0  0
    9.4590   25.4751    4.8649 N   0  0  0  0  0  0
    9.2290   25.9896    6.2166 C   0  0  0  0  0  0
    8.0824   25.2022    6.9004 C   0  0  0  0  0  0
   10.5435   26.2158    4.2218 C   0  0  0  0  0  0
   -2.9542   26.4354   12.4372 H   0  0  0  0  0  0
   -3.3215   26.0898   14.1109 H   0  0  0  0  0  0
    4.4772   27.8452    9.1355 H   0  0  0  0  0  0
    6.0035   26.0225    8.5755 H   0  0  0  0  0  0
    5.4764   26.8737    4.3933 H   0  0  0  0  0  0
    3.9681   28.6829    4.9555 H   0  0  0  0  0  0
    3.3663   30.2330    6.6979 H   0  0  0  0  0  0
   -0.5873   31.3926    8.3338 H   0  0  0  0  0  0
   -2.3723   28.9038   12.2341 H   0  0  0  0  0  0
   -0.9388   29.8504   12.4793 H   0  0  0  0  0  0
   -1.9520   30.6665   10.4140 H   0  0  0  0  0  0
   -2.2359   29.0509    9.8268 H   0  0  0  0  0  0
    3.0644   26.3992   10.6783 H   0  0  0  0  0  0
    2.3022   24.7984   10.8237 H   0  0  0  0  0  0
    1.9841   25.8032    9.3964 H   0  0  0  0  0  0
    7.3594   23.7717    4.8241 H   0  0  0  0  0  0
    6.1726   24.8443    4.1734 H   0  0  0  0  0  0
    8.3654   25.2471    3.0861 H   0  0  0  0  0  0
    7.9414   26.6780    4.0087 H   0  0  0  0  0  0
    8.9916   27.0519    6.1847 H   0  0  0  0  0  0
   10.1422   25.8889    6.8053 H   0  0  0  0  0  0
    7.9817   25.5546    7.9269 H   0  0  0  0  0  0
    8.3684   24.1526    6.9754 H   0  0  0  0  0  0
   11.4753   26.0973    4.7790 H   0  0  0  0  0  0
   10.7179   25.8441    3.2086 H   0  0  0  0  0  0
   10.3239   27.2840    4.1566 H   0  0  0  0  0  0
  1  3  1  0  0  0
  1  2  2  0  0  0
  1 23  1  0  0  0
  3 32  1  0  0  0
  3 33  1  0  0  0
  4  5  2  0  0  0
  4  9  1  0  0  0
  4 34  1  0  0  0
  5  6  1  0  0  0
  5 35  1  0  0  0
  6  7  2  0  0  0
  6 25  1  0  0  0
  7  8  1  0  0  0
  7 36  1  0  0  0
  8  9  2  0  0  0
  8 37  1  0  0  0
  9 10  1  0  0  0
 10 11  1  0  0  0
 10 38  1  0  0  0
 11 12  2  0  0  0
 11 14  1  0  0  0
 12 16  1  0  0  0
 13 15  1  0  0  0
 13 14  2  0  0  0
 13 39  1  0  0  0
 15 18  1  0  0  0
 15 16  2  0  0  0
 16 20  1  0  0  0
 17 19  1  0  0  0
 17 18  1  0  0  0
 17 40  1  0  0  0
 17 41  1  0  0  0
 18 42  1  0  0  0
 18 43  1  0  0  0
 19 20  2  0  0  0
 19 23  1  0  0  0
 20 21  1  0  0  0
 21 22  1  0  0  0
 21 24  1  0  0  0
 22 23  2  0  0  0
 24 44  1  0  0  0
 24 45  1  0  0  0
 24 46  1  0  0  0
 25 26  1  0  0  0
 25 30  1  0  0  0
 26 27  1  0  0  0
 26 47  1  0  0  0
 26 48  1  0  0  0
 27 28  1  0  0  0
 27 49  1  0  0  0
 27 50  1  0  0  0
 28 29  1  0  0  0
 28 31  1  0  0  0
 29 30  1  0  0  0
 29 51  1  0  0  0
 29 52  1  0  0  0
 30 53  1  0  0  0
 30 54  1  0  0  0
 31 55  1  0  0  0
 31 56  1  0  0  0
 31 57  1  0  0  0
M  END
> <s_m_entry_id>
33092

> <s_m_entry_name>
dock_pv.493

> <s_m_Source_Path>
/home/csk/Desktop/cluster/DUD-E-result/cdk2

> <s_m_Source_File>
dock_pv.maegz

> <i_m_Source_File_Index>
493

> <chembl_id>
CHEMBL560817

> <chembl_pref_name>
None

> <i_lp_mmshare_version>
53161

> <i_f3d_flags>
0

> <r_lp_tautomer_probability>
0.999999987636

> <s_lp_Force_Field>
OPLS_2005

> <r_lp_Energy>
38.074569

> <b_lp_Chiralities_Consistent>
1

> <s_lp_Variant>
CHEMBL301_lig864-1

> <s_i_glide_gridfile>
glide-grid_1h00

> <i_i_glide_lignum>
1223

> <i_i_glide_rotatable_bonds>
4

> <r_i_docking_score>
-7.04184617593822

> <r_i_glide_ligand_efficiency>
-0.227156328256072

> <r_i_glide_ligand_efficiency_sa>
-0.713584493835078

> <r_i_glide_ligand_efficiency_ln>
-1.58815211934196

> <r_i_glide_gscore>
-7.04184617593822

> <r_i_glide_lipo>
-2.13331213312619

> <r_i_glide_hbond>
-0.269770585186976

> <r_i_glide_metal>
0

> <r_i_glide_rewards>
-1.73067762654284

> <r_i_glide_evdw>
-47.3388290405273

> <r_i_glide_ecoul>
-5.45813608169556

> <r_i_glide_erotb>
0.338729321992627

> <r_i_glide_esite>
-0.0611532887941406

> <r_i_glide_emodel>
-73.3266211922472

> <r_i_glide_energy>
-52.7969651222229

> <r_i_glide_einternal>
4.57117414474487

> <i_i_glide_confnum>
10

> <i_i_glide_posenum>
237

> <r_i_glide_eff_state_penalty>
0

> <s_user_duplicate_titles>
CHEMBL301_lig864,559781

> <s_m_subgroup_title>
dock_pv

> <s_m_subgroupid>
dock_pv

> <b_m_subgroup_collapsed>
1

$$$$
CHEMBL301_lig413
                    3D
 Schrodinger Suite 2021-1.
 50 53  0  0  1  0            999 V2000
   -0.1460   21.8521   10.9773 O   0  0  0  0  0  0
    0.6215   22.5998   11.9783 S   0  0  0  0  0  0
    2.0604   22.3833   12.1662 O   0  0  0  0  0  0
   -0.1536   22.3159   13.5111 N   0  0  0  0  0  0
    0.3691   24.3363   11.6248 C   0  0  0  0  0  0
    1.4486   25.1587   11.2959 C   0  0  0  0  0  0
    1.2302   26.4968   10.9766 C   0  0  0  0  0  0
   -0.0695   27.0159   10.9668 C   0  0  0  0  0  0
   -1.1362   26.1980   11.3444 C   0  0  0  0  0  0
   -0.9210   24.8619   11.6667 C   0  0  0  0  0  0
   -0.3871   28.3327   10.5988 N   0  0  0  0  0  0
    0.1709   29.2703    9.7142 C   0  0  0  0  0  0
   -0.4997   30.4417    9.4860 N   0  0  0  0  0  0
   -1.6268   30.9031   10.0789 N   0  0  0  0  0  0
   -1.7760   32.0773    9.4967 C   0  0  0  0  0  0
   -0.0673   31.3679    8.5379 C   0  0  0  0  0  0
   -0.8999   32.4364    8.5760 N   0  0  0  0  0  0
    1.0140   31.1548    7.7761 N   0  0  0  0  0  0
    1.7194   30.0185    8.0141 C   0  0  0  0  0  0
    1.3353   29.0731    8.9761 C   0  0  0  0  0  0
    2.8569   29.8536    7.2058 N   0  0  0  0  0  0
    3.6584   28.6402    7.1541 C   0  0  1  0  0  0
    4.1218   28.3105    5.7257 C   0  0  0  0  0  0
    4.7527   26.8970    5.6837 C   0  0  0  0  0  0
    5.8119   26.6522    6.7921 C   0  0  2  0  0  0
    6.2893   25.2860    6.8447 N   0  0  0  0  0  0
    5.4163   27.2182    8.1758 C   0  0  0  0  0  0
    4.8474   28.6523    8.1129 C   0  0  0  0  0  0
   -0.8566   21.5736   13.4689 H   0  0  0  0  0  0
    0.5116   22.1803   14.2729 H   0  0  0  0  0  0
    2.4580   24.7760   11.2898 H   0  0  0  0  0  0
    2.0929   27.1152   10.7936 H   0  0  0  0  0  0
   -2.1451   26.5850   11.3685 H   0  0  0  0  0  0
   -1.7578   24.2389   11.9403 H   0  0  0  0  0  0
   -1.2949   28.6429   10.9172 H   0  0  0  0  0  0
   -2.5957   32.7251    9.7728 H   0  0  0  0  0  0
    1.9112   28.1836    9.1113 H   0  0  0  0  0  0
    3.2040   30.6604    6.7024 H   0  0  0  0  0  0
    3.0143   27.8520    7.4938 H   0  0  0  0  0  0
    3.2849   28.3608    5.0278 H   0  0  0  0  0  0
    4.8494   29.0509    5.3871 H   0  0  0  0  0  0
    3.9375   26.1850    5.8152 H   0  0  0  0  0  0
    5.1890   26.7230    4.6988 H   0  0  0  0  0  0
    6.6581   27.2703    6.5047 H   0  0  0  0  0  0
    6.9912   25.2041    7.5651 H   0  0  0  0  0  0
    5.5306   24.6737    7.1062 H   0  0  0  0  0  0
    4.6435   26.5800    8.6075 H   0  0  0  0  0  0
    6.2673   27.1926    8.8559 H   0  0  0  0  0  0
    5.6096   29.3572    7.7758 H   0  0  0  0  0  0
    4.5402   28.9706    9.1060 H   0  0  0  0  0  0
  1  2  2  0  0  0
  2  3  2  0  0  0
  2  4  1  0  0  0
  2  5  1  0  0  0
  4 29  1  0  0  0
  4 30  1  0  0  0
  5  6  2  0  0  0
  5 10  1  0  0  0
  6  7  1  0  0  0
  6 31  1  0  0  0
  7  8  2  0  0  0
  7 32  1  0  0  0
  8  9  1  0  0  0
  8 11  1  0  0  0
  9 10  2  0  0  0
  9 33  1  0  0  0
 10 34  1  0  0  0
 11 12  1  0  0  0
 11 35  1  0  0  0
 12 13  1  0  0  0
 12 20  2  0  0  0
 13 14  1  0  0  0
 13 16  1  0  0  0
 14 15  2  0  0  0
 15 17  1  0  0  0
 15 36  1  0  0  0
 16 17  2  0  0  0
 16 18  1  0  0  0
 18 19  2  0  0  0
 19 20  1  0  0  0
 19 21  1  0  0  0
 20 37  1  0  0  0
 21 22  1  0  0  0
 21 38  1  0  0  0
 22 23  1  0  0  0
 22 28  1  0  0  0
 22 39  1  0  0  0
 23 24  1  0  0  0
 23 40  1  0  0  0
 23 41  1  0  0  0
 24 25  1  0  0  0
 24 42  1  0  0  0
 24 43  1  0  0  0
 25 26  1  0  0  0
 25 27  1  0  0  0
 25 44  1  0  0  0
 26 45  1  0  0  0
 26 46  1  0  0  0
 27 28  1  0  0  0
 27 47  1  0  0  0
 27 48  1  0  0  0
 28 49  1  0  0  0
 28 50  1  0  0  0
M  END
> <s_m_entry_id>
33094

> <s_m_entry_name>
dock_pv.495

> <s_m_Source_Path>
/home/csk/Desktop/cluster/DUD-E-result/cdk2

> <s_m_Source_File>
dock_pv.maegz

> <i_m_Source_File_Index>
495

> <chembl_id>
CHEMBL380331

> <chembl_pref_name>
None

> <i_lp_mmshare_version>
53161

> <i_f3d_flags>
0

> <r_lp_tautomer_probability>
1

> <s_lp_Force_Field>
OPLS_2005

> <r_lp_Energy>
27.274644

> <b_lp_Chiralities_Consistent>
1

> <s_lp_Variant>
CHEMBL301_lig413-1

> <s_i_glide_gridfile>
glide-grid_1h00

> <i_i_glide_lignum>
601

> <i_i_glide_rotatable_bonds>
5

> <r_i_docking_score>
-7.04074752507207

> <r_i_glide_ligand_efficiency>
-0.251455268752574

> <r_i_glide_ligand_efficiency_sa>
-0.763566295165977

> <r_i_glide_ligand_efficiency_ln>
-1.62521125411675

> <r_i_glide_gscore>
-7.04074752507207

> <r_i_glide_lipo>
-2.27256716198984

> <r_i_glide_hbond>
-0.294305334102534

> <r_i_glide_metal>
0

> <r_i_glide_rewards>
-1.84185465191264

> <r_i_glide_evdw>
-44.4820709228516

> <r_i_glide_ecoul>
-5.30901956558228

> <r_i_glide_erotb>
0.484588101843559

> <r_i_glide_esite>
-0.0961519979306983

> <r_i_glide_emodel>
-64.7367740474265

> <r_i_glide_energy>
-49.7910904884338

> <r_i_glide_einternal>
9.46949100494385

> <i_i_glide_confnum>
9

> <i_i_glide_posenum>
286

> <r_i_glide_eff_state_penalty>
0

> <s_user_duplicate_titles>
CHEMBL301_lig413,341648

> <s_m_subgroup_title>
dock_pv

> <s_m_subgroupid>
dock_pv

> <b_m_subgroup_collapsed>
1

$$$$
CHEMBL301_lig1016
                    3D
 Schrodinger Suite 2021-1.
 36 39  0  0  1  0            999 V2000
   -0.8777   29.9040   10.0046 C   0  0  0  0  0  0
   -1.5209   29.2532   11.0031 N   0  0  0  0  0  0
   -1.0072   28.0969   11.5009 C   0  0  0  0  0  0
    0.3223   29.4527    9.4808 C   0  0  0  0  0  0
    0.8869   28.3253   10.0171 N   0  0  0  0  0  0
    0.2347   27.5860   11.0291 C   0  0  0  0  0  0
    0.9775   26.4996   11.3713 N   0  0  0  0  0  0
    2.0569   26.5818   10.6275 C   0  0  0  0  0  0
    2.0851   27.6820    9.7759 C   0  0  0  0  0  0
    3.1258   28.0689    8.8185 C   0  0  0  0  0  0
    4.1298   27.2261    8.3111 C   0  0  0  0  0  0
    4.9316   27.8085    7.4506 N   0  0  0  0  0  0
    4.4629   29.0520    7.3759 N   0  0  0  0  0  0
    3.3783   29.2727    8.1760 C   0  0  0  0  0  0
   -1.7631   27.5426   12.5512 N   0  0  0  0  0  0
   -1.7315   26.2752   13.0833 C   0  0  0  0  0  0
   -2.2839   26.0017   14.6999 S   0  0  0  0  0  0
   -1.9709   24.3223   14.6453 N   0  0  0  0  0  0
   -1.5220   24.0177   13.4455 C   0  0  0  0  0  0
   -1.3907   25.0572   12.5202 C   0  0  0  0  0  0
   -1.5554   31.4073    9.3717 S   0  0  0  0  0  0
   -2.7924   31.9726   10.5636 C   0  0  0  0  0  0
   -1.2135   22.5556   13.2195 C   0  0  0  0  0  0
    0.8471   29.9607    8.6917 H   0  0  0  0  0  0
    2.8430   25.8459   10.7130 H   0  0  0  0  0  0
    4.2673   26.1883    8.5758 H   0  0  0  0  0  0
    4.8729   29.7503    6.7660 H   0  0  0  0  0  0
    2.9160   30.2463    8.2003 H   0  0  0  0  0  0
   -2.4509   28.1984   12.9095 H   0  0  0  0  0  0
   -1.0608   24.9241   11.5017 H   0  0  0  0  0  0
   -3.1415   32.9724   10.3080 H   0  0  0  0  0  0
   -3.6461   31.2951   10.5761 H   0  0  0  0  0  0
   -2.3443   32.0036   11.5550 H   0  0  0  0  0  0
   -0.8655   22.3655   12.2040 H   0  0  0  0  0  0
   -2.0878   21.9232   13.3777 H   0  0  0  0  0  0
   -0.4329   22.1979   13.8915 H   0  0  0  0  0  0
  1  2  1  0  0  0
  1 21  1  0  0  0
  1  4  2  0  0  0
  2  3  2  0  0  0
  3  6  1  0  0  0
  3 15  1  0  0  0
  4  5  1  0  0  0
  4 24  1  0  0  0
  5  9  1  0  0  0
  5  6  1  0  0  0
  6  7  2  0  0  0
  7  8  1  0  0  0
  8  9  2  0  0  0
  8 25  1  0  0  0
  9 10  1  0  0  0
 10 14  2  0  0  0
 10 11  1  0  0  0
 11 12  2  0  0  0
 11 26  1  0  0  0
 12 13  1  0  0  0
 13 14  1  0  0  0
 13 27  1  0  0  0
 14 28  1  0  0  0
 15 16  1  0  0  0
 15 29  1  0  0  0
 16 17  1  0  0  0
 16 20  2  0  0  0
 17 18  1  0  0  0
 18 19  2  0  0  0
 19 20  1  0  0  0
 19 23  1  0  0  0
 20 30  1  0  0  0
 21 22  1  0  0  0
 22 31  1  0  0  0
 22 32  1  0  0  0
 22 33  1  0  0  0
 23 34  1  0  0  0
 23 35  1  0  0  0
 23 36  1  0  0  0
M  END
> <s_m_entry_id>
33095

> <s_m_entry_name>
dock_pv.496

> <s_m_Source_Path>
/home/csk/Desktop/cluster/DUD-E-result/cdk2

> <s_m_Source_File>
dock_pv.maegz

> <i_m_Source_File_Index>
496

> <chembl_id>
CHEMBL1270795

> <chembl_pref_name>
None

> <i_lp_mmshare_version>
53161

> <i_f3d_flags>
0

> <r_lp_tautomer_probability>
0.5

> <s_lp_Force_Field>
OPLS_2005

> <r_lp_Energy>
10.435097

> <b_lp_Chiralities_Consistent>
1

> <s_lp_Variant>
CHEMBL301_lig1016-1

> <s_i_glide_gridfile>
glide-grid_1h00

> <i_i_glide_lignum>
1415

> <i_i_glide_rotatable_bonds>
4

> <r_i_docking_score>
-7.03993966732241

> <r_i_glide_ligand_efficiency>
-0.306084333361844

> <r_i_glide_ligand_efficiency_sa>
-0.87046312778785

> <r_i_glide_ligand_efficiency_ln>
-1.70232124620218

> <r_i_glide_gscore>
-7.03993966732241

> <r_i_glide_lipo>
-1.84855009389659

> <r_i_glide_hbond>
-0.382805887633076

> <r_i_glide_metal>
0

> <r_i_glide_rewards>
-2.4342814975161

> <r_i_glide_evdw>
-42.1928787231445

> <r_i_glide_ecoul>
-4.85767602920532

> <r_i_glide_erotb>
0.48263601790662

> <r_i_glide_esite>
-0.0186428656452405

> <r_i_glide_emodel>
-63.9007513860266

> <r_i_glide_energy>
-47.0505547523499

> <r_i_glide_einternal>
7.34393310546875

> <i_i_glide_confnum>
4

> <i_i_glide_posenum>
387

> <r_i_glide_eff_state_penalty>
0

> <s_user_duplicate_titles>
CHEMBL301_lig1016

> <s_m_subgroup_title>
dock_pv

> <s_m_subgroupid>
dock_pv

> <b_m_subgroup_collapsed>
1

$$$$
CHEMBL301_lig11
                    3D
 Schrodinger Suite 2021-1.
 68 70  0  0  1  0            999 V2000
    4.1342   25.6801    7.8029 N   0  0  0  0  0  0
    3.6608   26.4342    8.8092 C   0  0  0  0  0  0
    3.5266   27.7616    8.8793 N   0  0  0  0  0  0
    3.8954   28.4863    7.7926 C   0  0  0  0  0  0
    4.4594   26.4317    6.7209 C   0  0  0  0  0  0
    4.3887   27.8114    6.6504 C   0  0  0  0  0  0
    4.7329   28.2553    5.4299 N   0  0  0  0  0  0
    4.9412   27.1642    4.7379 C   0  0  0  0  0  0
    4.7450   26.0319    5.4416 N   0  0  0  0  0  0
    3.6576   29.8510    7.8388 N   0  0  0  0  0  0
    4.7367   24.6220    4.8825 C   0  0  2  0  0  0
    3.9421   23.7511    5.6336 O   0  0  0  0  0  0
    4.4960   22.4413    5.7037 C   0  0  1  0  0  0
    5.6006   22.4790    4.6351 C   0  0  2  0  0  0
    6.0758   23.9388    4.6545 C   0  0  1  0  0  0
    5.1330   22.0423    3.3658 O   0  0  0  0  0  0
    6.6665   24.4216    3.4580 O   0  0  0  0  0  0
    5.0208   22.1627    7.1322 C   0  0  0  0  0  0
    4.1310   22.6075    8.1505 O   0  0  0  0  0  0
    3.2534   21.5475    9.0147 P   0  0  1  0  0  0
    2.8396   22.3705   10.3526 O   0  0  0  0  0  0
    1.8834   21.4516    8.1811 O   0  0  0  0  0  0
    3.9251   20.2510    9.2951 O   0  0  0  0  0  0
    1.8261   23.5570   11.0795 P   0  0  1  0  0  0
    1.1102   22.7596   12.3903 O   0  0  0  0  0  0
    2.8582   24.6529   11.8754 O   0  0  0  0  0  0
    0.8451   24.2516   10.1735 O   0  0  0  0  0  0
   -0.3358   22.5730   13.0723 P   0  0  1  0  0  0
   -0.6082   24.1064   13.7342 N   0  0  2  0  0  0
   -1.3798   22.0198   12.1751 O   0  0  0  0  0  0
   -0.0127   21.6519   14.3611 O   0  0  0  0  0  0
   -1.9193   24.7408   13.7891 C   0  0  0  0  0  0
   -1.8496   26.2731   13.6755 C   0  0  0  0  0  0
   -1.4208   26.7812   12.2824 C   0  0  0  0  0  0
   -1.3867   28.3181   12.2079 C   0  0  0  0  0  0
   -1.1501   28.8681   10.7900 C   0  0  0  0  0  0
   -1.1235   30.4104   10.7681 C   0  0  0  0  0  0
   -1.2566   30.9212    9.4221 N   0  0  0  0  0  0
   -2.4158   31.0518    9.0203 N   0  3  0  0  0  0
   -3.4654   31.0524    8.5808 N   0  5  0  0  0  0
    3.3307   25.8881    9.6776 H   0  0  0  0  0  0
    5.1976   27.1210    3.6890 H   0  0  0  0  0  0
    4.0489   30.4424    7.1040 H   0  0  0  0  0  0
    3.3031   30.2393    8.6980 H   0  0  0  0  0  0
    4.2263   24.7177    3.9190 H   0  0  0  0  0  0
    3.7165   21.7153    5.4621 H   0  0  0  0  0  0
    6.4232   21.8197    4.9142 H   0  0  0  0  0  0
    6.7124   24.1350    5.5200 H   0  0  0  0  0  0
    4.9953   22.8118    2.8017 H   0  0  0  0  0  0
    7.5510   24.0557    3.3664 H   0  0  0  0  0  0
    5.9760   22.6601    7.2786 H   0  0  0  0  0  0
    5.2436   21.0974    7.2284 H   0  0  0  0  0  0
    1.6545   22.3284    7.7673 H   0  0  0  0  0  0
    3.2478   25.4412   11.4473 H   0  0  0  0  0  0
    0.1861   24.7421   13.8060 H   0  0  0  0  0  0
   -0.5805   20.8582   14.4221 H   0  0  0  0  0  0
   -2.3933   24.4610   14.7300 H   0  0  0  0  0  0
   -2.5466   24.3393   12.9911 H   0  0  0  0  0  0
   -1.1774   26.6686   14.4392 H   0  0  0  0  0  0
   -2.8341   26.6849   13.9075 H   0  0  0  0  0  0
   -2.1165   26.3955   11.5344 H   0  0  0  0  0  0
   -0.4387   26.3828   12.0200 H   0  0  0  0  0  0
   -0.6189   28.6966   12.8840 H   0  0  0  0  0  0
   -2.3351   28.7123   12.5751 H   0  0  0  0  0  0
   -1.9412   28.4967   10.1408 H   0  0  0  0  0  0
   -0.2141   28.4790   10.3832 H   0  0  0  0  0  0
   -0.1750   30.7517   11.1838 H   0  0  0  0  0  0
   -1.9054   30.8209   11.4147 H   0  0  0  0  0  0
  1  2  2  0  0  0
  1  5  1  0  0  0
  2  3  1  0  0  0
  2 41  1  0  0  0
  3  4  2  0  0  0
  4  6  1  0  0  0
  4 10  1  0  0  0
  5  9  1  0  0  0
  5  6  2  0  0  0
  6  7  1  0  0  0
  7  8  2  0  0  0
  8  9  1  0  0  0
  8 42  1  0  0  0
  9 11  1  0  0  0
 10 43  1  0  0  0
 10 44  1  0  0  0
 11 12  1  0  0  0
 11 15  1  0  0  0
 11 45  1  0  0  0
 12 13  1  0  0  0
 13 14  1  0  0  0
 13 18  1  0  0  0
 13 46  1  0  0  0
 14 15  1  0  0  0
 14 16  1  0  0  0
 14 47  1  0  0  0
 15 17  1  0  0  0
 15 48  1  0  0  0
 16 49  1  0  0  0
 17 50  1  0  0  0
 18 19  1  0  0  0
 18 51  1  0  0  0
 18 52  1  0  0  0
 19 20  1  0  0  0
 20 21  1  0  0  0
 20 22  1  0  0  0
 20 23  2  0  0  0
 21 24  1  0  0  0
 22 53  1  0  0  0
 24 25  1  0  0  0
 24 26  1  0  0  0
 24 27  2  0  0  0
 25 28  1  0  0  0
 26 54  1  0  0  0
 28 29  1  0  0  0
 28 30  2  0  0  0
 28 31  1  0  0  0
 29 32  1  0  0  0
 29 55  1  0  0  0
 31 56  1  0  0  0
 32 33  1  0  0  0
 32 57  1  0  0  0
 32 58  1  0  0  0
 33 34  1  0  0  0
 33 59  1  0  0  0
 33 60  1  0  0  0
 34 35  1  0  0  0
 34 61  1  0  0  0
 34 62  1  0  0  0
 35 36  1  0  0  0
 35 63  1  0  0  0
 35 64  1  0  0  0
 36 37  1  0  0  0
 36 65  1  0  0  0
 36 66  1  0  0  0
 37 38  1  0  0  0
 37 67  1  0  0  0
 37 68  1  0  0  0
 38 39  2  0  0  0
 39 40  2  0  0  0
M  CHG  2  39   1  40  -1
M  END
> <s_m_entry_id>
33096

> <s_m_entry_name>
dock_pv.497

> <s_m_Source_Path>
/home/csk/Desktop/cluster/DUD-E-result/cdk2

> <s_m_Source_File>
dock_pv.maegz

> <i_m_Source_File_Index>
497

> <chembl_id>
CHEMBL550942

> <chembl_pref_name>
None

> <i_lp_mmshare_version>
53161

> <i_f3d_flags>
0

> <r_lp_tautomer_probability>
0.999997216410988

> <s_lp_Force_Field>
OPLS_2005

> <r_lp_Energy>
27.101264

> <b_lp_Chiralities_Consistent>
1

> <s_lp_Variant>
CHEMBL301_lig11-4

> <s_i_glide_gridfile>
glide-grid_1h00

> <i_i_glide_lignum>
43

> <i_i_glide_rotatable_bonds>
21

> <r_i_docking_score>
-7.03864312841878

> <r_i_glide_ligand_efficiency>
-0.17596607821047

> <r_i_glide_ligand_efficiency_sa>
-0.601795521601883

> <r_i_glide_ligand_efficiency_ln>
-1.5011354412712

> <r_i_glide_gscore>
-7.03864312841878

> <r_i_glide_lipo>
-0.914641067961879

> <r_i_glide_hbond>
-0.700843960468731

> <r_i_glide_metal>
0

> <r_i_glide_rewards>
-0.566322854704891

> <r_i_glide_evdw>
-42.5559921264648

> <r_i_glide_ecoul>
-22.1045970916748

> <r_i_glide_erotb>
0.709520437685188

> <r_i_glide_esite>
-0.122866512894005

> <r_i_glide_emodel>
-83.8942835519883

> <r_i_glide_energy>
-64.6605892181396

> <r_i_glide_einternal>
16.625545501709

> <i_i_glide_confnum>
11

> <i_i_glide_posenum>
1

> <r_i_glide_eff_state_penalty>
0

> <s_user_duplicate_titles>
CHEMBL301_lig11

> <s_m_subgroup_title>
dock_pv

> <s_m_subgroupid>
dock_pv

> <b_m_subgroup_collapsed>
1

$$$$
CHEMBL301_lig596
                    3D
 Schrodinger Suite 2021-1.
 58 61  0  0  1  0            999 V2000
   -0.5680   27.8331   11.2166 C   0  0  0  0  0  0
   -1.6499   28.6845   11.4554 C   0  0  0  0  0  0
   -1.7663   29.8853   10.7640 C   0  0  0  0  0  0
    0.3944   28.1948   10.2644 C   0  0  0  0  0  0
    0.2991   29.4021    9.5487 C   0  0  0  0  0  0
   -0.8030   30.2397    9.8162 C   0  0  0  0  0  0
   -0.9683   31.5539    9.0885 C   0  0  0  0  0  0
   -0.0051   31.7914    8.1761 N   0  0  0  0  0  0
    1.0484   31.0517    7.7757 C   0  0  0  0  0  0
    1.3199   29.8162    8.5252 C   0  0  0  0  0  0
    1.7080   31.4987    6.8369 O   0  0  0  0  0  0
   -1.8712   32.3692    9.2632 O   0  0  0  0  0  0
    2.4581   29.1117    8.2651 C   0  0  0  0  0  0
    3.4803   29.3786    7.3785 N   0  0  0  0  0  0
    4.7049   28.6125    7.1933 C   0  0  0  0  0  0
    4.5491   27.1775    6.7194 C   0  0  0  0  0  0
    4.5727   26.0932    7.5349 C   0  0  0  0  0  0
    4.4441   24.7048    7.0321 C   0  0  0  0  0  0
    4.2691   24.6360    5.5534 C   0  0  0  0  0  0
    4.2974   25.7629    4.7891 C   0  0  0  0  0  0
    4.4572   27.0165    5.3495 N   0  0  0  0  0  0
    4.4577   23.7243    7.7757 O   0  0  0  0  0  0
    4.0892   23.3572    5.1045 O   0  0  0  0  0  0
    3.8636   23.1019    3.7177 C   0  0  0  0  0  0
    5.1978   22.8887    2.9781 C   0  0  0  0  0  0
    6.0645   21.7739    3.5837 C   0  0  0  0  0  0
   -0.4394   26.5165   11.9822 C   0  0  0  0  0  0
   -0.4650   26.6367   13.5159 C   0  0  0  0  0  0
   -0.8346   25.2382   14.0046 C   0  0  0  0  0  0
   -1.8583   24.7541   12.9754 C   0  0  0  0  0  0
   -1.4885   25.4344   11.6424 C   0  0  0  0  0  0
   -2.4077   28.4245   12.1799 H   0  0  0  0  0  0
   -2.6115   30.5296   10.9744 H   0  0  0  0  0  0
    1.2138   27.5147   10.0949 H   0  0  0  0  0  0
   -0.1190   32.6555    7.6702 H   0  0  0  0  0  0
    2.6693   28.1922    8.7887 H   0  0  0  0  0  0
    3.4877   30.2771    6.8998 H   0  0  0  0  0  0
    5.2454   28.6146    8.1419 H   0  0  0  0  0  0
    5.3396   29.1525    6.4937 H   0  0  0  0  0  0
    4.6825   26.2508    8.5959 H   0  0  0  0  0  0
    4.1893   25.7626    3.7138 H   0  0  0  0  0  0
    4.5145   27.8321    4.7553 H   0  0  0  0  0  0
    3.2543   23.8677    3.2362 H   0  0  0  0  0  0
    3.2642   22.1927    3.6541 H   0  0  0  0  0  0
    5.7557   23.8246    2.9652 H   0  0  0  0  0  0
    4.9930   22.6514    1.9338 H   0  0  0  0  0  0
    6.9890   21.6515    3.0184 H   0  0  0  0  0  0
    5.5427   20.8174    3.5756 H   0  0  0  0  0  0
    6.3346   22.0016    4.6156 H   0  0  0  0  0  0
    0.5468   26.0965   11.7676 H   0  0  0  0  0  0
    0.4580   27.0427   13.9266 H   0  0  0  0  0  0
   -1.2420   27.3366   13.8296 H   0  0  0  0  0  0
    0.0456   24.5944   13.9951 H   0  0  0  0  0  0
   -1.2342   25.2464   15.0175 H   0  0  0  0  0  0
   -1.8685   23.6671   12.8947 H   0  0  0  0  0  0
   -2.8611   25.0604   13.2806 H   0  0  0  0  0  0
   -2.4020   25.8663   11.2304 H   0  0  0  0  0  0
   -1.0864   24.6966   10.9453 H   0  0  0  0  0  0
  1  4  1  0  0  0
  1  2  2  0  0  0
  1 27  1  0  0  0
  2  3  1  0  0  0
  2 32  1  0  0  0
  3  6  2  0  0  0
  3 33  1  0  0  0
  4  5  2  0  0  0
  4 34  1  0  0  0
  5 10  1  0  0  0
  5  6  1  0  0  0
  6  7  1  0  0  0
  7  8  1  0  0  0
  7 12  2  0  0  0
  8  9  1  0  0  0
  8 35  1  0  0  0
  9 10  1  0  0  0
  9 11  2  0  0  0
 10 13  2  0  0  0
 13 14  1  0  0  0
 13 36  1  0  0  0
 14 15  1  0  0  0
 14 37  1  0  0  0
 15 38  1  0  0  0
 15 39  1  0  0  0
 15 16  1  0  0  0
 16 17  2  0  0  0
 16 21  1  0  0  0
 17 40  1  0  0  0
 17 18  1  0  0  0
 18 19  1  0  0  0
 18 22  2  0  0  0
 19 20  2  0  0  0
 19 23  1  0  0  0
 20 21  1  0  0  0
 20 41  1  0  0  0
 21 42  1  0  0  0
 23 24  1  0  0  0
 24 25  1  0  0  0
 24 43  1  0  0  0
 24 44  1  0  0  0
 25 26  1  0  0  0
 25 45  1  0  0  0
 25 46  1  0  0  0
 26 47  1  0  0  0
 26 48  1  0  0  0
 26 49  1  0  0  0
 27 28  1  0  0  0
 27 31  1  0  0  0
 27 50  1  0  0  0
 28 29  1  0  0  0
 28 51  1  0  0  0
 28 52  1  0  0  0
 29 30  1  0  0  0
 29 53  1  0  0  0
 29 54  1  0  0  0
 30 31  1  0  0  0
 30 55  1  0  0  0
 30 56  1  0  0  0
 31 57  1  0  0  0
 31 58  1  0  0  0
M  END
> <s_m_entry_id>
33097

> <s_m_entry_name>
dock_pv.498

> <s_m_Source_Path>
/home/csk/Desktop/cluster/DUD-E-result/cdk2

> <s_m_Source_File>
dock_pv.maegz

> <i_m_Source_File_Index>
498

> <chembl_id>
CHEMBL477259

> <chembl_pref_name>
None

> <i_lp_mmshare_version>
53161

> <i_f3d_flags>
0

> <r_lp_tautomer_probability>
0.48612755077883

> <s_lp_Force_Field>
OPLS_2005

> <r_lp_Energy>
40.174711

> <b_lp_Chiralities_Consistent>
1

> <s_lp_Variant>
CHEMBL301_lig596-1

> <s_i_glide_gridfile>
glide-grid_1h00

> <i_i_glide_lignum>
833

> <i_i_glide_rotatable_bonds>
7

> <r_i_docking_score>
-7.03863434912292

> <r_i_glide_ligand_efficiency>
-0.227052720939449

> <r_i_glide_ligand_efficiency_sa>
-0.713259023815566

> <r_i_glide_ligand_efficiency_ln>
-1.58742775396444

> <r_i_glide_gscore>
-7.03863434912292

> <r_i_glide_lipo>
-2.67809649253634

> <r_i_glide_hbond>
-0.334229900576582

> <r_i_glide_metal>
0

> <r_i_glide_rewards>
-1.53297601321693

> <r_i_glide_evdw>
-44.8178520202637

> <r_i_glide_ecoul>
-6.14149188995361

> <r_i_glide_erotb>
0.668784441713158

> <r_i_glide_esite>
0

> <r_i_glide_emodel>
-70.2184258102579

> <r_i_glide_energy>
-50.9593439102173

> <r_i_glide_einternal>
4.52739524841309

> <i_i_glide_confnum>
9

> <i_i_glide_posenum>
61

> <r_i_glide_eff_state_penalty>
0

> <s_user_duplicate_titles>
CHEMBL301_lig596

> <s_m_subgroup_title>
dock_pv

> <s_m_subgroupid>
dock_pv

> <b_m_subgroup_collapsed>
1

$$$$
CHEMBL301_lig868
                    3D
 Schrodinger Suite 2021-1.
 46 49  0  0  1  0            999 V2000
   -0.7420   25.6084   13.3316 C   0  0  0  0  0  0
   -0.3455   25.6734   14.4928 O   0  0  0  0  0  0
   -1.9423   25.1356   13.0035 N   0  0  0  0  0  0
    4.8576   27.5189    5.6066 C   0  0  0  0  0  0
    5.6162   26.3901    5.3033 C   0  0  0  0  0  0
    6.2347   25.6786    6.3300 C   0  0  0  0  0  0
    6.0996   26.0846    7.6560 C   0  0  0  0  0  0
    5.3390   27.2111    7.9555 C   0  0  0  0  0  0
    4.7111   27.9251    6.9338 C   0  0  0  0  0  0
    3.9257   29.0520    7.2090 N   0  0  0  0  0  0
    2.8366   29.1787    8.0796 C   0  0  0  0  0  0
    2.6007   28.1881    8.9759 N   0  0  0  0  0  0
    0.8414   30.2504    8.5578 C   0  0  0  0  0  0
    2.0098   30.2341    7.8572 N   0  0  0  0  0  0
    0.4687   29.2324    9.4460 C   0  0  0  0  0  0
    1.4199   28.2209    9.6410 C   0  0  0  0  0  0
   -0.8710   28.4778   11.5486 C   0  0  0  0  0  0
   -0.9036   29.1270   10.1190 C   0  0  0  0  0  0
   -0.0051   27.1999   11.4779 C   0  0  0  0  0  0
    1.0512   27.1247   10.5751 C   0  0  0  0  0  0
    1.5897   25.8727   10.7449 N   0  0  0  0  0  0
    0.9895   25.1840   11.7195 N   0  0  0  0  0  0
    0.0721   25.9875   12.2149 C   0  0  0  0  0  0
    2.6021   25.2081    9.9398 C   0  0  0  0  0  0
   -2.3255   28.1352   11.9279 C   0  0  0  0  0  0
   -0.2282   29.4520   12.5469 C   0  0  0  0  0  0
   -2.2476   25.1340   12.0416 H   0  0  0  0  0  0
   -2.5689   24.8344   13.7317 H   0  0  0  0  0  0
    4.3784   28.0699    4.8109 H   0  0  0  0  0  0
    5.7299   26.0713    4.2771 H   0  0  0  0  0  0
    6.8268   24.8067    6.0927 H   0  0  0  0  0  0
    6.5790   25.5342    8.4522 H   0  0  0  0  0  0
    5.2394   27.5264    8.9830 H   0  0  0  0  0  0
    4.0553   29.8356    6.5799 H   0  0  0  0  0  0
    0.1721   31.0722    8.3475 H   0  0  0  0  0  0
   -1.3828   30.1071   10.1547 H   0  0  0  0  0  0
   -1.5294   28.5148    9.4676 H   0  0  0  0  0  0
    3.4431   25.8777    9.7762 H   0  0  0  0  0  0
    2.9619   24.3078   10.4361 H   0  0  0  0  0  0
    2.1688   24.9415    8.9760 H   0  0  0  0  0  0
   -2.9949   28.9830   11.7758 H   0  0  0  0  0  0
   -2.7191   27.2989   11.3543 H   0  0  0  0  0  0
   -2.3903   27.8525   12.9763 H   0  0  0  0  0  0
   -0.9162   30.2520   12.8141 H   0  0  0  0  0  0
    0.0222   28.9220   13.4592 H   0  0  0  0  0  0
    0.6961   29.8929   12.1728 H   0  0  0  0  0  0
  1  3  1  0  0  0
  1  2  2  0  0  0
  1 23  1  0  0  0
  3 27  1  0  0  0
  3 28  1  0  0  0
  4  5  2  0  0  0
  4  9  1  0  0  0
  4 29  1  0  0  0
  5  6  1  0  0  0
  5 30  1  0  0  0
  6  7  2  0  0  0
  6 31  1  0  0  0
  7  8  1  0  0  0
  7 32  1  0  0  0
  8  9  2  0  0  0
  8 33  1  0  0  0
  9 10  1  0  0  0
 10 11  1  0  0  0
 10 34  1  0  0  0
 11 14  1  0  0  0
 11 12  2  0  0  0
 12 16  1  0  0  0
 13 15  1  0  0  0
 13 14  2  0  0  0
 13 35  1  0  0  0
 15 16  2  0  0  0
 15 18  1  0  0  0
 16 20  1  0  0  0
 17 19  1  0  0  0
 17 18  1  0  0  0
 17 25  1  0  0  0
 17 26  1  0  0  0
 18 36  1  0  0  0
 18 37  1  0  0  0
 19 20  2  0  0  0
 19 23  1  0  0  0
 20 21  1  0  0  0
 21 22  1  0  0  0
 21 24  1  0  0  0
 22 23  2  0  0  0
 24 38  1  0  0  0
 24 39  1  0  0  0
 24 40  1  0  0  0
 25 41  1  0  0  0
 25 42  1  0  0  0
 25 43  1  0  0  0
 26 44  1  0  0  0
 26 45  1  0  0  0
 26 46  1  0  0  0
M  END
> <s_m_entry_id>
33098

> <s_m_entry_name>
dock_pv.499

> <s_m_Source_Path>
/home/csk/Desktop/cluster/DUD-E-result/cdk2

> <s_m_Source_File>
dock_pv.maegz

> <i_m_Source_File_Index>
499

> <chembl_id>
CHEMBL560818

> <chembl_pref_name>
None

> <i_lp_mmshare_version>
53161

> <i_f3d_flags>
0

> <r_lp_tautomer_probability>
0.999999987636

> <s_lp_Force_Field>
OPLS_2005

> <r_lp_Energy>
14.962172

> <b_lp_Chiralities_Consistent>
1

> <s_lp_Variant>
CHEMBL301_lig868-1

> <s_i_glide_gridfile>
glide-grid_1h00

> <i_i_glide_lignum>
1227

> <i_i_glide_rotatable_bonds>
3

> <r_i_docking_score>
-7.03511988263384

> <r_i_glide_ligand_efficiency>
-0.270581533947455

> <r_i_glide_ligand_efficiency_sa>
-0.801596729632413

> <r_i_glide_ligand_efficiency_ln>
-1.6521748203254

> <r_i_glide_gscore>
-7.03511988263384

> <r_i_glide_lipo>
-1.95344466930656

> <r_i_glide_hbond>
-0.32

> <r_i_glide_metal>
0

> <r_i_glide_rewards>
-2.40138186354164

> <r_i_glide_evdw>
-40.2778053283691

> <r_i_glide_ecoul>
-4.40036964416504

> <r_i_glide_erotb>
0.313652363257575

> <r_i_glide_esite>
0

> <r_i_glide_emodel>
-61.4859339527733

> <r_i_glide_energy>
-44.6781749725342

> <r_i_glide_einternal>
4.34163856506348

> <i_i_glide_confnum>
8

> <i_i_glide_posenum>
318

> <r_i_glide_eff_state_penalty>
0

> <s_user_duplicate_titles>
CHEMBL301_lig868,559782

> <s_m_subgroup_title>
dock_pv

> <s_m_subgroupid>
dock_pv

> <b_m_subgroup_collapsed>
1

$$$$
CHEMBL301_lig99
                    3D
 Schrodinger Suite 2021-1.
 53 55  0  0  1  0            999 V2000
    0.6794   29.8634    8.5758 N   0  0  0  0  0  0
   -0.3651   30.3955    9.2711 C   0  0  0  0  0  0
    1.3280   30.6786    7.6964 C   0  0  0  0  0  0
   -0.7473   31.7362    9.0911 C   0  0  0  0  0  0
    1.0037   31.9719    7.4466 N   0  0  0  0  0  0
   -1.0687   29.6212   10.2108 N   0  0  0  0  0  0
    2.4340   30.2167    6.9736 N   0  0  0  0  0  0
   -0.0162   32.4918    8.1760 C   0  0  0  0  0  0
   -2.0501   32.4750    9.9622 Cl  0  0  0  0  0  0
    3.2605   29.0926    7.1144 C   0  0  0  0  0  0
    5.7954   25.7905    7.5290 O   0  0  0  0  0  0
    7.8977   25.7721    6.2343 C   0  0  1  0  0  0
    9.9993   25.6112    4.8047 N   0  0  0  0  0  0
    8.5716   25.2693    4.9290 C   0  0  0  0  0  0
   -0.9584   28.3102   10.7059 C   0  0  0  0  0  0
    4.9997   26.9027    7.3195 C   0  0  0  0  0  0
    6.4935   25.1651    6.4489 C   0  0  0  0  0  0
    3.9766   28.6519    5.9972 C   0  0  0  0  0  0
    3.4466   28.4634    8.3427 C   0  0  0  0  0  0
    4.3039   27.3761    8.4300 C   0  0  0  0  0  0
    4.8444   27.5654    6.0944 C   0  0  0  0  0  0
    8.7317   25.4521    7.3338 O   0  0  0  0  0  0
   10.5511   25.0538    3.5711 C   0  0  0  0  0  0
   10.2457   27.0516    4.8243 C   0  0  0  0  0  0
   -1.8019   27.9696   11.7671 C   0  0  0  0  0  0
   -0.0763   27.3495   10.1927 C   0  0  0  0  0  0
   -0.0428   26.0663   10.7345 C   0  0  0  0  0  0
   -1.7697   26.6879   12.3103 C   0  0  0  0  0  0
   -0.8890   25.7416   11.7916 C   0  0  0  0  0  0
   -1.7864   30.1568   10.6785 H   0  0  0  0  0  0
    2.8340   30.9168    6.3645 H   0  0  0  0  0  0
   -0.2616   33.5279    7.9920 H   0  0  0  0  0  0
    7.7913   26.8508    6.1906 H   0  0  0  0  0  0
    8.0357   25.6893    4.0750 H   0  0  0  0  0  0
    8.4524   24.1860    4.8617 H   0  0  0  0  0  0
    5.9075   25.1768    5.5292 H   0  0  0  0  0  0
    6.5927   24.1060    6.6911 H   0  0  0  0  0  0
    3.8734   29.1604    5.0501 H   0  0  0  0  0  0
    2.9430   28.8097    9.2318 H   0  0  0  0  0  0
    4.4259   26.8861    9.3759 H   0  0  0  0  0  0
    5.3873   27.2608    5.2132 H   0  0  0  0  0  0
    9.6354   25.5222    7.0040 H   0  0  0  0  0  0
   10.4266   23.9709    3.5447 H   0  0  0  0  0  0
   11.6210   25.2584    3.4967 H   0  0  0  0  0  0
   10.0703   25.4726    2.6848 H   0  0  0  0  0  0
    9.9337   27.4736    5.7766 H   0  0  0  0  0  0
   11.3099   27.2655    4.7218 H   0  0  0  0  0  0
    9.7115   27.5698    4.0253 H   0  0  0  0  0  0
   -2.4954   28.6955   12.1719 H   0  0  0  0  0  0
    0.5920   27.5671    9.3758 H   0  0  0  0  0  0
    0.6381   25.3293   10.3340 H   0  0  0  0  0  0
   -2.4295   26.4328   13.1268 H   0  0  0  0  0  0
   -0.8635   24.7466   12.2110 H   0  0  0  0  0  0
  1  2  2  0  0  0
  1  3  1  0  0  0
  2  4  1  0  0  0
  2  6  1  0  0  0
  3  5  2  0  0  0
  3  7  1  0  0  0
  4  9  1  0  0  0
  4  8  2  0  0  0
  5  8  1  0  0  0
  6 15  1  0  0  0
  6 30  1  0  0  0
  7 10  1  0  0  0
  7 31  1  0  0  0
  8 32  1  0  0  0
 10 18  2  0  0  0
 10 19  1  0  0  0
 11 16  1  0  0  0
 11 17  1  0  0  0
 12 17  1  0  0  0
 12 14  1  0  0  0
 12 22  1  0  0  0
 12 33  1  0  0  0
 13 14  1  0  0  0
 13 23  1  0  0  0
 13 24  1  0  0  0
 14 34  1  0  0  0
 14 35  1  0  0  0
 15 25  2  0  0  0
 15 26  1  0  0  0
 16 20  1  0  0  0
 16 21  2  0  0  0
 17 36  1  0  0  0
 17 37  1  0  0  0
 18 21  1  0  0  0
 18 38  1  0  0  0
 19 20  2  0  0  0
 19 39  1  0  0  0
 20 40  1  0  0  0
 21 41  1  0  0  0
 22 42  1  0  0  0
 23 43  1  0  0  0
 23 44  1  0  0  0
 23 45  1  0  0  0
 24 46  1  0  0  0
 24 47  1  0  0  0
 24 48  1  0  0  0
 25 28  1  0  0  0
 25 49  1  0  0  0
 26 27  2  0  0  0
 26 50  1  0  0  0
 27 29  1  0  0  0
 27 51  1  0  0  0
 28 29  2  0  0  0
 28 52  1  0  0  0
 29 53  1  0  0  0
M  END
> <s_m_entry_id>
33099

> <s_m_entry_name>
dock_pv.500

> <s_m_Source_Path>
/home/csk/Desktop/cluster/DUD-E-result/cdk2

> <s_m_Source_File>
dock_pv.maegz

> <i_m_Source_File_Index>
500

> <chembl_id>
CHEMBL100391

> <chembl_pref_name>
None

> <i_lp_mmshare_version>
53161

> <i_f3d_flags>
0

> <r_lp_tautomer_probability>
0.999999624730965

> <s_lp_Force_Field>
OPLS_2005

> <r_lp_Energy>
25.625436

> <b_lp_Chiralities_Consistent>
1

> <s_lp_Variant>
CHEMBL301_lig99-1

> <s_i_glide_gridfile>
glide-grid_1h00

> <i_i_glide_lignum>
210

> <i_i_glide_rotatable_bonds>
10

> <r_i_docking_score>
-7.03325273040236

> <r_i_glide_ligand_efficiency>
-0.242525956220771

> <r_i_glide_ligand_efficiency_sa>
-0.745116575126282

> <r_i_glide_ligand_efficiency_ln>
-1.61043652736118

> <r_i_glide_gscore>
-7.03325273040236

> <r_i_glide_lipo>
-3.13701353189244

> <r_i_glide_hbond>
-0.214039420260266

> <r_i_glide_metal>
0

> <r_i_glide_rewards>
-1.4425247762581

> <r_i_glide_evdw>
-42.7878303527832

> <r_i_glide_ecoul>
-6.81169462203979

> <r_i_glide_erotb>
0.921470708953576

> <r_i_glide_esite>
0

> <r_i_glide_emodel>
-66.2351461786403

> <r_i_glide_energy>
-49.599524974823

> <r_i_glide_einternal>
7.18119335174561

> <i_i_glide_confnum>
12

> <i_i_glide_posenum>
19

> <r_i_glide_eff_state_penalty>
0

> <s_user_duplicate_titles>
CHEMBL301_lig99,164455

> <s_m_subgroup_title>
dock_pv

> <s_m_subgroupid>
dock_pv

> <b_m_subgroup_collapsed>
1

$$$$
CHEMBL301_lig861
                    3D
 Schrodinger Suite 2021-1.
 37 38  0  0  1  0            999 V2000
    5.7264   25.4167    5.3980 C   0  0  2  0  0  0
    7.1189   25.8511    5.1572 N   0  0  0  0  0  0
    4.9115   25.6627    4.1066 C   0  0  0  0  0  0
    4.8036   24.5153    3.3760 O   0  0  0  0  0  0
    4.4761   26.7653    3.7757 O   0  0  0  0  0  0
   -0.5793   28.5031   11.1134 C   0  0  0  0  0  0
   -1.5832   29.4692   10.9898 C   0  0  0  0  0  0
   -1.4847   30.4645   10.0159 C   0  0  0  0  0  0
    0.5356   28.5302   10.2668 C   0  0  0  0  0  0
    0.6343   29.5349    9.2977 C   0  0  0  0  0  0
   -0.3679   30.4744    9.1821 C   0  0  0  0  0  0
   -0.0332   31.3492    8.1760 N   0  0  0  0  0  0
    1.1365   31.0519    7.5895 C   0  0  0  0  0  0
    1.6365   29.8818    8.2858 C   0  0  0  0  0  0
    1.6580   31.6866    6.6713 O   0  0  0  0  0  0
    2.8307   29.3619    7.9474 C   0  0  0  0  0  0
    3.4943   28.2957    8.5009 N   0  0  0  0  0  0
    4.9040   28.0516    8.2505 C   0  0  0  0  0  0
    5.2096   27.5478    6.8282 C   0  0  0  0  0  0
    5.1007   26.0146    6.6822 C   0  0  0  0  0  0
   -0.7415   27.1536   12.4462 Br  0  0  0  0  0  0
    5.7320   24.3357    5.5496 H   0  0  0  0  0  0
    7.4346   25.6116    4.2271 H   0  0  0  0  0  0
    7.2385   26.8530    5.2668 H   0  0  0  0  0  0
    4.4579   24.6520    2.4706 H   0  0  0  0  0  0
   -2.4349   29.4500   11.6563 H   0  0  0  0  0  0
   -2.2611   31.2106    9.9328 H   0  0  0  0  0  0
    1.3061   27.7827   10.3801 H   0  0  0  0  0  0
   -0.5842   32.1490    7.9058 H   0  0  0  0  0  0
    3.4012   29.7970    7.1336 H   0  0  0  0  0  0
    3.1528   27.9012    9.3656 H   0  0  0  0  0  0
    5.2741   27.3313    8.9771 H   0  0  0  0  0  0
    5.4629   28.9661    8.4540 H   0  0  0  0  0  0
    6.2207   27.8519    6.5787 H   0  0  0  0  0  0
    4.5750   28.0459    6.0938 H   0  0  0  0  0  0
    4.0573   25.7080    6.7630 H   0  0  0  0  0  0
    5.5994   25.5443    7.5310 H   0  0  0  0  0  0
  1  2  1  0  0  0
  1  3  1  0  0  0
  1 20  1  0  0  0
  1 22  1  0  0  0
  2 23  1  0  0  0
  2 24  1  0  0  0
  3  4  1  0  0  0
  3  5  2  0  0  0
  4 25  1  0  0  0
  6  7  2  0  0  0
  6  9  1  0  0  0
  6 21  1  0  0  0
  7  8  1  0  0  0
  7 26  1  0  0  0
  8 11  2  0  0  0
  8 27  1  0  0  0
  9 10  2  0  0  0
  9 28  1  0  0  0
 10 14  1  0  0  0
 10 11  1  0  0  0
 11 12  1  0  0  0
 12 13  1  0  0  0
 12 29  1  0  0  0
 13 14  1  0  0  0
 13 15  2  0  0  0
 14 16  2  0  0  0
 16 17  1  0  0  0
 16 30  1  0  0  0
 17 18  1  0  0  0
 17 31  1  0  0  0
 18 19  1  0  0  0
 18 32  1  0  0  0
 18 33  1  0  0  0
 19 20  1  0  0  0
 19 34  1  0  0  0
 19 35  1  0  0  0
 20 36  1  0  0  0
 20 37  1  0  0  0
M  END
> <s_m_entry_id>
33100

> <s_m_entry_name>
dock_pv.501

> <s_m_Source_Path>
/home/csk/Desktop/cluster/DUD-E-result/cdk2

> <s_m_Source_File>
dock_pv.maegz

> <i_m_Source_File_Index>
501

> <chembl_id>
CHEMBL503236

> <chembl_pref_name>
None

> <i_lp_mmshare_version>
53161

> <i_f3d_flags>
0

> <r_lp_tautomer_probability>
0.499999999999422

> <s_lp_Force_Field>
OPLS_2005

> <r_lp_Energy>
27.155329

> <b_lp_Chiralities_Consistent>
1

> <s_lp_Variant>
CHEMBL301_lig861-2

> <s_i_glide_gridfile>
glide-grid_1h00

> <i_i_glide_lignum>
1220

> <i_i_glide_rotatable_bonds>
7

> <r_i_docking_score>
-7.03226621016664

> <r_i_glide_ligand_efficiency>
-0.334869819531745

> <r_i_glide_ligand_efficiency_sa>
-0.923880440108922

> <r_i_glide_ligand_efficiency_ln>
-1.73871361043183

> <r_i_glide_gscore>
-7.03226621016664

> <r_i_glide_lipo>
-2.40900699342052

> <r_i_glide_hbond>
-0.456896628966414

> <r_i_glide_metal>
0

> <r_i_glide_rewards>
-1.59797987191757

> <r_i_glide_evdw>
-32.6638412475586

> <r_i_glide_ecoul>
-12.1698427200317

> <r_i_glide_erotb>
0.913741867761115

> <r_i_glide_esite>
-0.0234561132405695

> <r_i_glide_emodel>
-61.2758230022841

> <r_i_glide_energy>
-44.8336839675903

> <r_i_glide_einternal>
9.05487060546875

> <i_i_glide_confnum>
2

> <i_i_glide_posenum>
385

> <r_i_glide_eff_state_penalty>
0

> <s_user_duplicate_titles>
CHEMBL301_lig861

> <s_m_subgroup_title>
dock_pv

> <s_m_subgroupid>
dock_pv

> <b_m_subgroup_collapsed>
1

$$$$
CHEMBL301_lig1325
                    3D
 Schrodinger Suite 2021-1.
 59 60  0  0  1  0            999 V2000
   10.8128   25.3149    5.7302 C   0  0  0  0  0  0
    9.7196   26.3943    5.7272 C   0  0  0  0  0  0
    8.4123   25.8464    5.8722 O   0  0  0  0  0  0
    7.7524   25.2879    4.8171 C   0  0  0  0  0  0
    8.2179   25.2106    3.6808 O   0  0  0  0  0  0
    6.4733   24.8304    5.1009 N   0  0  0  0  0  0
    5.9080   24.8387    6.5466 S   0  0  2  0  0  0
    6.6972   24.6519    7.7687 O   0  0  0  0  0  0
    4.5538   23.5219    6.4499 C   0  0  0  0  0  0
    5.1752   22.1222    6.3569 C   0  0  0  0  0  0
    5.0083   26.3777    6.7098 C   0  0  0  0  0  0
    4.4467   26.6766    7.9488 C   0  0  0  0  0  0
    3.7585   27.8674    8.1473 C   0  0  0  0  0  0
    3.5926   28.7384    7.0691 C   0  0  0  0  0  0
    2.8349   29.9090    7.1567 N   0  0  0  0  0  0
    1.6869   30.2804    7.8625 C   0  0  0  0  0  0
    1.1854   31.4947    7.5261 N   0  0  0  0  0  0
    0.0574   31.8884    8.1756 C   0  0  0  0  0  0
   -0.6204   31.0617    9.0723 C   0  0  0  0  0  0
   -2.2505   31.6490    9.8738 Br  0  0  0  0  0  0
   -0.0370   29.8168    9.3497 C   0  0  0  0  0  0
   -0.6874   28.9363   10.2290 N   0  0  0  0  0  0
    0.0357   27.9539   11.0475 C   0  0  2  0  0  0
    0.4546   26.7087   10.2292 C   0  0  0  0  0  0
   -0.7539   27.5978   12.3553 C   0  0  0  0  0  0
   -1.0873   28.8566   13.1822 C   0  0  0  0  0  0
   -2.0490   26.8016   12.0814 C   0  0  0  0  0  0
    0.0567   26.7736   13.1812 O   0  0  0  0  0  0
    1.1461   29.4520    8.7878 N   0  0  0  0  0  0
    4.1602   28.4446    5.8283 C   0  0  0  0  0  0
    4.8654   27.2653    5.6439 C   0  0  0  0  0  0
   11.8006   25.7718    5.6646 H   0  0  0  0  0  0
   10.7770   24.7275    6.6459 H   0  0  0  0  0  0
   10.7080   24.6371    4.8830 H   0  0  0  0  0  0
    9.7839   27.0122    4.8298 H   0  0  0  0  0  0
    9.8880   27.0564    6.5753 H   0  0  0  0  0  0
    3.9284   23.6315    7.3365 H   0  0  0  0  0  0
    3.9396   23.7534    5.5785 H   0  0  0  0  0  0
    4.4018   21.3533    6.3309 H   0  0  0  0  0  0
    5.7792   22.0163    5.4542 H   0  0  0  0  0  0
    5.8219   21.9169    7.2129 H   0  0  0  0  0  0
    4.5060   25.9649    8.7506 H   0  0  0  0  0  0
    3.3349   28.0861    9.1174 H   0  0  0  0  0  0
    3.1896   30.6512    6.5700 H   0  0  0  0  0  0
   -0.3291   32.8698    7.9338 H   0  0  0  0  0  0
   -1.5327   29.3038   10.6438 H   0  0  0  0  0  0
    0.9625   28.4388   11.3635 H   0  0  0  0  0  0
    0.9210   25.9496   10.8585 H   0  0  0  0  0  0
   -0.3992   26.2477    9.7309 H   0  0  0  0  0  0
    1.1896   26.9586    9.4653 H   0  0  0  0  0  0
   -1.8029   29.4970   12.6645 H   0  0  0  0  0  0
   -0.1995   29.4568   13.3759 H   0  0  0  0  0  0
   -1.5419   28.5984   14.1408 H   0  0  0  0  0  0
   -2.7336   27.3619   11.4451 H   0  0  0  0  0  0
   -1.8474   25.8498   11.5914 H   0  0  0  0  0  0
   -2.5797   26.5747   13.0088 H   0  0  0  0  0  0
    0.9441   27.1498   13.2442 H   0  0  0  0  0  0
    4.0574   29.1138    4.9865 H   0  0  0  0  0  0
    5.2978   27.0606    4.6767 H   0  0  0  0  0  0
  1  2  1  0  0  0
  1 32  1  0  0  0
  1 33  1  0  0  0
  1 34  1  0  0  0
  2  3  1  0  0  0
  2 35  1  0  0  0
  2 36  1  0  0  0
  3  4  1  0  0  0
  4  5  2  0  0  0
  4  6  1  0  0  0
  6  7  2  0  0  0
  7  8  2  0  0  0
  7  9  1  0  0  0
  7 11  1  0  0  0
  9 10  1  0  0  0
  9 37  1  0  0  0
  9 38  1  0  0  0
 10 39  1  0  0  0
 10 40  1  0  0  0
 10 41  1  0  0  0
 11 12  2  0  0  0
 11 31  1  0  0  0
 12 13  1  0  0  0
 12 42  1  0  0  0
 13 14  2  0  0  0
 13 43  1  0  0  0
 14 15  1  0  0  0
 14 30  1  0  0  0
 15 16  1  0  0  0
 15 44  1  0  0  0
 16 17  2  0  0  0
 16 29  1  0  0  0
 17 18  1  0  0  0
 18 19  2  0  0  0
 18 45  1  0  0  0
 19 20  1  0  0  0
 19 21  1  0  0  0
 21 22  1  0  0  0
 21 29  2  0  0  0
 22 23  1  0  0  0
 22 46  1  0  0  0
 23 24  1  0  0  0
 23 25  1  0  0  0
 23 47  1  0  0  0
 24 48  1  0  0  0
 24 49  1  0  0  0
 24 50  1  0  0  0
 25 26  1  0  0  0
 25 27  1  0  0  0
 25 28  1  0  0  0
 26 51  1  0  0  0
 26 52  1  0  0  0
 26 53  1  0  0  0
 27 54  1  0  0  0
 27 55  1  0  0  0
 27 56  1  0  0  0
 28 57  1  0  0  0
 30 31  2  0  0  0
 30 58  1  0  0  0
 31 59  1  0  0  0
M  END
> <s_m_entry_id>
33101

> <s_m_entry_name>
dock_pv.502

> <s_m_Source_Path>
/home/csk/Desktop/cluster/DUD-E-result/cdk2

> <s_m_Source_File>
dock_pv.maegz

> <i_m_Source_File_Index>
502

> <chembl_id>
CHEMBL3648088

> <chembl_pref_name>
None

> <i_lp_mmshare_version>
53161

> <i_f3d_flags>
0

> <r_lp_tautomer_probability>
0.999999624730965

> <s_lp_Force_Field>
OPLS_2005

> <r_lp_Energy>
11.348013

> <b_lp_Chiralities_Consistent>
1

> <s_lp_Variant>
CHEMBL301_lig1325-2

> <s_i_glide_gridfile>
glide-grid_1h00

> <i_i_glide_lignum>
1747

> <i_i_glide_rotatable_bonds>
11

> <r_i_docking_score>
-7.02946103587187

> <r_i_glide_ligand_efficiency>
-0.22675680760877

> <r_i_glide_ligand_efficiency_sa>
-0.712329447404851

> <r_i_glide_ligand_efficiency_ln>
-1.58535889069804

> <r_i_glide_gscore>
-7.02946103587187

> <r_i_glide_lipo>
-2.67160709326604

> <r_i_glide_hbond>
-0.576868462295478

> <r_i_glide_metal>
0

> <r_i_glide_rewards>
-1.05798558630704

> <r_i_glide_evdw>
-39.8328132629395

> <r_i_glide_ecoul>
-9.47278594970703

> <r_i_glide_erotb>
0.697587010883199

> <r_i_glide_esite>
-0.00802834928347493

> <r_i_glide_emodel>
-61.6637953859173

> <r_i_glide_energy>
-49.3055992126465

> <r_i_glide_einternal>
11.6505880355835

> <i_i_glide_confnum>
90

> <i_i_glide_posenum>
72

> <r_i_glide_eff_state_penalty>
0

> <s_user_duplicate_titles>
CHEMBL301_lig1325

> <s_m_subgroup_title>
dock_pv

> <s_m_subgroupid>
dock_pv

> <b_m_subgroup_collapsed>
1

$$$$
CHEMBL301_lig186
                    3D
 Schrodinger Suite 2021-1.
 34 37  0  0  1  0            999 V2000
    0.7977   27.7316   10.4838 C   0  0  0  0  0  0
    1.8736   26.6809   10.5774 C   0  0  0  0  0  0
   -0.4517   27.9215   11.0961 C   0  0  0  0  0  0
    1.2243   28.6454    9.5497 C   0  0  0  0  0  0
    2.8566   27.1330    9.7686 N   0  0  0  0  0  0
    2.4768   28.2896    9.0985 C   0  0  0  0  0  0
   -1.2336   29.0184   10.6898 C   0  0  0  0  0  0
   -0.8099   29.9236    9.6977 C   0  0  0  0  0  0
    0.4813   29.7520    9.0946 C   0  0  0  0  0  0
   -0.9951   27.0377   12.1686 C   0  0  0  0  0  0
   -0.2087   26.4696   13.1411 N   0  0  0  0  0  0
    1.9030   25.6463   11.2427 O   0  0  0  0  0  0
    1.1207   30.5376    8.0842 C   0  0  0  0  0  0
    3.0855   29.0658    8.1178 C   0  0  0  0  0  0
   -2.3002   26.6474   12.4624 C   0  0  0  0  0  0
   -0.9673   25.7338   14.0141 C   0  0  0  0  0  0
   -2.2840   25.8357   13.6023 C   0  0  0  0  0  0
    2.3945   30.1764    7.6131 C   0  0  0  0  0  0
    0.5438   31.6524    7.5867 F   0  0  0  0  0  0
   -1.7438   31.0511    9.2624 C   0  0  0  0  0  0
   -1.4146   32.4087    9.9019 C   0  0  0  0  0  0
    3.7584   26.6779    9.7002 H   0  0  0  0  0  0
   -2.1968   29.1739   11.1562 H   0  0  0  0  0  0
    0.7965   26.5814   13.1905 H   0  0  0  0  0  0
    4.0644   28.8222    7.7324 H   0  0  0  0  0  0
   -3.1825   26.9249   11.9048 H   0  0  0  0  0  0
   -0.5008   25.2125   14.8366 H   0  0  0  0  0  0
   -3.1435   25.3781   14.0683 H   0  0  0  0  0  0
    2.8545   30.7784    6.8462 H   0  0  0  0  0  0
   -1.7349   31.1272    8.1769 H   0  0  0  0  0  0
   -2.7723   30.7875    9.5149 H   0  0  0  0  0  0
   -2.0461   33.1948    9.4859 H   0  0  0  0  0  0
   -1.5960   32.3856   10.9757 H   0  0  0  0  0  0
   -0.3748   32.6979    9.7382 H   0  0  0  0  0  0
  1  2  1  0  0  0
  1  3  2  0  0  0
  1  4  1  0  0  0
  2  5  1  0  0  0
  2 12  2  0  0  0
  3  7  1  0  0  0
  3 10  1  0  0  0
  4  6  1  0  0  0
  4  9  2  0  0  0
  5  6  1  0  0  0
  5 22  1  0  0  0
  6 14  2  0  0  0
  7  8  2  0  0  0
  7 23  1  0  0  0
  8  9  1  0  0  0
  8 20  1  0  0  0
  9 13  1  0  0  0
 10 11  1  0  0  0
 10 15  2  0  0  0
 11 16  1  0  0  0
 11 24  1  0  0  0
 13 18  2  0  0  0
 13 19  1  0  0  0
 14 18  1  0  0  0
 14 25  1  0  0  0
 15 17  1  0  0  0
 15 26  1  0  0  0
 16 17  2  0  0  0
 16 27  1  0  0  0
 17 28  1  0  0  0
 18 29  1  0  0  0
 20 21  1  0  0  0
 20 30  1  0  0  0
 20 31  1  0  0  0
 21 32  1  0  0  0
 21 33  1  0  0  0
 21 34  1  0  0  0
M  END
> <s_m_entry_id>
33102

> <s_m_entry_name>
dock_pv.503

> <s_m_Source_Path>
/home/csk/Desktop/cluster/DUD-E-result/cdk2

> <s_m_Source_File>
dock_pv.maegz

> <i_m_Source_File_Index>
503

> <chembl_id>
CHEMBL82251

> <chembl_pref_name>
None

> <i_lp_mmshare_version>
53161

> <i_f3d_flags>
0

> <r_lp_tautomer_probability>
1

> <s_lp_Force_Field>
OPLS_2005

> <r_lp_Energy>
53.778531

> <b_lp_Chiralities_Consistent>
1

> <s_lp_Variant>
CHEMBL301_lig186-1

> <s_i_glide_gridfile>
glide-grid_1h00

> <i_i_glide_lignum>
327

> <i_i_glide_rotatable_bonds>
2

> <r_i_docking_score>
-7.02640682386251

> <r_i_glide_ligand_efficiency>
-0.33459080113631

> <r_i_glide_ligand_efficiency_sa>
-0.923110649512884

> <r_i_glide_ligand_efficiency_ln>
-1.73726488900814

> <r_i_glide_gscore>
-7.02640682386251

> <r_i_glide_lipo>
-2.83403911590652

> <r_i_glide_hbond>
-0.343280424737659

> <r_i_glide_metal>
0

> <r_i_glide_rewards>
-1.94059142103424

> <r_i_glide_evdw>
-31.3977928161621

> <r_i_glide_ecoul>
-3.59197306632996

> <r_i_glide_erotb>
0.229840499820291

> <r_i_glide_esite>
-0.0296507612467854

> <r_i_glide_emodel>
-50.4017302837006

> <r_i_glide_energy>
-34.9897658824921

> <r_i_glide_einternal>
1.46048498153687

> <i_i_glide_confnum>
4

> <i_i_glide_posenum>
284

> <r_i_glide_eff_state_penalty>
0

> <s_user_duplicate_titles>
CHEMBL301_lig186,130900

> <s_m_subgroup_title>
dock_pv

> <s_m_subgroupid>
dock_pv

> <b_m_subgroup_collapsed>
1

$$$$
CHEMBL301_lig225
                    3D
 Schrodinger Suite 2021-1.
 43 45  0  0  1  0            999 V2000
    5.0704   29.1924    7.6648 C   0  0  0  0  0  0
    4.3707   28.0912    8.4696 C   0  0  0  0  0  0
    4.3902   26.7557    7.7037 C   0  0  0  0  0  0
    2.9768   28.4707    8.9765 C   0  0  0  0  0  0
    2.5021   27.8493   10.1364 C   0  0  0  0  0  0
    1.2577   28.1875   10.6644 C   0  0  0  0  0  0
    0.4252   29.0949   10.0013 C   0  0  0  0  0  0
    0.9233   29.7446    8.8904 C   0  0  0  0  0  0
   -0.0022   30.6602    8.4588 N   0  0  0  0  0  0
   -1.1165   30.6506    9.2029 C   0  0  0  0  0  0
   -2.0967   31.3774    9.0359 O   0  0  0  0  0  0
   -0.9474   29.5842   10.1908 C   0  0  0  0  0  0
   -1.9223   29.2909   10.9749 N   0  0  0  0  0  0
   -2.0105   28.1115   11.7763 N   0  0  0  0  0  0
   -1.3636   26.8746   11.6146 C   0  0  0  0  0  0
   -1.1439   26.3216   10.3473 C   0  0  0  0  0  0
   -0.3035   25.2249   10.1965 C   0  0  0  0  0  0
    0.2994   24.6565   11.3172 C   0  0  0  0  0  0
   -0.0152   25.1249   12.5935 C   0  0  0  0  0  0
   -0.8567   26.2258   12.7425 C   0  0  0  0  0  0
    1.5375   23.3816   11.1117 S   0  0  0  0  0  0
    2.5267   23.9102    9.7762 N   0  0  0  0  0  0
    2.3909   23.3944   12.3039 O   0  0  0  0  0  0
    0.8537   22.1588   10.6863 O   0  0  0  0  0  0
    2.1823   29.4522    8.3609 C   0  0  0  0  0  0
    5.1811   30.1151    8.2362 H   0  0  0  0  0  0
    4.5446   29.4259    6.7397 H   0  0  0  0  0  0
    6.0577   28.8541    7.3759 H   0  0  0  0  0  0
    4.9827   27.9389    9.3601 H   0  0  0  0  0  0
    3.7649   26.0017    8.1796 H   0  0  0  0  0  0
    4.0582   26.8764    6.6737 H   0  0  0  0  0  0
    5.4024   26.3524    7.6628 H   0  0  0  0  0  0
    3.1190   27.1336   10.6630 H   0  0  0  0  0  0
    0.9821   27.7317   11.5990 H   0  0  0  0  0  0
    0.1424   31.3122    7.7041 H   0  0  0  0  0  0
   -2.6445   28.2269   12.5594 H   0  0  0  0  0  0
   -1.5409   26.8043    9.4669 H   0  0  0  0  0  0
   -0.0699   24.8698    9.2055 H   0  0  0  0  0  0
    0.4396   24.6767   13.4640 H   0  0  0  0  0  0
   -1.0344   26.6300   13.7285 H   0  0  0  0  0  0
    2.9887   24.8103    9.9332 H   0  0  0  0  0  0
    2.0710   23.8527    8.8542 H   0  0  0  0  0  0
    2.5309   29.9743    7.4837 H   0  0  0  0  0  0
  1  2  1  0  0  0
  1 26  1  0  0  0
  1 27  1  0  0  0
  1 28  1  0  0  0
  2  3  1  0  0  0
  2  4  1  0  0  0
  2 29  1  0  0  0
  3 30  1  0  0  0
  3 31  1  0  0  0
  3 32  1  0  0  0
  4  5  2  0  0  0
  4 25  1  0  0  0
  5  6  1  0  0  0
  5 33  1  0  0  0
  6  7  2  0  0  0
  6 34  1  0  0  0
  7  8  1  0  0  0
  7 12  1  0  0  0
  8  9  1  0  0  0
  8 25  2  0  0  0
  9 10  1  0  0  0
  9 35  1  0  0  0
 10 11  2  0  0  0
 10 12  1  0  0  0
 12 13  2  0  0  0
 13 14  1  0  0  0
 14 15  1  0  0  0
 14 36  1  0  0  0
 15 16  2  0  0  0
 15 20  1  0  0  0
 16 17  1  0  0  0
 16 37  1  0  0  0
 17 18  2  0  0  0
 17 38  1  0  0  0
 18 19  1  0  0  0
 18 21  1  0  0  0
 19 20  2  0  0  0
 19 39  1  0  0  0
 20 40  1  0  0  0
 21 22  1  0  0  0
 21 23  2  0  0  0
 21 24  2  0  0  0
 22 41  1  0  0  0
 22 42  1  0  0  0
 25 43  1  0  0  0
M  END
> <s_m_entry_id>
33103

> <s_m_entry_name>
dock_pv.504

> <s_m_Source_Path>
/home/csk/Desktop/cluster/DUD-E-result/cdk2

> <s_m_Source_File>
dock_pv.maegz

> <i_m_Source_File_Index>
504

> <chembl_id>
CHEMBL271594

> <chembl_pref_name>
GW300653X

> <i_lp_mmshare_version>
53161

> <i_f3d_flags>
0

> <r_lp_tautomer_probability>
1

> <s_lp_Force_Field>
OPLS_2005

> <r_lp_Energy>
44.248245

> <b_lp_Chiralities_Consistent>
1

> <s_lp_Variant>
CHEMBL301_lig225-1

> <s_i_glide_gridfile>
glide-grid_1h00

> <i_i_glide_lignum>
367

> <i_i_glide_rotatable_bonds>
4

> <r_i_docking_score>
-7.02358081586548

> <r_i_glide_ligand_efficiency>
-0.280943232634619

> <r_i_glide_ligand_efficiency_sa>
-0.821482994773073

> <r_i_glide_ligand_efficiency_ln>
-1.6647991330925

> <r_i_glide_gscore>
-7.02358081586548

> <r_i_glide_lipo>
-2.47312797090789

> <r_i_glide_hbond>
-0.371257721788571

> <r_i_glide_metal>
0

> <r_i_glide_rewards>
-1.15446947852697

> <r_i_glide_evdw>
-38.1291770935059

> <r_i_glide_ecoul>
-8.68882083892822

> <r_i_glide_erotb>
0.298228615703743

> <r_i_glide_esite>
-0.113172279831273

> <r_i_glide_emodel>
-58.98523873188

> <r_i_glide_energy>
-46.8179979324341

> <r_i_glide_einternal>
7.65526056289673

> <i_i_glide_confnum>
4

> <i_i_glide_posenum>
159

> <r_i_glide_eff_state_penalty>
0

> <s_user_duplicate_titles>
CHEMBL301_lig225

> <s_m_subgroup_title>
dock_pv

> <s_m_subgroupid>
dock_pv

> <b_m_subgroup_collapsed>
1

$$$$
CHEMBL301_lig458
                    3D
 Schrodinger Suite 2021-1.
 45 48  0  0  1  0            999 V2000
   -0.9488   30.9028    9.2043 C   0  0  0  0  0  0
    0.3076   30.4965    8.7538 C   0  0  0  0  0  0
    0.9084   29.3123    9.2090 C   0  0  0  0  0  0
   -1.6569   30.0957   10.0901 C   0  0  0  0  0  0
   -1.1314   28.8683   10.5096 C   0  0  0  0  0  0
    0.1482   28.4815   10.0676 C   0  0  0  0  0  0
    0.6658   27.2446   10.4233 O   0  0  0  0  0  0
   -0.0873   26.3661   11.1441 C   0  0  0  0  0  0
   -1.3005   26.6785   11.6563 C   0  0  0  0  0  0
   -1.9356   27.9659   11.3859 C   0  0  0  0  0  0
   -3.0657   28.2521   11.7760 O   0  0  0  0  0  0
    0.6221   25.0695   11.3143 C   0  0  0  0  0  0
    0.4568   24.2843   12.4637 C   0  0  0  0  0  0
    1.0584   23.0335   12.5765 C   0  0  0  0  0  0
    1.8657   22.5528   11.5510 C   0  0  0  0  0  0
    2.0581   23.3267   10.3996 C   0  0  0  0  0  0
    1.4284   24.5667   10.2841 C   0  0  0  0  0  0
    2.8578   22.8822    9.3760 O   0  0  0  0  0  0
    2.4578   21.3241   11.6951 O   0  0  0  0  0  0
   -2.0831   25.8443   12.4042 O   0  0  0  0  0  0
    2.2236   29.0064    8.7888 N   0  0  0  0  0  0
   -1.5397   32.2304    8.7615 C   0  0  0  0  0  0
    2.9818   29.6838    7.7322 C   0  0  0  0  0  0
    4.1644   28.7966    7.3515 C   0  0  0  0  0  0
    4.4745   28.1033    8.6568 C   0  0  0  0  0  0
    3.0853   27.9156    9.2603 C   0  0  0  0  0  0
    0.8474   31.1514    8.0857 H   0  0  0  0  0  0
   -2.6317   30.4198   10.4355 H   0  0  0  0  0  0
   -0.1473   24.6360   13.2866 H   0  0  0  0  0  0
    0.9018   22.4481   13.4706 H   0  0  0  0  0  0
    1.5573   25.1348    9.3762 H   0  0  0  0  0  0
    2.6090   23.2598    8.5214 H   0  0  0  0  0  0
    2.0558   20.7904   12.3858 H   0  0  0  0  0  0
   -2.9170   26.2904   12.6007 H   0  0  0  0  0  0
   -1.8241   32.8207    9.6342 H   0  0  0  0  0  0
   -0.8379   32.8255    8.1753 H   0  0  0  0  0  0
   -2.4448   32.0673    8.1765 H   0  0  0  0  0  0
    3.3311   30.6573    8.0663 H   0  0  0  0  0  0
    2.3487   29.8058    6.8524 H   0  0  0  0  0  0
    5.0121   29.3758    6.9832 H   0  0  0  0  0  0
    3.8857   28.0939    6.5648 H   0  0  0  0  0  0
    4.9917   27.1537    8.5138 H   0  0  0  0  0  0
    5.1020   28.7172    9.3027 H   0  0  0  0  0  0
    2.6795   26.9470    8.9749 H   0  0  0  0  0  0
    3.1561   27.9576   10.3485 H   0  0  0  0  0  0
  1  2  2  0  0  0
  1  4  1  0  0  0
  1 22  1  0  0  0
  2  3  1  0  0  0
  2 27  1  0  0  0
  3  6  2  0  0  0
  3 21  1  0  0  0
  4  5  2  0  0  0
  4 28  1  0  0  0
  5 10  1  0  0  0
  5  6  1  0  0  0
  6  7  1  0  0  0
  7  8  1  0  0  0
  8 12  1  0  0  0
  8  9  2  0  0  0
  9 20  1  0  0  0
  9 10  1  0  0  0
 10 11  2  0  0  0
 12 13  2  0  0  0
 12 17  1  0  0  0
 13 14  1  0  0  0
 13 29  1  0  0  0
 14 15  2  0  0  0
 14 30  1  0  0  0
 15 16  1  0  0  0
 15 19  1  0  0  0
 16 17  2  0  0  0
 16 18  1  0  0  0
 17 31  1  0  0  0
 18 32  1  0  0  0
 19 33  1  0  0  0
 20 34  1  0  0  0
 21 23  1  0  0  0
 21 26  1  0  0  0
 22 35  1  0  0  0
 22 36  1  0  0  0
 22 37  1  0  0  0
 23 24  1  0  0  0
 23 38  1  0  0  0
 23 39  1  0  0  0
 24 25  1  0  0  0
 24 40  1  0  0  0
 24 41  1  0  0  0
 25 26  1  0  0  0
 25 42  1  0  0  0
 25 43  1  0  0  0
 26 44  1  0  0  0
 26 45  1  0  0  0
M  END
> <s_m_entry_id>
33104

> <s_m_entry_name>
dock_pv.505

> <s_m_Source_Path>
/home/csk/Desktop/cluster/DUD-E-result/cdk2

> <s_m_Source_File>
dock_pv.maegz

> <i_m_Source_File_Index>
505

> <chembl_id>
CHEMBL232735

> <chembl_pref_name>
None

> <i_lp_mmshare_version>
53161

> <i_f3d_flags>
0

> <r_lp_tautomer_probability>
0.999999999999776

> <s_lp_Force_Field>
OPLS_2005

> <r_lp_Energy>
45.019548

> <b_lp_Chiralities_Consistent>
1

> <s_lp_Variant>
CHEMBL301_lig458-1

> <s_i_glide_gridfile>
glide-grid_1h00

> <i_i_glide_lignum>
649

> <i_i_glide_rotatable_bonds>
5

> <r_i_docking_score>
-7.02219862603352

> <r_i_glide_ligand_efficiency>
-0.270084562539751

> <r_i_glide_ligand_efficiency_sa>
-0.800124453792575

> <r_i_glide_ligand_efficiency_ln>
-1.64914030561091

> <r_i_glide_gscore>
-7.02219862603352

> <r_i_glide_lipo>
-3.0081710868396

> <r_i_glide_hbond>
0

> <r_i_glide_metal>
0

> <r_i_glide_rewards>
-1.57325921685287

> <r_i_glide_evdw>
-34.8352661132812

> <r_i_glide_ecoul>
-6.69907236099243

> <r_i_glide_erotb>
0.305855837471874

> <r_i_glide_esite>
0

> <r_i_glide_emodel>
-57.6723024808445

> <r_i_glide_energy>
-41.5343384742737

> <r_i_glide_einternal>
2.32241654396057

> <i_i_glide_confnum>
5

> <i_i_glide_posenum>
377

> <r_i_glide_eff_state_penalty>
0

> <s_user_duplicate_titles>
CHEMBL301_lig458

> <s_m_subgroup_title>
dock_pv

> <s_m_subgroupid>
dock_pv

> <b_m_subgroup_collapsed>
1

$$$$
CHEMBL301_lig759
                    3D
 Schrodinger Suite 2021-1.
 42 44  0  0  1  0            999 V2000
    2.9523   27.7339    9.1148 C   0  0  0  0  0  0
    4.2098   27.3932    8.5760 C   0  0  0  0  0  0
    4.7157   28.3106    7.7916 N   0  0  0  0  0  0
    3.7826   29.2607    7.7759 N   0  0  0  0  0  0
    2.6805   28.9941    8.5566 C   0  0  0  0  0  0
    1.5189   29.8520    8.5619 C   0  0  0  0  0  0
    1.4481   30.7969    7.7754 O   0  0  0  0  0  0
    0.5672   29.5436    9.4655 N   0  0  0  0  0  0
   -0.6551   30.2902    9.8089 C   0  0  1  0  0  0
    2.1418   27.0036    9.9806 N   0  0  0  0  0  0
    2.0854   25.6569   10.0829 C   0  0  0  0  0  0
    2.8566   24.8684    9.5332 O   0  0  0  0  0  0
    0.9675   25.1408   10.9549 C   0  0  0  0  0  0
   -0.3547   25.5786   10.7579 C   0  0  0  0  0  0
   -1.3870   25.0999   11.5602 C   0  0  0  0  0  0
   -1.1290   24.1582   12.5516 C   0  0  0  0  0  0
    0.1687   23.6905   12.7355 C   0  0  0  0  0  0
    1.2123   24.1775   11.9470 C   0  0  0  0  0  0
    2.4580   23.7049   12.1749 F   0  0  0  0  0  0
   -0.6637   26.4542    9.7761 F   0  0  0  0  0  0
   -1.2383   31.2192    8.7196 C   0  0  0  0  0  0
   -2.6255   31.7555    9.0681 C   0  0  0  0  0  0
   -3.5949   30.6452    9.4606 C   0  0  0  0  0  0
   -3.0978   29.8521   10.5760 N   0  0  1  0  0  0
   -1.7251   29.3564   10.4435 C   0  0  0  0  0  0
    4.7530   26.4824    8.7818 H   0  0  0  0  0  0
    3.8919   30.0958    7.2104 H   0  0  0  0  0  0
    0.6651   28.6590    9.9310 H   0  0  0  0  0  0
   -0.3421   30.9125   10.6488 H   0  0  0  0  0  0
    1.5732   27.5212   10.6292 H   0  0  0  0  0  0
   -2.3951   25.4535   11.3993 H   0  0  0  0  0  0
   -1.9351   23.7843   13.1653 H   0  0  0  0  0  0
    0.3719   22.9511   13.4959 H   0  0  0  0  0  0
   -1.3184   30.6523    7.7880 H   0  0  0  0  0  0
   -0.5802   32.0709    8.5429 H   0  0  0  0  0  0
   -3.0315   32.2528    8.1893 H   0  0  0  0  0  0
   -2.5839   32.5177    9.8478 H   0  0  0  0  0  0
   -3.7824   29.9843    8.6146 H   0  0  0  0  0  0
   -4.5553   31.0754    9.7459 H   0  0  0  0  0  0
   -3.2295   30.3511   11.4635 H   0  0  0  0  0  0
   -1.3925   29.0210   11.4271 H   0  0  0  0  0  0
   -1.8058   28.4663    9.8243 H   0  0  0  0  0  0
  1  5  2  0  0  0
  1  2  1  0  0  0
  1 10  1  0  0  0
  2 26  1  0  0  0
  2  3  2  0  0  0
  3  4  1  0  0  0
  4 27  1  0  0  0
  4  5  1  0  0  0
  5  6  1  0  0  0
  6  7  2  0  0  0
  6  8  1  0  0  0
  8  9  1  0  0  0
  8 28  1  0  0  0
  9 21  1  0  0  0
  9 25  1  0  0  0
  9 29  1  0  0  0
 10 11  1  0  0  0
 10 30  1  0  0  0
 11 13  1  0  0  0
 11 12  2  0  0  0
 13 14  2  0  0  0
 13 18  1  0  0  0
 14 15  1  0  0  0
 14 20  1  0  0  0
 15 16  2  0  0  0
 15 31  1  0  0  0
 16 17  1  0  0  0
 16 32  1  0  0  0
 17 18  2  0  0  0
 17 33  1  0  0  0
 18 19  1  0  0  0
 21 22  1  0  0  0
 21 34  1  0  0  0
 21 35  1  0  0  0
 22 23  1  0  0  0
 22 36  1  0  0  0
 22 37  1  0  0  0
 23 24  1  0  0  0
 23 38  1  0  0  0
 23 39  1  0  0  0
 24 25  1  0  0  0
 24 40  1  0  0  0
 25 41  1  0  0  0
 25 42  1  0  0  0
M  END
> <s_m_entry_id>
33105

> <s_m_entry_name>
dock_pv.506

> <s_m_Source_Path>
/home/csk/Desktop/cluster/DUD-E-result/cdk2

> <s_m_Source_File>
dock_pv.maegz

> <i_m_Source_File_Index>
506

> <chembl_id>
CHEMBL498659

> <chembl_pref_name>
None

> <i_lp_mmshare_version>
53161

> <i_f3d_flags>
0

> <r_lp_tautomer_probability>
0.5

> <s_lp_Force_Field>
OPLS_2005

> <r_lp_Energy>
33.261929

> <b_lp_Chiralities_Consistent>
1

> <s_lp_Variant>
CHEMBL301_lig759-2

> <s_i_glide_gridfile>
glide-grid_1h00

> <i_i_glide_lignum>
1081

> <i_i_glide_rotatable_bonds>
6

> <r_i_docking_score>
-7.02126703301943

> <r_i_glide_ligand_efficiency>
-0.280850681320777

> <r_i_glide_ligand_efficiency_sa>
-0.821212373089994

> <r_i_glide_ligand_efficiency_ln>
-1.66425069721951

> <r_i_glide_gscore>
-7.02126703301943

> <r_i_glide_lipo>
-2.07705606794118

> <r_i_glide_hbond>
-0.456

> <r_i_glide_metal>
0

> <r_i_glide_rewards>
-2.51243196329902

> <r_i_glide_evdw>
-38.2185478210449

> <r_i_glide_ecoul>
-6.41885042190552

> <r_i_glide_erotb>
0.936492609615928

> <r_i_glide_esite>
-0.0385166570570885

> <r_i_glide_emodel>
-59.4281305283843

> <r_i_glide_energy>
-44.6373982429504

> <r_i_glide_einternal>
8.52952480316162

> <i_i_glide_confnum>
146

> <i_i_glide_posenum>
68

> <r_i_glide_eff_state_penalty>
0

> <s_user_duplicate_titles>
CHEMBL301_lig759,511185

> <s_m_subgroup_title>
dock_pv

> <s_m_subgroupid>
dock_pv

> <b_m_subgroup_collapsed>
1

$$$$
CHEMBL301_lig854
                    3D
 Schrodinger Suite 2021-1.
 44 46  0  0  1  0            999 V2000
   -0.4008   27.1028   11.6129 N   0  0  0  0  0  0
    0.6345   26.2546   11.3893 C   0  0  0  0  0  0
    1.6989   26.4537   10.5769 N   0  0  0  0  0  0
    1.7551   27.6404    9.9219 C   0  0  0  0  0  0
   -0.3341   28.2429   10.9177 C   0  0  0  0  0  0
    0.7153   28.5984   10.0317 C   0  0  0  0  0  0
    0.4573   29.8517    9.4023 C   0  0  0  0  0  0
   -0.7421   30.4611    9.7662 C   0  0  0  0  0  0
   -1.5671   29.4783   10.9794 S   0  0  0  0  0  0
    2.8580   27.7760    9.0745 N   0  0  0  0  0  0
    3.3892   28.9686    8.5760 N   0  0  0  0  0  0
    4.2413   28.9317    7.6293 C   0  0  0  0  0  0
   -1.3683   31.7623    9.2360 C   0  0  0  0  0  0
    4.6060   27.8009    6.7558 C   0  0  0  0  0  0
    4.6893   27.9775    5.3701 C   0  0  0  0  0  0
    4.9355   26.8683    4.5588 C   0  0  0  0  0  0
    5.0843   25.6094    5.1421 C   0  0  0  0  0  0
    4.9981   25.5029    6.5330 C   0  0  0  0  0  0
    4.7918   26.5821    7.3350 N   0  0  0  0  0  0
   -2.7287   31.4331    8.5807 C   0  0  0  0  0  0
   -0.4451   32.4305    8.1881 C   0  0  0  0  0  0
   -1.6116   32.7848   10.3652 C   0  0  0  0  0  0
    5.1319   24.1525    7.2239 C   0  0  0  0  0  0
    4.0580   23.9045    8.1760 N   0  0  0  0  0  0
    0.6138   25.3201   11.9292 H   0  0  0  0  0  0
    1.1338   30.2759    8.6769 H   0  0  0  0  0  0
    3.4169   26.9621    8.8544 H   0  0  0  0  0  0
    4.7544   29.8519    7.3758 H   0  0  0  0  0  0
    4.5488   28.9526    4.9246 H   0  0  0  0  0  0
    4.9966   26.9778    3.4860 H   0  0  0  0  0  0
    5.2555   24.7407    4.5229 H   0  0  0  0  0  0
   -3.1420   32.2884    8.0630 H   0  0  0  0  0  0
   -3.4689   31.1000    9.3101 H   0  0  0  0  0  0
   -2.6439   30.6518    7.8347 H   0  0  0  0  0  0
    0.5181   32.7300    8.5944 H   0  0  0  0  0  0
   -0.2199   31.7438    7.3761 H   0  0  0  0  0  0
   -0.8915   33.3354    7.7760 H   0  0  0  0  0  0
   -0.6730   33.0643   10.8430 H   0  0  0  0  0  0
   -2.0642   33.7023    9.9854 H   0  0  0  0  0  0
   -2.2849   32.3955   11.1314 H   0  0  0  0  0  0
    5.1516   23.3491    6.4863 H   0  0  0  0  0  0
    6.0876   24.1339    7.7491 H   0  0  0  0  0  0
    4.0110   24.6785    8.8263 H   0  0  0  0  0  0
    3.1541   23.8513    7.7078 H   0  0  0  0  0  0
  1  5  1  0  0  0
  1  2  2  0  0  0
  2  3  1  0  0  0
  2 25  1  0  0  0
  3  4  2  0  0  0
  4  6  1  0  0  0
  4 10  1  0  0  0
  5  9  1  0  0  0
  5  6  2  0  0  0
  6  7  1  0  0  0
  7  8  2  0  0  0
  7 26  1  0  0  0
  8 13  1  0  0  0
  8  9  1  0  0  0
 10 11  1  0  0  0
 10 27  1  0  0  0
 11 12  2  0  0  0
 12 14  1  0  0  0
 12 28  1  0  0  0
 13 20  1  0  0  0
 13 21  1  0  0  0
 13 22  1  0  0  0
 14 15  2  0  0  0
 14 19  1  0  0  0
 15 16  1  0  0  0
 15 29  1  0  0  0
 16 17  2  0  0  0
 16 30  1  0  0  0
 17 18  1  0  0  0
 17 31  1  0  0  0
 18 19  2  0  0  0
 18 23  1  0  0  0
 20 32  1  0  0  0
 20 33  1  0  0  0
 20 34  1  0  0  0
 21 35  1  0  0  0
 21 36  1  0  0  0
 21 37  1  0  0  0
 22 38  1  0  0  0
 22 39  1  0  0  0
 22 40  1  0  0  0
 23 24  1  0  0  0
 23 41  1  0  0  0
 23 42  1  0  0  0
 24 43  1  0  0  0
 24 44  1  0  0  0
M  END
> <s_m_entry_id>
33106

> <s_m_entry_name>
dock_pv.507

> <s_m_Source_Path>
/home/csk/Desktop/cluster/DUD-E-result/cdk2

> <s_m_Source_File>
dock_pv.maegz

> <i_m_Source_File_Index>
507

> <chembl_id>
CHEMBL450370

> <chembl_pref_name>
None

> <i_lp_mmshare_version>
53161

> <i_f3d_flags>
0

> <r_lp_tautomer_probability>
1

> <s_lp_Force_Field>
OPLS_2005

> <r_lp_Energy>
11.44551

> <b_lp_Chiralities_Consistent>
1

> <s_lp_Variant>
CHEMBL301_lig854-1

> <s_i_glide_gridfile>
glide-grid_1h00

> <i_i_glide_lignum>
1212

> <i_i_glide_rotatable_bonds>
5

> <r_i_docking_score>
-7.02084466952671

> <r_i_glide_ligand_efficiency>
-0.292535194563613

> <r_i_glide_ligand_efficiency_sa>
-0.843817516424431

> <r_i_glide_ligand_efficiency_ln>
-1.68041029498704

> <r_i_glide_gscore>
-7.02084466952671

> <r_i_glide_lipo>
-2.74954286798157

> <r_i_glide_hbond>
-0.32

> <r_i_glide_metal>
0

> <r_i_glide_rewards>
-1.75930207083747

> <r_i_glide_evdw>
-38.8138732910156

> <r_i_glide_ecoul>
-4.94315624237061

> <r_i_glide_erotb>
0.490167370198699

> <r_i_glide_esite>
0

> <r_i_glide_emodel>
-57.5000625018778

> <r_i_glide_energy>
-43.7570295333862

> <r_i_glide_einternal>
5.51054239273071

> <i_i_glide_confnum>
2

> <i_i_glide_posenum>
216

> <r_i_glide_eff_state_penalty>
0

> <s_user_duplicate_titles>
CHEMBL301_lig854

> <s_m_subgroup_title>
dock_pv

> <s_m_subgroupid>
dock_pv

> <b_m_subgroup_collapsed>
1

$$$$
CHEMBL301_lig566
                    3D
 Schrodinger Suite 2021-1.
 38 41  0  0  1  0            999 V2000
   -1.1853   27.8178   12.8344 N   0  0  0  0  0  0
   -1.1354   28.8545   12.0258 C   0  0  0  0  0  0
   -0.2628   28.7041   10.9410 C   0  0  0  0  0  0
   -0.3620   26.9000   12.2911 N   0  0  0  0  0  0
    0.2516   27.3859   11.1222 C   0  0  0  0  0  0
    1.1369   26.4989   10.4808 C   0  0  0  0  0  0
    1.3157   25.2228   11.0169 C   0  0  0  0  0  0
    0.6295   24.8625   12.1758 C   0  0  0  0  0  0
   -0.2158   25.6835   12.8501 N   0  0  0  0  0  0
    0.0323   29.6784    9.8470 C   0  0  0  0  0  0
   -0.7463   30.8211    9.6330 C   0  0  0  0  0  0
   -0.3707   31.6546    8.5758 C   0  0  0  0  0  0
    0.6945   31.3842    7.7760 N   0  0  0  0  0  0
    1.3915   30.2520    8.0472 C   0  0  0  0  0  0
    1.0964   29.3845    9.0509 N   0  0  0  0  0  0
    2.4578   29.9865    7.1774 N   0  0  0  0  0  0
    3.4109   28.9599    7.1187 C   0  0  0  0  0  0
    3.9520   28.6521    5.8692 C   0  0  0  0  0  0
    4.9175   27.6646    5.7365 C   0  0  0  0  0  0
    5.3645   26.9687    6.8647 C   0  0  0  0  0  0
    4.7942   27.2481    8.1080 C   0  0  0  0  0  0
    3.8374   28.2500    8.2429 C   0  0  0  0  0  0
    6.4654   25.9491    6.7650 C   0  0  0  0  0  0
    7.4711   26.2519    5.9457 N   0  0  0  0  0  0
    6.4607   24.9155    7.4301 O   0  0  0  0  0  0
   -1.7366   29.7301   12.2338 H   0  0  0  0  0  0
    1.6601   26.7879    9.5809 H   0  0  0  0  0  0
    1.9801   24.5239   10.5308 H   0  0  0  0  0  0
    0.7625   23.8773   12.5970 H   0  0  0  0  0  0
   -1.5971   31.0561   10.2535 H   0  0  0  0  0  0
   -0.9192   32.5593    8.3589 H   0  0  0  0  0  0
    2.5801   30.6843    6.4605 H   0  0  0  0  0  0
    3.6502   29.2018    4.9916 H   0  0  0  0  0  0
    5.3353   27.4665    4.7595 H   0  0  0  0  0  0
    5.1179   26.7041    8.9758 H   0  0  0  0  0  0
    3.4527   28.4711    9.2262 H   0  0  0  0  0  0
    8.2276   25.5966    5.8286 H   0  0  0  0  0  0
    7.5584   27.1983    5.5820 H   0  0  0  0  0  0
  1  4  1  0  0  0
  1  2  2  0  0  0
  2  3  1  0  0  0
  2 26  1  0  0  0
  3  5  2  0  0  0
  3 10  1  0  0  0
  4  5  1  0  0  0
  4  9  1  0  0  0
  5  6  1  0  0  0
  6  7  2  0  0  0
  6 27  1  0  0  0
  7  8  1  0  0  0
  7 28  1  0  0  0
  8  9  2  0  0  0
  8 29  1  0  0  0
 10 15  1  0  0  0
 10 11  2  0  0  0
 11 12  1  0  0  0
 11 30  1  0  0  0
 12 13  2  0  0  0
 12 31  1  0  0  0
 13 14  1  0  0  0
 14 15  2  0  0  0
 14 16  1  0  0  0
 16 17  1  0  0  0
 16 32  1  0  0  0
 17 18  2  0  0  0
 17 22  1  0  0  0
 18 19  1  0  0  0
 18 33  1  0  0  0
 19 20  2  0  0  0
 19 34  1  0  0  0
 20 21  1  0  0  0
 20 23  1  0  0  0
 21 22  2  0  0  0
 21 35  1  0  0  0
 22 36  1  0  0  0
 23 24  1  0  0  0
 23 25  2  0  0  0
 24 37  1  0  0  0
 24 38  1  0  0  0
M  END
> <s_m_entry_id>
33107

> <s_m_entry_name>
dock_pv.508

> <s_m_Source_Path>
/home/csk/Desktop/cluster/DUD-E-result/cdk2

> <s_m_Source_File>
dock_pv.maegz

> <i_m_Source_File_Index>
508

> <chembl_id>
CHEMBL523735

> <chembl_pref_name>
None

> <i_lp_mmshare_version>
53161

> <i_f3d_flags>
0

> <r_lp_tautomer_probability>
0.999999987636

> <s_lp_Force_Field>
OPLS_2005

> <r_lp_Energy>
17.169275

> <b_lp_Chiralities_Consistent>
1

> <s_lp_Variant>
CHEMBL301_lig566-1

> <s_i_glide_gridfile>
glide-grid_1h00

> <i_i_glide_lignum>
796

> <i_i_glide_rotatable_bonds>
4

> <r_i_docking_score>
-7.01807981496384

> <r_i_glide_ligand_efficiency>
-0.280723192598554

> <r_i_glide_ligand_efficiency_sa>
-0.820839593805191

> <r_i_glide_ligand_efficiency_ln>
-1.66349523102712

> <r_i_glide_gscore>
-7.01807981496384

> <r_i_glide_lipo>
-2.26107029119862

> <r_i_glide_hbond>
-0.356839914545045

> <r_i_glide_metal>
0

> <r_i_glide_rewards>
-1.86380009437347

> <r_i_glide_evdw>
-38.9818687438965

> <r_i_glide_ecoul>
-6.97246551513672

> <r_i_glide_erotb>
0.514296563229093

> <r_i_glide_esite>
-0.0557028136104641

> <r_i_glide_emodel>
-64.3565300086078

> <r_i_glide_energy>
-45.9543342590332

> <r_i_glide_einternal>
2.32913517951965

> <i_i_glide_confnum>
4

> <i_i_glide_posenum>
74

> <r_i_glide_eff_state_penalty>
0

> <s_user_duplicate_titles>
CHEMBL301_lig566,494138

> <s_m_subgroup_title>
dock_pv

> <s_m_subgroupid>
dock_pv

> <b_m_subgroup_collapsed>
1

$$$$
CHEMBL301_lig1389
                    3D
 Schrodinger Suite 2021-1.
 50 51  0  0  1  0            999 V2000
    1.9052   27.2134   10.6721 C   0  0  0  0  0  0
    0.3780   27.5043   10.6833 C   0  0  2  0  0  0
    0.0586   28.9394   10.5689 N   0  0  0  0  0  0
    0.3888   29.7644    9.4801 C   0  0  0  0  0  0
    1.4450   29.4417    8.6951 N   0  0  0  0  0  0
    1.7479   30.2521    7.6561 C   0  0  0  0  0  0
    2.7377   29.8520    6.7509 N   0  0  0  0  0  0
    3.6920   28.8269    6.8218 C   0  0  0  0  0  0
    4.3217   28.5125    8.0188 C   0  0  0  0  0  0
    5.2992   27.5284    8.0486 C   0  0  0  0  0  0
    5.6845   26.8355    6.8993 C   0  0  0  0  0  0
    5.0484   27.1473    5.6807 C   0  0  0  0  0  0
    5.3564   26.4419    4.3685 C   0  0  0  0  0  0
    4.0787   28.1568    5.6584 C   0  0  0  0  0  0
    7.0128   25.6202    7.1068 S   0  0  2  0  0  0
    6.3454   24.2964    6.7382 N   0  0  0  0  0  0
    7.6578   25.8521    8.4027 O   0  0  0  0  0  0
    8.3027   25.8485    5.7522 C   0  0  0  0  0  0
    1.1107   31.4141    7.3760 N   0  0  0  0  0  0
    0.0580   31.7344    8.1760 C   0  0  0  0  0  0
   -0.3680   30.9160    9.2241 C   0  0  0  0  0  0
   -1.8789   31.4160   10.2772 Br  0  0  0  0  0  0
   -0.3810   26.8338   11.8846 C   0  0  0  0  0  0
   -1.9067   27.0716   11.8291 C   0  0  0  0  0  0
   -0.1258   25.3141   12.0048 C   0  0  0  0  0  0
    0.0580   27.4159   13.0949 O   0  0  0  0  0  0
    2.1471   26.1847   10.9245 H   0  0  0  0  0  0
    2.3478   27.3555    9.6902 H   0  0  0  0  0  0
    2.4429   27.8519   11.3710 H   0  0  0  0  0  0
   -0.0203   27.0460    9.7762 H   0  0  0  0  0  0
   -0.7291   29.2474   11.1215 H   0  0  0  0  0  0
    2.9959   30.5743    6.0924 H   0  0  0  0  0  0
    4.0766   29.0465    8.9225 H   0  0  0  0  0  0
    5.7966   27.3348    8.9759 H   0  0  0  0  0  0
    6.2013   26.9148    3.8675 H   0  0  0  0  0  0
    5.5679   25.3845    4.5141 H   0  0  0  0  0  0
    4.5009   26.4717    3.6922 H   0  0  0  0  0  0
    3.6380   28.4153    4.7139 H   0  0  0  0  0  0
    7.0071   23.5384    6.6721 H   0  0  0  0  0  0
    7.8718   25.6695    4.7728 H   0  0  0  0  0  0
    8.7102   26.8557    5.8170 H   0  0  0  0  0  0
    9.1059   25.1349    5.9260 H   0  0  0  0  0  0
   -0.4366   32.6726    7.9714 H   0  0  0  0  0  0
   -2.3422   26.6053   10.9479 H   0  0  0  0  0  0
   -2.1650   28.1314   11.8108 H   0  0  0  0  0  0
   -2.4129   26.6484   12.6976 H   0  0  0  0  0  0
   -0.3222   24.8057   11.0605 H   0  0  0  0  0  0
    0.8961   25.0788   12.3012 H   0  0  0  0  0  0
   -0.7699   24.8609   12.7597 H   0  0  0  0  0  0
    1.0267   27.4516   13.0914 H   0  0  0  0  0  0
  1  2  1  0  0  0
  1 27  1  0  0  0
  1 28  1  0  0  0
  1 29  1  0  0  0
  2  3  1  0  0  0
  2 23  1  0  0  0
  2 30  1  0  0  0
  3  4  1  0  0  0
  3 31  1  0  0  0
  4  5  2  0  0  0
  4 21  1  0  0  0
  5  6  1  0  0  0
  6  7  1  0  0  0
  6 19  2  0  0  0
  7  8  1  0  0  0
  7 32  1  0  0  0
  8  9  2  0  0  0
  8 14  1  0  0  0
  9 10  1  0  0  0
  9 33  1  0  0  0
 10 11  2  0  0  0
 10 34  1  0  0  0
 11 12  1  0  0  0
 11 15  1  0  0  0
 12 13  1  0  0  0
 12 14  2  0  0  0
 13 35  1  0  0  0
 13 36  1  0  0  0
 13 37  1  0  0  0
 14 38  1  0  0  0
 15 16  2  0  0  0
 15 17  2  0  0  0
 15 18  1  0  0  0
 16 39  1  0  0  0
 18 40  1  0  0  0
 18 41  1  0  0  0
 18 42  1  0  0  0
 19 20  1  0  0  0
 20 21  2  0  0  0
 20 43  1  0  0  0
 21 22  1  0  0  0
 23 24  1  0  0  0
 23 25  1  0  0  0
 23 26  1  0  0  0
 24 44  1  0  0  0
 24 45  1  0  0  0
 24 46  1  0  0  0
 25 47  1  0  0  0
 25 48  1  0  0  0
 25 49  1  0  0  0
 26 50  1  0  0  0
M  END
> <s_m_entry_id>
33108

> <s_m_entry_name>
dock_pv.509

> <s_m_Source_Path>
/home/csk/Desktop/cluster/DUD-E-result/cdk2

> <s_m_Source_File>
dock_pv.maegz

> <i_m_Source_File_Index>
509

> <chembl_id>
CHEMBL3648125

> <chembl_pref_name>
None

> <i_lp_mmshare_version>
53161

> <i_f3d_flags>
0

> <r_lp_tautomer_probability>
0.999999624730965

> <s_lp_Force_Field>
OPLS_2005

> <r_lp_Energy>
11.582807

> <b_lp_Chiralities_Consistent>
1

> <s_lp_Variant>
CHEMBL301_lig1389-1

> <s_i_glide_gridfile>
glide-grid_1h00

> <i_i_glide_lignum>
1876

> <i_i_glide_rotatable_bonds>
7

> <r_i_docking_score>
-7.01238886717913

> <r_i_glide_ligand_efficiency>
-0.269707264122274

> <r_i_glide_ligand_efficiency_sa>
-0.799006708715399

> <r_i_glide_ligand_efficiency_ln>
-1.6468365159324

> <r_i_glide_gscore>
-7.01238886717913

> <r_i_glide_lipo>
-2.59526163991909

> <r_i_glide_hbond>
-0.476193229203976

> <r_i_glide_metal>
0

> <r_i_glide_rewards>
-1.09920094998866

> <r_i_glide_evdw>
-35.7731437683105

> <r_i_glide_ecoul>
-10.3991136550903

> <r_i_glide_erotb>
0.510559401450253

> <r_i_glide_esite>
-0.00376821283859094

> <r_i_glide_emodel>
-63.4685992206284

> <r_i_glide_energy>
-46.1722574234009

> <r_i_glide_einternal>
3.32757639884949

> <i_i_glide_confnum>
12

> <i_i_glide_posenum>
377

> <r_i_glide_eff_state_penalty>
0

> <s_user_duplicate_titles>
CHEMBL301_lig1389

> <s_m_subgroup_title>
dock_pv

> <s_m_subgroupid>
dock_pv

> <b_m_subgroup_collapsed>
1

$$$$
CHEMBL301_lig1384
                    3D
 Schrodinger Suite 2021-1.
 51 52  0  0  1  0            999 V2000
   -0.2698   27.2394    9.9839 C   0  0  0  0  0  0
   -0.4513   28.4816   10.8827 C   0  0  1  0  0  0
   -1.1488   29.5671   10.1774 N   0  0  0  0  0  0
   -0.4897   30.4060    9.2596 C   0  0  0  0  0  0
    0.5909   29.9347    8.5856 N   0  0  0  0  0  0
    1.2351   30.7855    7.7501 C   0  0  0  0  0  0
    2.3820   30.3517    7.0782 N   0  0  0  0  0  0
    3.1400   29.1787    7.1833 C   0  0  0  0  0  0
    3.7478   28.6983    6.0226 C   0  0  0  0  0  0
    4.4581   27.5099    6.0402 C   0  0  0  0  0  0
    4.5315   26.7771    7.2270 C   0  0  0  0  0  0
    3.9846   27.2849    8.4087 C   0  0  0  0  0  0
    3.2940   28.4924    8.3886 C   0  0  0  0  0  0
    5.3165   25.1760    7.2726 S   0  0  2  0  0  0
    5.5636   24.8208    5.8046 N   0  0  0  0  0  0
    4.5265   24.3327    8.1763 O   0  0  0  0  0  0
    7.0177   25.5810    8.0203 C   0  0  0  0  0  0
    8.2412   25.1836    7.1749 C   0  0  0  0  0  0
    8.2759   25.8523    5.9344 O   0  0  0  0  0  0
    0.8617   32.0643    7.5029 N   0  0  0  0  0  0
   -0.2168   32.5241    8.1858 C   0  0  0  0  0  0
   -0.9292   31.7278    9.0876 C   0  0  0  0  0  0
   -2.3949   32.4639   10.0650 Br  0  0  0  0  0  0
   -1.1022   28.1499   12.2663 C   0  0  0  0  0  0
   -1.0994   29.3765   13.2021 C   0  0  0  0  0  0
   -2.5227   27.5651   12.1304 C   0  0  0  0  0  0
   -0.3354   27.1650   12.9362 O   0  0  0  0  0  0
    0.1447   26.3897   10.5249 H   0  0  0  0  0  0
   -1.2100   26.9205    9.5315 H   0  0  0  0  0  0
    0.4243   27.4537    9.1781 H   0  0  0  0  0  0
    0.5534   28.8493   11.0954 H   0  0  0  0  0  0
   -1.9146   29.9908   10.6816 H   0  0  0  0  0  0
    2.8085   31.0512    6.4884 H   0  0  0  0  0  0
    3.6610   29.2492    5.0990 H   0  0  0  0  0  0
    4.9038   27.1509    5.1237 H   0  0  0  0  0  0
    4.0574   26.7338    9.3372 H   0  0  0  0  0  0
    2.8567   28.8631    9.3029 H   0  0  0  0  0  0
    6.3571   24.2099    5.6794 H   0  0  0  0  0  0
    7.0219   26.6517    8.2127 H   0  0  0  0  0  0
    7.0378   25.1078    8.9998 H   0  0  0  0  0  0
    9.1630   25.3889    7.7224 H   0  0  0  0  0  0
    8.2235   24.1108    6.9732 H   0  0  0  0  0  0
    8.2413   26.8057    6.0648 H   0  0  0  0  0  0
   -0.4964   33.5558    8.0144 H   0  0  0  0  0  0
   -1.6616   30.2070   12.7753 H   0  0  0  0  0  0
   -0.0875   29.7427   13.3756 H   0  0  0  0  0  0
   -1.5416   29.1522   14.1739 H   0  0  0  0  0  0
   -3.2266   28.3112   11.7587 H   0  0  0  0  0  0
   -2.5536   26.7100   11.4547 H   0  0  0  0  0  0
   -2.9012   27.2100   13.0891 H   0  0  0  0  0  0
    0.5834   27.4550   12.9806 H   0  0  0  0  0  0
  1  2  1  0  0  0
  1 28  1  0  0  0
  1 29  1  0  0  0
  1 30  1  0  0  0
  2  3  1  0  0  0
  2 24  1  0  0  0
  2 31  1  0  0  0
  3  4  1  0  0  0
  3 32  1  0  0  0
  4  5  2  0  0  0
  4 22  1  0  0  0
  5  6  1  0  0  0
  6  7  1  0  0  0
  6 20  2  0  0  0
  7  8  1  0  0  0
  7 33  1  0  0  0
  8  9  2  0  0  0
  8 13  1  0  0  0
  9 10  1  0  0  0
  9 34  1  0  0  0
 10 11  2  0  0  0
 10 35  1  0  0  0
 11 12  1  0  0  0
 11 14  1  0  0  0
 12 13  2  0  0  0
 12 36  1  0  0  0
 13 37  1  0  0  0
 14 15  2  0  0  0
 14 16  2  0  0  0
 14 17  1  0  0  0
 15 38  1  0  0  0
 17 18  1  0  0  0
 17 39  1  0  0  0
 17 40  1  0  0  0
 18 19  1  0  0  0
 18 41  1  0  0  0
 18 42  1  0  0  0
 19 43  1  0  0  0
 20 21  1  0  0  0
 21 22  2  0  0  0
 21 44  1  0  0  0
 22 23  1  0  0  0
 24 25  1  0  0  0
 24 26  1  0  0  0
 24 27  1  0  0  0
 25 45  1  0  0  0
 25 46  1  0  0  0
 25 47  1  0  0  0
 26 48  1  0  0  0
 26 49  1  0  0  0
 26 50  1  0  0  0
 27 51  1  0  0  0
M  END
> <s_m_entry_id>
33109

> <s_m_entry_name>
dock_pv.510

> <s_m_Source_Path>
/home/csk/Desktop/cluster/DUD-E-result/cdk2

> <s_m_Source_File>
dock_pv.maegz

> <i_m_Source_File_Index>
510

> <chembl_id>
CHEMBL3648107

> <chembl_pref_name>
None

> <i_lp_mmshare_version>
53161

> <i_f3d_flags>
0

> <r_lp_tautomer_probability>
0.999999624730965

> <s_lp_Force_Field>
OPLS_2005

> <r_lp_Energy>
13.322419

> <b_lp_Chiralities_Consistent>
1

> <s_lp_Variant>
CHEMBL301_lig1384-1

> <s_i_glide_gridfile>
glide-grid_1h00

> <i_i_glide_lignum>
1866

> <i_i_glide_rotatable_bonds>
10

> <r_i_docking_score>
-7.01191237257062

> <r_i_glide_ligand_efficiency>
-0.259700458243356

> <r_i_glide_ligand_efficiency_sa>
-0.779101373874139

> <r_i_glide_ligand_efficiency_ln>
-1.63225759992432

> <r_i_glide_gscore>
-7.01191237257062

> <r_i_glide_lipo>
-2.95663362185047

> <r_i_glide_hbond>
-0.61702363519259

> <r_i_glide_metal>
0

> <r_i_glide_rewards>
-1.26332621709143

> <r_i_glide_evdw>
-40.0321273803711

> <r_i_glide_ecoul>
-6.26076126098633

> <r_i_glide_erotb>
0.765791659730373

> <r_i_glide_esite>
0

> <r_i_glide_emodel>
-64.0177371937886

> <r_i_glide_energy>
-46.2928886413574

> <r_i_glide_einternal>
7.46086025238037

> <i_i_glide_confnum>
35

> <i_i_glide_posenum>
3

> <r_i_glide_eff_state_penalty>
0

> <s_user_duplicate_titles>
CHEMBL301_lig1384

> <s_m_subgroup_title>
dock_pv

> <s_m_subgroupid>
dock_pv

> <b_m_subgroup_collapsed>
1

$$$$
CHEMBL301_lig189
                    3D
 Schrodinger Suite 2021-1.
 41 45  0  0  1  0            999 V2000
    1.0889   29.7709    8.7544 C   0  0  0  0  0  0
    0.9326   30.9518    7.8267 C   0  0  0  0  0  0
   -0.0872   29.6813    9.4736 C   0  0  0  0  0  0
    2.0835   28.7991    8.9760 C   0  0  0  0  0  0
   -0.2551   31.4886    8.1786 N   0  0  0  0  0  0
   -0.9206   30.7144    9.1133 C   0  0  0  0  0  0
    0.5999   27.6684   10.5761 C   0  0  0  0  0  0
   -0.4235   28.6559   10.3856 C   0  0  0  0  0  0
    1.8338   27.7993    9.9322 C   0  0  0  0  0  0
    3.3213   28.6076    8.1519 C   0  0  0  0  0  0
    0.1886   26.2059   11.5159 S   0  0  0  0  0  0
    4.4072   27.8681    8.5758 N   0  0  0  0  0  0
    1.6917   31.4037    6.9743 O   0  0  0  0  0  0
   -1.7378   28.7491   10.9519 C   0  0  0  0  0  0
   -2.1893   30.7955    9.6720 C   0  0  0  0  0  0
    3.5987   28.9247    6.8231 C   0  0  0  0  0  0
    2.2246   23.0966   10.1756 N   0  0  2  0  0  0
    5.2849   27.6594    7.5501 C   0  0  0  0  0  0
    4.7992   28.3212    6.4442 C   0  0  0  0  0  0
   -2.5866   29.8048   10.5747 C   0  0  0  0  0  0
    1.5879   25.0153   11.5156 C   0  0  1  0  0  0
   -2.2036   27.8348   11.8324 F   0  0  0  0  0  0
    1.2515   23.6981   12.2229 C   0  0  0  0  0  0
    1.2240   22.6446   11.1226 C   0  0  0  0  0  0
    2.0125   24.5362   10.1155 C   0  0  0  0  0  0
   -0.6142   32.3366    7.7678 H   0  0  0  0  0  0
    2.5839   27.0531   10.1157 H   0  0  0  0  0  0
    4.5116   27.4705    9.5014 H   0  0  0  0  0  0
   -2.8720   31.5910    9.4111 H   0  0  0  0  0  0
    2.9654   29.4859    6.1541 H   0  0  0  0  0  0
    2.0503   22.7117    9.2518 H   0  0  0  0  0  0
    6.1705   27.0588    7.6973 H   0  0  0  0  0  0
    5.2577   28.3649    5.4665 H   0  0  0  0  0  0
   -3.5799   29.8544   10.9906 H   0  0  0  0  0  0
    2.4297   25.5059   12.0064 H   0  0  0  0  0  0
    1.9949   23.4431   12.9774 H   0  0  0  0  0  0
    0.2915   23.7331   12.7384 H   0  0  0  0  0  0
    1.4999   21.6590   11.5013 H   0  0  0  0  0  0
    0.2374   22.5687   10.6645 H   0  0  0  0  0  0
    1.2457   24.7664    9.3749 H   0  0  0  0  0  0
    2.9410   25.0029    9.7858 H   0  0  0  0  0  0
  1  2  1  0  0  0
  1  3  1  0  0  0
  1  4  2  0  0  0
  2  5  1  0  0  0
  2 13  2  0  0  0
  3  6  1  0  0  0
  3  8  2  0  0  0
  4  9  1  0  0  0
  4 10  1  0  0  0
  5  6  1  0  0  0
  5 26  1  0  0  0
  6 15  2  0  0  0
  7  9  2  0  0  0
  7 11  1  0  0  0
  7  8  1  0  0  0
  8 14  1  0  0  0
  9 27  1  0  0  0
 10 12  1  0  0  0
 10 16  2  0  0  0
 11 21  1  0  0  0
 12 18  1  0  0  0
 12 28  1  0  0  0
 14 20  2  0  0  0
 14 22  1  0  0  0
 15 20  1  0  0  0
 15 29  1  0  0  0
 16 19  1  0  0  0
 16 30  1  0  0  0
 17 25  1  0  0  0
 17 24  1  0  0  0
 17 31  1  0  0  0
 18 19  2  0  0  0
 18 32  1  0  0  0
 19 33  1  0  0  0
 20 34  1  0  0  0
 21 23  1  0  0  0
 21 25  1  0  0  0
 21 35  1  0  0  0
 23 24  1  0  0  0
 23 36  1  0  0  0
 23 37  1  0  0  0
 24 38  1  0  0  0
 24 39  1  0  0  0
 25 40  1  0  0  0
 25 41  1  0  0  0
M  END
> <s_m_entry_id>
33110

> <s_m_entry_name>
dock_pv.511

> <s_m_Source_Path>
/home/csk/Desktop/cluster/DUD-E-result/cdk2

> <s_m_Source_File>
dock_pv.maegz

> <i_m_Source_File_Index>
511

> <chembl_id>
CHEMBL79498

> <chembl_pref_name>
None

> <i_lp_mmshare_version>
53161

> <i_f3d_flags>
0

> <r_lp_tautomer_probability>
1

> <s_lp_Force_Field>
OPLS_2005

> <r_lp_Energy>
72.121949

> <b_lp_Chiralities_Consistent>
1

> <s_lp_Variant>
CHEMBL301_lig189-1

> <s_i_glide_gridfile>
glide-grid_1h00

> <i_i_glide_lignum>
330

> <i_i_glide_rotatable_bonds>
3

> <r_i_docking_score>
-7.01146005000835

> <r_i_glide_ligand_efficiency>
-0.280458402000334

> <r_i_glide_ligand_efficiency_sa>
-0.820065341399916

> <r_i_glide_ligand_efficiency_ln>
-1.66192614835432

> <r_i_glide_gscore>
-7.01146005000835

> <r_i_glide_lipo>
-3.04458169806098

> <r_i_glide_hbond>
-0.118679571672729

> <r_i_glide_metal>
0

> <r_i_glide_rewards>
-1.57248925515173

> <r_i_glide_evdw>
-40.0564575195312

> <r_i_glide_ecoul>
-4.7623724937439

> <r_i_glide_erotb>
0.458678234921904

> <r_i_glide_esite>
-0.0172090100066717

> <r_i_glide_emodel>
-61.5944443463227

> <r_i_glide_energy>
-44.8188300132751

> <r_i_glide_einternal>
3.17107081413269

> <i_i_glide_confnum>
17

> <i_i_glide_posenum>
181

> <r_i_glide_eff_state_penalty>
0

> <s_user_duplicate_titles>
CHEMBL301_lig189,131439

> <s_m_subgroup_title>
dock_pv

> <s_m_subgroupid>
dock_pv

> <b_m_subgroup_collapsed>
1

$$$$
CHEMBL301_lig1093
                    3D
 Schrodinger Suite 2021-1.
 51 54  0  0  1  0            999 V2000
   -0.7765   31.2146    9.3712 C   0  0  0  0  0  0
   -0.3420   32.1523    8.4314 C   0  0  0  0  0  0
    0.7210   31.9878    7.6028 N   0  0  0  0  0  0
   -0.0539   30.0210    9.5582 C   0  0  0  0  0  0
   -0.5377   29.0978   10.5010 N   0  0  0  0  0  0
    0.1547   27.8672   10.8590 C   0  0  0  0  0  0
    1.1059   29.8520    8.7567 C   0  0  0  0  0  0
    1.3699   30.8404    7.7760 C   0  0  0  0  0  0
    2.4580   30.3792    7.0940 N   0  0  0  0  0  0
    2.8580   29.2120    7.6973 C   0  0  0  0  0  0
    2.1066   28.9053    8.7345 N   0  0  0  0  0  0
    3.9309   28.3436    7.1312 C   0  0  0  0  0  0
    4.7415   27.5442    7.9426 C   0  0  0  0  0  0
    5.6622   26.6685    7.3656 C   0  0  0  0  0  0
    5.7662   26.5690    5.9795 C   0  0  0  0  0  0
    4.9644   27.3630    5.1635 C   0  0  0  0  0  0
    4.0601   28.2520    5.7383 C   0  0  0  0  0  0
   -2.3420   31.6208   10.3867 Br  0  0  0  0  0  0
   -0.6761   27.0059   11.8267 C   0  0  0  0  0  0
   -0.8182   27.6081   13.2404 C   0  0  0  0  0  0
   -1.9320   27.0519   14.0054 N   0  0  0  0  0  0
   -1.9662   25.8321   14.5617 C   0  0  0  0  0  0
   -3.2684   25.4520   15.2901 C   0  0  0  0  0  0
   -0.9982   25.0707   14.5760 O   0  0  0  0  0  0
   -4.5503   25.6571   14.4583 C   0  0  0  0  0  0
   -5.0552   24.3417   15.0782 C   0  0  0  0  0  0
   -3.5820   23.9423   15.2694 C   0  0  0  0  0  0
    6.4750   25.8867    8.1760 N   0  0  0  0  0  0
   -0.8851   33.0785    8.3045 H   0  0  0  0  0  0
   -1.1909   29.4704   11.1763 H   0  0  0  0  0  0
    1.1075   28.1372   11.3193 H   0  0  0  0  0  0
    0.4120   27.2994    9.9638 H   0  0  0  0  0  0
    2.9755   30.8035    6.3331 H   0  0  0  0  0  0
    4.6452   27.5950    9.0180 H   0  0  0  0  0  0
    6.4769   25.8922    5.5288 H   0  0  0  0  0  0
    5.0495   27.2912    4.0891 H   0  0  0  0  0  0
    3.4353   28.8460    5.0897 H   0  0  0  0  0  0
   -0.2217   26.0178   11.9077 H   0  0  0  0  0  0
   -1.6644   26.8388   11.3938 H   0  0  0  0  0  0
   -1.0116   28.6792   13.1659 H   0  0  0  0  0  0
    0.1285   27.5294   13.7760 H   0  0  0  0  0  0
   -2.7342   27.6680   14.1293 H   0  0  0  0  0  0
   -3.3113   25.8924   16.2881 H   0  0  0  0  0  0
   -4.4152   25.5767   13.3760 H   0  0  0  0  0  0
   -5.1245   26.5555   14.6892 H   0  0  0  0  0  0
   -5.6278   23.6950   14.4129 H   0  0  0  0  0  0
   -5.5981   24.4751   16.0164 H   0  0  0  0  0  0
   -3.3481   23.3850   16.1758 H   0  0  0  0  0  0
   -3.1907   23.4019   14.4025 H   0  0  0  0  0  0
    6.9947   25.1366    7.7468 H   0  0  0  0  0  0
    6.2215   25.8520    9.1638 H   0  0  0  0  0  0
  1  2  2  0  0  0
  1 18  1  0  0  0
  1  4  1  0  0  0
  2  3  1  0  0  0
  2 29  1  0  0  0
  3  8  2  0  0  0
  4  7  2  0  0  0
  4  5  1  0  0  0
  5  6  1  0  0  0
  5 30  1  0  0  0
  6 19  1  0  0  0
  6 31  1  0  0  0
  6 32  1  0  0  0
  7  8  1  0  0  0
  7 11  1  0  0  0
  8  9  1  0  0  0
  9 10  1  0  0  0
  9 33  1  0  0  0
 10 11  2  0  0  0
 10 12  1  0  0  0
 12 17  1  0  0  0
 12 13  2  0  0  0
 13 14  1  0  0  0
 13 34  1  0  0  0
 14 15  2  0  0  0
 14 28  1  0  0  0
 15 16  1  0  0  0
 15 35  1  0  0  0
 16 17  2  0  0  0
 16 36  1  0  0  0
 17 37  1  0  0  0
 19 20  1  0  0  0
 19 38  1  0  0  0
 19 39  1  0  0  0
 20 21  1  0  0  0
 20 40  1  0  0  0
 20 41  1  0  0  0
 21 22  1  0  0  0
 21 42  1  0  0  0
 22 23  1  0  0  0
 22 24  2  0  0  0
 23 25  1  0  0  0
 23 27  1  0  0  0
 23 43  1  0  0  0
 25 26  1  0  0  0
 25 44  1  0  0  0
 25 45  1  0  0  0
 26 27  1  0  0  0
 26 46  1  0  0  0
 26 47  1  0  0  0
 27 48  1  0  0  0
 27 49  1  0  0  0
 28 50  1  0  0  0
 28 51  1  0  0  0
M  END
> <s_m_entry_id>
33111

> <s_m_entry_name>
dock_pv.512

> <s_m_Source_Path>
/home/csk/Desktop/cluster/DUD-E-result/cdk2

> <s_m_Source_File>
dock_pv.maegz

> <i_m_Source_File_Index>
512

> <chembl_id>
CHEMBL2011940

> <chembl_pref_name>
None

> <i_lp_mmshare_version>
53161

> <i_f3d_flags>
0

> <r_lp_tautomer_probability>
1

> <s_lp_Force_Field>
OPLS_2005

> <r_lp_Energy>
27.545163

> <b_lp_Chiralities_Consistent>
1

> <s_lp_Variant>
CHEMBL301_lig1093-1

> <s_i_glide_gridfile>
glide-grid_1h00

> <i_i_glide_lignum>
1497

> <i_i_glide_rotatable_bonds>
8

> <r_i_docking_score>
-7.00795335803733

> <r_i_glide_ligand_efficiency>
-0.250284048501333

> <r_i_glide_ligand_efficiency_sa>
-0.760009780671373

> <r_i_glide_ligand_efficiency_ln>
-1.61764139748654

> <r_i_glide_gscore>
-7.00795335803733

> <r_i_glide_lipo>
-2.41113160091088

> <r_i_glide_hbond>
-0.513668589114074

> <r_i_glide_metal>
0

> <r_i_glide_rewards>
-1.43628866721006

> <r_i_glide_evdw>
-39.2070350646973

> <r_i_glide_ecoul>
-8.6058521270752

> <r_i_glide_erotb>
0.711959251268436

> <r_i_glide_esite>
-0.107594179774609

> <r_i_glide_emodel>
-65.2104651717146

> <r_i_glide_energy>
-47.8128871917725

> <r_i_glide_einternal>
5.21900415420532

> <i_i_glide_confnum>
58

> <i_i_glide_posenum>
22

> <r_i_glide_eff_state_penalty>
0

> <s_user_duplicate_titles>
CHEMBL301_lig1093

> <s_m_subgroup_title>
dock_pv

> <s_m_subgroupid>
dock_pv

> <b_m_subgroup_collapsed>
1

$$$$
CHEMBL301_lig1475
                    3D
 Schrodinger Suite 2021-1.
 65 68  0  0  1  0            999 V2000
   -5.2562   20.8144   15.5941 C   0  0  0  0  0  0
   -4.5359   19.9254   16.6205 C   0  0  0  0  0  0
   -3.5534   20.6345   17.3757 O   0  0  0  0  0  0
   -2.2880   20.9435   16.9641 C   0  0  0  0  0  0
   -1.4835   21.4516   17.7463 O   0  0  0  0  0  0
   -2.0522   20.6565   15.6326 N   0  0  0  0  0  0
   -0.7518   21.1811   14.9854 S   0  0  1  0  0  0
    0.0576   22.3039   15.4755 O   0  0  0  0  0  0
    0.2945   19.6240   14.8773 C   0  0  0  0  0  0
   -1.3544   21.5452   13.2329 C   0  0  0  0  0  0
   -0.2709   22.0215   12.2785 C   0  0  0  0  0  0
    0.6499   21.1215   11.7385 C   0  0  0  0  0  0
    1.6158   21.5640   10.8339 C   0  0  0  0  0  0
    1.6577   22.9070   10.4538 C   0  0  0  0  0  0
    0.7350   23.8171   10.9771 C   0  0  0  0  0  0
    0.7391   25.1367   10.4898 N   0  0  0  0  0  0
    0.2805   26.3197   11.0861 C   0  0  0  0  0  0
    0.0389   26.3060   12.4222 N   0  0  0  0  0  0
   -0.3820   27.4607   12.9797 C   0  0  0  0  0  0
   -0.5566   28.6243   12.2414 C   0  0  0  0  0  0
   -0.9384   29.7615   12.8670 F   0  0  0  0  0  0
   -0.3163   28.5624   10.8558 C   0  0  0  0  0  0
    0.1212   27.4034   10.2745 N   0  0  0  0  0  0
   -0.5481   29.7539    9.9762 C   0  0  0  0  0  0
   -1.6891   30.5370   10.2210 C   0  0  0  0  0  0
   -1.8739   31.7618    9.5944 C   0  0  0  0  0  0
   -0.9366   32.2060    8.6761 C   0  0  0  0  0  0
   -1.0383   33.4518    8.1761 F   0  0  0  0  0  0
    0.1297   31.3915    8.3128 C   0  0  0  0  0  0
    0.3633   30.1738    8.9782 C   0  0  0  0  0  0
    1.5008   29.4130    8.7654 O   0  0  0  0  0  0
    2.4875   29.8105    7.8057 C   0  0  0  0  0  0
    3.4571   28.6689    7.5239 C   0  0  0  0  0  0
    4.0548   28.5836    6.2620 C   0  0  0  0  0  0
    4.8829   27.5096    5.9530 C   0  0  0  0  0  0
    5.1272   26.5305    6.9110 C   0  0  0  0  0  0
    4.5519   26.6198    8.1752 C   0  0  0  0  0  0
    3.7321   27.6984    8.4933 C   0  0  0  0  0  0
   -0.2247   23.3625   11.8923 C   0  0  0  0  0  0
   -6.0436   20.2553   15.0886 H   0  0  0  0  0  0
   -4.5740   21.1830   14.8284 H   0  0  0  0  0  0
   -5.7155   21.6754   16.0794 H   0  0  0  0  0  0
   -5.2700   19.5387   17.3279 H   0  0  0  0  0  0
   -4.0834   19.0526   16.1569 H   0  0  0  0  0  0
   -0.2443   18.8834   14.2862 H   0  0  0  0  0  0
    1.2421   19.8662   14.4017 H   0  0  0  0  0  0
    0.4594   19.2435   15.8843 H   0  0  0  0  0  0
   -1.8384   20.6499   12.8514 H   0  0  0  0  0  0
   -2.1307   22.3009   13.3445 H   0  0  0  0  0  0
    0.6058   20.0741   12.0031 H   0  0  0  0  0  0
    2.3138   20.8593   10.4059 H   0  0  0  0  0  0
    2.3812   23.2334    9.7200 H   0  0  0  0  0  0
    0.9873   25.2361    9.5163 H   0  0  0  0  0  0
   -0.5721   27.4397   14.0410 H   0  0  0  0  0  0
   -2.4171   30.2337   10.9618 H   0  0  0  0  0  0
   -2.7166   32.3857    9.8549 H   0  0  0  0  0  0
    0.8275   31.7835    7.5915 H   0  0  0  0  0  0
    2.0160   30.0983    6.8643 H   0  0  0  0  0  0
    3.0672   30.6519    8.1746 H   0  0  0  0  0  0
    3.8649   29.3402    5.5137 H   0  0  0  0  0  0
    5.3434   27.4401    4.9780 H   0  0  0  0  0  0
    5.7684   25.6952    6.6711 H   0  0  0  0  0  0
    4.7357   25.8499    8.9087 H   0  0  0  0  0  0
    3.2839   27.7549    9.4761 H   0  0  0  0  0  0
   -0.9746   24.0379   12.2732 H   0  0  0  0  0  0
  1  2  1  0  0  0
  1 40  1  0  0  0
  1 41  1  0  0  0
  1 42  1  0  0  0
  2  3  1  0  0  0
  2 43  1  0  0  0
  2 44  1  0  0  0
  3  4  1  0  0  0
  4  5  2  0  0  0
  4  6  1  0  0  0
  6  7  2  0  0  0
  7  8  2  0  0  0
  7  9  1  0  0  0
  7 10  1  0  0  0
  9 45  1  0  0  0
  9 46  1  0  0  0
  9 47  1  0  0  0
 10 11  1  0  0  0
 10 48  1  0  0  0
 10 49  1  0  0  0
 11 12  2  0  0  0
 11 39  1  0  0  0
 12 13  1  0  0  0
 12 50  1  0  0  0
 13 14  2  0  0  0
 13 51  1  0  0  0
 14 15  1  0  0  0
 14 52  1  0  0  0
 15 16  1  0  0  0
 15 39  2  0  0  0
 16 17  1  0  0  0
 16 53  1  0  0  0
 17 18  2  0  0  0
 17 23  1  0  0  0
 18 19  1  0  0  0
 19 20  2  0  0  0
 19 54  1  0  0  0
 20 21  1  0  0  0
 20 22  1  0  0  0
 22 23  2  0  0  0
 22 24  1  0  0  0
 24 25  2  0  0  0
 24 30  1  0  0  0
 25 26  1  0  0  0
 25 55  1  0  0  0
 26 27  2  0  0  0
 26 56  1  0  0  0
 27 28  1  0  0  0
 27 29  1  0  0  0
 29 30  2  0  0  0
 29 57  1  0  0  0
 30 31  1  0  0  0
 31 32  1  0  0  0
 32 33  1  0  0  0
 32 58  1  0  0  0
 32 59  1  0  0  0
 33 34  2  0  0  0
 33 38  1  0  0  0
 34 35  1  0  0  0
 34 60  1  0  0  0
 35 36  2  0  0  0
 35 61  1  0  0  0
 36 37  1  0  0  0
 36 62  1  0  0  0
 37 38  2  0  0  0
 37 63  1  0  0  0
 38 64  1  0  0  0
 39 65  1  0  0  0
M  END
> <s_m_entry_id>
33113

> <s_m_entry_name>
dock_pv.514

> <s_m_Source_Path>
/home/csk/Desktop/cluster/DUD-E-result/cdk2

> <s_m_Source_File>
dock_pv.maegz

> <i_m_Source_File_Index>
514

> <chembl_id>
CHEMBL3900262

> <chembl_pref_name>
None

> <i_lp_mmshare_version>
53161

> <i_f3d_flags>
0

> <r_lp_tautomer_probability>
0.999999987636

> <s_lp_Force_Field>
OPLS_2005

> <r_lp_Energy>
20.665498

> <b_lp_Chiralities_Consistent>
1

> <s_lp_Variant>
CHEMBL301_lig1475-1

> <s_i_glide_gridfile>
glide-grid_1h00

> <i_i_glide_lignum>
1990

> <i_i_glide_rotatable_bonds>
11

> <r_i_docking_score>
-7.00218246462251

> <r_i_glide_ligand_efficiency>
-0.179543140118526

> <r_i_glide_ligand_efficiency_sa>
-0.608868750541098

> <r_i_glide_ligand_efficiency_ln>
-1.50146668918459

> <r_i_glide_gscore>
-7.00218246462251

> <r_i_glide_lipo>
-3.54262637849251

> <r_i_glide_hbond>
-0.16

> <r_i_glide_metal>
0

> <r_i_glide_rewards>
0.33826007539955

> <r_i_glide_evdw>
-55.0849418640137

> <r_i_glide_ecoul>
-9.09244346618652

> <r_i_glide_erotb>
0.607925651160556

> <r_i_glide_esite>
-0.127628199561444

> <r_i_glide_emodel>
-81.5264172591077

> <r_i_glide_energy>
-64.1773853302002

> <r_i_glide_einternal>
9.42581272125244

> <i_i_glide_confnum>
24

> <i_i_glide_posenum>
137

> <r_i_glide_eff_state_penalty>
0

> <s_user_duplicate_titles>
CHEMBL301_lig1475

> <s_m_subgroup_title>
dock_pv

> <s_m_subgroupid>
dock_pv

> <b_m_subgroup_collapsed>
1

$$$$
CHEMBL301_lig255
                    3D
 Schrodinger Suite 2021-1.
 35 38  0  0  1  0            999 V2000
    0.4398   27.5096   10.9673 N   0  0  0  0  0  0
    1.9356   28.4807    9.3759 N   0  0  0  0  0  0
    0.7146   28.4921    9.9892 C   0  0  0  0  0  0
   -0.3419   27.6903   12.0957 C   0  0  0  0  0  0
   -0.5233   26.6173   12.8213 N   0  0  0  0  0  0
    2.1558   29.4516    8.4454 C   0  0  0  0  0  0
    0.8177   26.1728   11.0014 C   0  0  0  0  0  0
    0.1725   25.6473   12.1558 C   0  0  0  0  0  0
    3.3804   29.5119    7.7751 N   0  0  0  0  0  0
    1.2585   30.3990    8.0729 N   0  0  0  0  0  0
   -0.2743   29.4297    9.6541 C   0  0  0  0  0  0
    4.1070   28.4632    7.2025 C   0  0  0  0  0  0
    5.0055   27.6947    7.9447 C   0  0  0  0  0  0
    0.0463   30.3708    8.6775 C   0  0  0  0  0  0
    5.7894   26.7314    7.3051 C   0  0  0  0  0  0
    6.9857   25.8519    8.1758 Cl  0  0  0  0  0  0
    1.6068   25.3622   10.1748 C   0  0  0  0  0  0
    4.7466   27.2641    5.1936 C   0  0  0  0  0  0
    3.9946   28.2535    5.8251 C   0  0  0  0  0  0
    0.2935   24.2848   12.4691 C   0  0  0  0  0  0
    5.6471   26.5047    5.9382 C   0  0  0  0  0  0
    1.7092   24.0104   10.5140 C   0  0  0  0  0  0
    1.0669   23.4790   11.6321 C   0  0  0  0  0  0
   -0.7619   28.6628   12.3125 H   0  0  0  0  0  0
    3.4796   30.3619    7.2358 H   0  0  0  0  0  0
   -1.2505   29.4290   10.1182 H   0  0  0  0  0  0
    5.1217   27.8642    9.0049 H   0  0  0  0  0  0
   -0.6644   31.1268    8.3728 H   0  0  0  0  0  0
    2.1017   25.7550    9.2970 H   0  0  0  0  0  0
    4.6525   27.1013    4.1306 H   0  0  0  0  0  0
    3.3177   28.8565    5.2408 H   0  0  0  0  0  0
   -0.2063   23.8719   13.3305 H   0  0  0  0  0  0
    6.2586   25.7647    5.4457 H   0  0  0  0  0  0
    2.2887   23.3584    9.8765 H   0  0  0  0  0  0
    1.1674   22.4242   11.8485 H   0  0  0  0  0  0
  1  3  1  0  0  0
  1  4  1  0  0  0
  1  7  1  0  0  0
  2  3  1  0  0  0
  2  6  2  0  0  0
  3 11  2  0  0  0
  4  5  2  0  0  0
  4 24  1  0  0  0
  5  8  1  0  0  0
  6  9  1  0  0  0
  6 10  1  0  0  0
  7  8  2  0  0  0
  7 17  1  0  0  0
  8 20  1  0  0  0
  9 12  1  0  0  0
  9 25  1  0  0  0
 10 14  2  0  0  0
 11 14  1  0  0  0
 11 26  1  0  0  0
 12 13  2  0  0  0
 12 19  1  0  0  0
 13 15  1  0  0  0
 13 27  1  0  0  0
 14 28  1  0  0  0
 15 16  1  0  0  0
 15 21  2  0  0  0
 17 22  2  0  0  0
 17 29  1  0  0  0
 18 19  2  0  0  0
 18 21  1  0  0  0
 18 30  1  0  0  0
 19 31  1  0  0  0
 20 23  2  0  0  0
 20 32  1  0  0  0
 21 33  1  0  0  0
 22 23  1  0  0  0
 22 34  1  0  0  0
 23 35  1  0  0  0
M  END
> <s_m_entry_id>
33114

> <s_m_entry_name>
dock_pv.515

> <s_m_Source_Path>
/home/csk/Desktop/cluster/DUD-E-result/cdk2

> <s_m_Source_File>
dock_pv.maegz

> <i_m_Source_File_Index>
515

> <chembl_id>
CHEMBL74680

> <chembl_pref_name>
None

> <i_lp_mmshare_version>
53161

> <i_f3d_flags>
0

> <r_lp_tautomer_probability>
1

> <s_lp_Force_Field>
OPLS_2005

> <r_lp_Energy>
9.767254

> <b_lp_Chiralities_Consistent>
1

> <s_lp_Variant>
CHEMBL301_lig255-1

> <s_i_glide_gridfile>
glide-grid_1h00

> <i_i_glide_lignum>
398

> <i_i_glide_rotatable_bonds>
3

> <r_i_docking_score>
-6.99052037523803

> <r_i_glide_ligand_efficiency>
-0.30393566848861

> <r_i_glide_ligand_efficiency_sa>
-0.86435261071048

> <r_i_glide_ligand_efficiency_ln>
-1.69037121326681

> <r_i_glide_gscore>
-6.99052037523803

> <r_i_glide_lipo>
-2.15322213186699

> <r_i_glide_hbond>
-0.279487068551145

> <r_i_glide_metal>
0

> <r_i_glide_rewards>
-2.77202216890995

> <r_i_glide_evdw>
-39.5827789306641

> <r_i_glide_ecoul>
-2.32169365882874

> <r_i_glide_erotb>
0.541603989447561

> <r_i_glide_esite>
0

> <r_i_glide_emodel>
-54.298990882023

> <r_i_glide_energy>
-41.9044725894928

> <r_i_glide_einternal>
11.5169258117676

> <i_i_glide_confnum>
15

> <i_i_glide_posenum>
285

> <r_i_glide_eff_state_penalty>
0

> <s_user_duplicate_titles>
CHEMBL301_lig255,115235

> <s_m_subgroup_title>
dock_pv

> <s_m_subgroupid>
dock_pv

> <b_m_subgroup_collapsed>
1

$$$$
CHEMBL301_lig12
                    3D
 Schrodinger Suite 2021-1.
 55 57  0  0  1  0            999 V2000
   -1.9419   30.0636   10.5760 N   0  0  0  0  0  0
   -1.8291   30.9681    9.5921 C   0  0  0  0  0  0
   -0.8578   31.1052    8.6801 N   0  0  0  0  0  0
    0.1803   30.2310    8.7224 C   0  0  0  0  0  0
   -0.8904   29.2083   10.5953 C   0  0  0  0  0  0
    0.1853   29.2308    9.7251 C   0  0  0  0  0  0
    1.0647   28.2583   10.0193 N   0  0  0  0  0  0
    0.5380   27.6549   11.0565 C   0  0  0  0  0  0
   -0.6514   28.1599   11.4412 N   0  0  0  0  0  0
    1.1889   30.3794    7.7760 N   0  0  0  0  0  0
   -1.5672   27.6990   12.5612 C   0  0  2  0  0  0
   -0.9137   26.7843   13.3921 O   0  0  0  0  0  0
   -1.8788   26.2057   14.2538 C   0  0  1  0  0  0
   -3.0866   26.0114   13.3339 C   0  0  2  0  0  0
   -2.8220   26.9310   12.1205 C   0  0  1  0  0  0
   -4.3016   26.2520   14.0248 O   0  0  0  0  0  0
   -3.8487   27.8520   11.7760 O   0  0  0  0  0  0
   -1.3544   24.9353   14.9501 C   0  0  0  0  0  0
   -1.3011   23.7929   14.1067 O   0  0  0  0  0  0
   -1.2489   22.2993   14.7658 P   0  0  2  0  0  0
   -0.0473   21.5975   13.9589 O   0  0  0  0  0  0
   -2.5533   21.5539   14.1623 O   0  0  0  0  0  0
   -1.1260   22.2520   16.2495 O   0  0  0  0  0  0
    0.4014   21.3156   12.3520 P   0  0  1  0  0  0
    1.5717   22.5156   12.1124 O   0  0  0  0  0  0
    1.1199   19.7722   12.3185 O   0  0  0  0  0  0
   -0.7420   21.4520   11.3760 O   0  0  0  0  0  0
    1.6902   23.8144   11.1645 P   0  0  1  0  0  0
    2.4580   23.2302    9.7760 N   0  0  1  0  0  0
    0.4071   24.5369   10.9727 O   0  0  0  0  0  0
    2.8580   24.6745   11.8901 O   0  0  0  0  0  0
    2.3827   21.8266    9.3845 C   0  0  0  0  0  0
    3.4099   21.4494    8.3403 C   0  0  0  0  0  0
    4.3079   20.4604    8.4729 C   0  0  0  0  0  0
   -2.6360   31.6837    9.5250 H   0  0  0  0  0  0
    0.9842   26.8391   11.6051 H   0  0  0  0  0  0
    2.0233   29.8167    7.8594 H   0  0  0  0  0  0
    1.1317   31.1541    7.1340 H   0  0  0  0  0  0
   -1.8142   28.5927   13.1414 H   0  0  0  0  0  0
   -2.0899   26.9590   15.0175 H   0  0  0  0  0  0
   -3.1087   24.9845   12.9760 H   0  0  0  0  0  0
   -2.5502   26.3250   11.2533 H   0  0  0  0  0  0
   -4.3420   27.2113   14.1760 H   0  0  0  0  0  0
   -3.7949   28.6040   12.3839 H   0  0  0  0  0  0
   -2.0325   24.7222   15.7760 H   0  0  0  0  0  0
   -0.3675   25.1201   15.3760 H   0  0  0  0  0  0
   -2.4699   20.5817   14.0894 H   0  0  0  0  0  0
    0.5781   18.9655   12.4443 H   0  0  0  0  0  0
    2.3597   23.8458    8.9634 H   0  0  0  0  0  0
    3.2758   25.3875   11.3609 H   0  0  0  0  0  0
    1.3857   21.6252    8.9897 H   0  0  0  0  0  0
    2.5182   21.1904   10.2598 H   0  0  0  0  0  0
    3.3959   22.0341    7.4303 H   0  0  0  0  0  0
    4.3511   19.8516    9.3646 H   0  0  0  0  0  0
    5.0152   20.2441    7.6851 H   0  0  0  0  0  0
  1  2  2  0  0  0
  1  5  1  0  0  0
  2  3  1  0  0  0
  2 35  1  0  0  0
  3  4  2  0  0  0
  4  6  1  0  0  0
  4 10  1  0  0  0
  5  9  1  0  0  0
  5  6  2  0  0  0
  6  7  1  0  0  0
  7  8  2  0  0  0
  8  9  1  0  0  0
  8 36  1  0  0  0
  9 11  1  0  0  0
 10 37  1  0  0  0
 10 38  1  0  0  0
 11 12  1  0  0  0
 11 15  1  0  0  0
 11 39  1  0  0  0
 12 13  1  0  0  0
 13 18  1  0  0  0
 13 14  1  0  0  0
 13 40  1  0  0  0
 14 16  1  0  0  0
 14 15  1  0  0  0
 14 41  1  0  0  0
 15 17  1  0  0  0
 15 42  1  0  0  0
 16 43  1  0  0  0
 17 44  1  0  0  0
 18 19  1  0  0  0
 18 45  1  0  0  0
 18 46  1  0  0  0
 19 20  1  0  0  0
 20 21  1  0  0  0
 20 22  1  0  0  0
 20 23  2  0  0  0
 21 24  1  0  0  0
 22 47  1  0  0  0
 24 25  1  0  0  0
 24 26  1  0  0  0
 24 27  2  0  0  0
 25 28  1  0  0  0
 26 48  1  0  0  0
 28 29  1  0  0  0
 28 30  2  0  0  0
 28 31  1  0  0  0
 29 32  1  0  0  0
 29 49  1  0  0  0
 31 50  1  0  0  0
 32 33  1  0  0  0
 32 51  1  0  0  0
 32 52  1  0  0  0
 33 34  2  0  0  0
 33 53  1  0  0  0
 34 54  1  0  0  0
 34 55  1  0  0  0
M  END
> <s_m_entry_id>
33115

> <s_m_entry_name>
dock_pv.516

> <s_m_Source_Path>
/home/csk/Desktop/cluster/DUD-E-result/cdk2

> <s_m_Source_File>
dock_pv.maegz

> <i_m_Source_File_Index>
516

> <chembl_id>
CHEMBL560604

> <chembl_pref_name>
None

> <i_lp_mmshare_version>
53161

> <i_f3d_flags>
0

> <r_lp_tautomer_probability>
0.999997216410988

> <s_lp_Force_Field>
OPLS_2005

> <r_lp_Energy>
17.858383

> <b_lp_Chiralities_Consistent>
1

> <s_lp_Variant>
CHEMBL301_lig12-3

> <s_i_glide_gridfile>
glide-grid_1h00

> <i_i_glide_lignum>
50

> <i_i_glide_rotatable_bonds>
16

> <r_i_docking_score>
-6.98872885645496

> <r_i_glide_ligand_efficiency>
-0.205550848719263

> <r_i_glide_ligand_efficiency_sa>
-0.665904954490788

> <r_i_glide_ligand_efficiency_ln>
-1.54400623159544

> <r_i_glide_gscore>
-6.98872885645496

> <r_i_glide_lipo>
-0.523784421782277

> <r_i_glide_hbond>
-0.531599529729882

> <r_i_glide_metal>
0

> <r_i_glide_rewards>
-0.930017115168333

> <r_i_glide_evdw>
-44.6507949829102

> <r_i_glide_ecoul>
-22.5172920227051

> <r_i_glide_erotb>
0.763399580262734

> <r_i_glide_esite>
-0.156593817485928

> <r_i_glide_emodel>
-91.28836222764

> <r_i_glide_energy>
-67.1680870056152

> <r_i_glide_einternal>
17.8106536865234

> <i_i_glide_confnum>
278

> <i_i_glide_posenum>
212

> <r_i_glide_eff_state_penalty>
0

> <s_user_duplicate_titles>
CHEMBL301_lig12

> <s_m_subgroup_title>
dock_pv

> <s_m_subgroupid>
dock_pv

> <b_m_subgroup_collapsed>
1

$$$$
CHEMBL301_lig611
                    3D
 Schrodinger Suite 2021-1.
 40 42  0  0  1  0            999 V2000
   -0.2403   27.6407   11.6640 C   0  0  0  0  0  0
   -1.4188   28.3609   11.8388 C   0  0  0  0  0  0
   -1.6971   29.4498   11.0190 C   0  0  0  0  0  0
    0.6688   28.0155   10.6757 C   0  0  0  0  0  0
    0.4201   29.1205    9.8418 C   0  0  0  0  0  0
   -0.7894   29.8207   10.0201 C   0  0  0  0  0  0
   -1.1420   30.9866    9.1260 C   0  0  0  0  0  0
   -0.2207   31.2422    8.1760 N   0  0  0  0  0  0
    0.9596   30.6521    7.8867 C   0  0  0  0  0  0
    1.3906   29.5711    8.7864 C   0  0  0  0  0  0
    1.5969   31.0919    6.9282 O   0  0  0  0  0  0
   -2.1668   31.6646    9.1906 O   0  0  0  0  0  0
    2.6401   29.0489    8.6584 C   0  0  0  0  0  0
    3.6495   29.3686    7.7763 N   0  0  0  0  0  0
    4.9067   28.6544    7.6313 C   0  0  0  0  0  0
    4.7383   27.4475    6.7228 C   0  0  0  0  0  0
    4.6379   27.6144    5.3384 C   0  0  0  0  0  0
    4.4415   26.5098    4.5085 C   0  0  0  0  0  0
    4.3232   25.2233    5.0523 C   0  0  0  0  0  0
    4.4576   25.0601    6.4414 C   0  0  0  0  0  0
    4.6720   26.1629    7.2679 C   0  0  0  0  0  0
    4.3258   26.6990    3.1534 O   0  0  0  0  0  0
    4.0621   24.1859    4.1755 O   0  0  0  0  0  0
    3.7591   22.8931    4.6883 C   0  0  0  0  0  0
    0.0192   26.5736   12.4541 F   0  0  0  0  0  0
   -2.1212   28.0768   12.6083 H   0  0  0  0  0  0
   -2.6212   29.9953   11.1684 H   0  0  0  0  0  0
    1.5661   27.4238   10.5886 H   0  0  0  0  0  0
   -0.4588   32.0039    7.5611 H   0  0  0  0  0  0
    2.9811   28.2699    9.3226 H   0  0  0  0  0  0
    3.4550   30.0269    7.0288 H   0  0  0  0  0  0
    5.2486   28.3100    8.6088 H   0  0  0  0  0  0
    5.6577   29.3425    7.2527 H   0  0  0  0  0  0
    4.7043   28.6027    4.9062 H   0  0  0  0  0  0
    4.3780   24.0872    6.8996 H   0  0  0  0  0  0
    4.7554   26.0185    8.3370 H   0  0  0  0  0  0
    4.2490   25.8620    2.6746 H   0  0  0  0  0  0
    3.5059   22.2290    3.8617 H   0  0  0  0  0  0
    2.9015   22.9187    5.3629 H   0  0  0  0  0  0
    4.6144   22.4623    5.2108 H   0  0  0  0  0  0
  1  2  2  0  0  0
  1  4  1  0  0  0
  1 25  1  0  0  0
  2  3  1  0  0  0
  2 26  1  0  0  0
  3  6  2  0  0  0
  3 27  1  0  0  0
  4  5  2  0  0  0
  4 28  1  0  0  0
  5 10  1  0  0  0
  5  6  1  0  0  0
  6  7  1  0  0  0
  7 12  2  0  0  0
  7  8  1  0  0  0
  8  9  1  0  0  0
  8 29  1  0  0  0
  9 10  1  0  0  0
  9 11  2  0  0  0
 10 13  2  0  0  0
 13 14  1  0  0  0
 13 30  1  0  0  0
 14 15  1  0  0  0
 14 31  1  0  0  0
 15 16  1  0  0  0
 15 32  1  0  0  0
 15 33  1  0  0  0
 16 17  2  0  0  0
 16 21  1  0  0  0
 17 18  1  0  0  0
 17 34  1  0  0  0
 18 19  2  0  0  0
 18 22  1  0  0  0
 19 20  1  0  0  0
 19 23  1  0  0  0
 20 21  2  0  0  0
 20 35  1  0  0  0
 21 36  1  0  0  0
 22 37  1  0  0  0
 23 24  1  0  0  0
 24 38  1  0  0  0
 24 39  1  0  0  0
 24 40  1  0  0  0
M  END
> <s_m_entry_id>
33116

> <s_m_entry_name>
dock_pv.517

> <s_m_Source_Path>
/home/csk/Desktop/cluster/DUD-E-result/cdk2

> <s_m_Source_File>
dock_pv.maegz

> <i_m_Source_File_Index>
517

> <chembl_id>
CHEMBL489432

> <chembl_pref_name>
None

> <i_lp_mmshare_version>
53161

> <i_f3d_flags>
0

> <r_lp_tautomer_probability>
0.49999999999931

> <s_lp_Force_Field>
OPLS_2005

> <r_lp_Energy>
29.305019

> <b_lp_Chiralities_Consistent>
1

> <s_lp_Variant>
CHEMBL301_lig611-1

> <s_i_glide_gridfile>
glide-grid_1h00

> <i_i_glide_lignum>
852

> <i_i_glide_rotatable_bonds>
5

> <r_i_docking_score>
-6.9881426019088

> <r_i_glide_ligand_efficiency>
-0.279525704076352

> <r_i_glide_ligand_efficiency_sa>
-0.817338116128724

> <r_i_glide_ligand_efficiency_ln>
-1.65639921438719

> <r_i_glide_gscore>
-6.9881426019088

> <r_i_glide_lipo>
-2.35394280959357

> <r_i_glide_hbond>
-0.126957793963317

> <r_i_glide_metal>
0

> <r_i_glide_rewards>
-2.07688465143747

> <r_i_glide_evdw>
-42.4796676635742

> <r_i_glide_ecoul>
-5.17369222640991

> <r_i_glide_erotb>
0.485418145056901

> <r_i_glide_esite>
-0.0157382748311481

> <r_i_glide_emodel>
-65.0825266501357

> <r_i_glide_energy>
-47.6533598899841

> <r_i_glide_einternal>
5.80042695999146

> <i_i_glide_confnum>
19

> <i_i_glide_posenum>
93

> <r_i_glide_eff_state_penalty>
0

> <s_user_duplicate_titles>
CHEMBL301_lig611

> <s_m_subgroup_title>
dock_pv

> <s_m_subgroupid>
dock_pv

> <b_m_subgroup_collapsed>
1

$$$$
CHEMBL301_lig610
                    3D
 Schrodinger Suite 2021-1.
 40 42  0  0  1  0            999 V2000
   -0.7630   31.5804    8.6998 C   0  0  0  0  0  0
   -1.6895   31.4383    9.7251 C   0  0  0  0  0  0
   -1.6178   30.3356   10.5653 C   0  0  0  0  0  0
    0.2666   30.6535    8.5227 C   0  0  0  0  0  0
    0.4262   29.5769    9.4359 C   0  0  0  0  0  0
   -0.5906   29.3988   10.4034 C   0  0  0  0  0  0
   -0.6386   28.1571   11.2662 C   0  0  0  0  0  0
    0.3506   27.2785   11.0120 N   0  0  0  0  0  0
    1.4076   27.3445   10.1758 C   0  0  0  0  0  0
    1.5906   28.6117    9.4518 C   0  0  0  0  0  0
    2.1461   26.3613   10.1166 O   0  0  0  0  0  0
   -1.5090   27.8846   12.0922 O   0  0  0  0  0  0
    2.8271   28.9067    8.9667 C   0  0  0  0  0  0
    3.9937   28.1723    8.9759 N   0  0  0  0  0  0
    5.0373   28.2466    7.9620 C   0  0  0  0  0  0
    4.7964   27.2170    6.8664 C   0  0  0  0  0  0
    4.6994   27.6090    5.5274 C   0  0  0  0  0  0
    4.4603   26.6593    4.5309 C   0  0  0  0  0  0
    4.3108   25.3056    4.8568 C   0  0  0  0  0  0
    4.4370   24.9150    6.1999 C   0  0  0  0  0  0
    4.6821   25.8622    7.1931 C   0  0  0  0  0  0
    4.3553   27.0524    3.2206 O   0  0  0  0  0  0
    4.0380   24.4339    3.8188 O   0  0  0  0  0  0
    3.7258   23.0760    4.1046 C   0  0  0  0  0  0
    1.3545   30.9440    6.9765 Br  0  0  0  0  0  0
   -0.8491   32.4203    8.0263 H   0  0  0  0  0  0
   -2.4820   32.1627    9.8492 H   0  0  0  0  0  0
   -2.3719   30.2120   11.3333 H   0  0  0  0  0  0
    0.2907   26.4186   11.5327 H   0  0  0  0  0  0
    3.0300   29.8597    8.5127 H   0  0  0  0  0  0
    3.9778   27.2814    9.4612 H   0  0  0  0  0  0
    6.0069   28.0755    8.4278 H   0  0  0  0  0  0
    5.0635   29.2477    7.5263 H   0  0  0  0  0  0
    4.8017   28.6496    5.2556 H   0  0  0  0  0  0
    4.3329   23.8814    6.4932 H   0  0  0  0  0  0
    4.7659   25.5430    8.2231 H   0  0  0  0  0  0
    4.2551   26.2777    2.6522 H   0  0  0  0  0  0
    3.4733   22.5674    3.1746 H   0  0  0  0  0  0
    2.8658   22.9914    4.7710 H   0  0  0  0  0  0
    4.5760   22.5551    4.5476 H   0  0  0  0  0  0
  1  2  2  0  0  0
  1  4  1  0  0  0
  1 26  1  0  0  0
  2  3  1  0  0  0
  2 27  1  0  0  0
  3  6  2  0  0  0
  3 28  1  0  0  0
  4  5  2  0  0  0
  4 25  1  0  0  0
  5 10  1  0  0  0
  5  6  1  0  0  0
  6  7  1  0  0  0
  7 12  2  0  0  0
  7  8  1  0  0  0
  8  9  1  0  0  0
  8 29  1  0  0  0
  9 10  1  0  0  0
  9 11  2  0  0  0
 10 13  2  0  0  0
 13 14  1  0  0  0
 13 30  1  0  0  0
 14 15  1  0  0  0
 14 31  1  0  0  0
 15 16  1  0  0  0
 15 32  1  0  0  0
 15 33  1  0  0  0
 16 17  2  0  0  0
 16 21  1  0  0  0
 17 18  1  0  0  0
 17 34  1  0  0  0
 18 19  2  0  0  0
 18 22  1  0  0  0
 19 20  1  0  0  0
 19 23  1  0  0  0
 20 21  2  0  0  0
 20 35  1  0  0  0
 21 36  1  0  0  0
 22 37  1  0  0  0
 23 24  1  0  0  0
 24 38  1  0  0  0
 24 39  1  0  0  0
 24 40  1  0  0  0
M  END
> <s_m_entry_id>
33117

> <s_m_entry_name>
dock_pv.518

> <s_m_Source_Path>
/home/csk/Desktop/cluster/DUD-E-result/cdk2

> <s_m_Source_File>
dock_pv.maegz

> <i_m_Source_File_Index>
518

> <chembl_id>
CHEMBL489039

> <chembl_pref_name>
None

> <i_lp_mmshare_version>
53161

> <i_f3d_flags>
0

> <r_lp_tautomer_probability>
0.49999999999931

> <s_lp_Force_Field>
OPLS_2005

> <r_lp_Energy>
32.316425

> <b_lp_Chiralities_Consistent>
1

> <s_lp_Variant>
CHEMBL301_lig610-1

> <s_i_glide_gridfile>
glide-grid_1h00

> <i_i_glide_lignum>
851

> <i_i_glide_rotatable_bonds>
5

> <r_i_docking_score>
-6.98462499112581

> <r_i_glide_ligand_efficiency>
-0.279384999645032

> <r_i_glide_ligand_efficiency_sa>
-0.816926693876141

> <r_i_glide_ligand_efficiency_ln>
-1.65556543521733

> <r_i_glide_gscore>
-6.98462499112581

> <r_i_glide_lipo>
-3.26358183318193

> <r_i_glide_hbond>
0

> <r_i_glide_metal>
0

> <r_i_glide_rewards>
-1.47401544751892

> <r_i_glide_evdw>
-43.1896209716797

> <r_i_glide_ecoul>
-2.998455286026

> <r_i_glide_erotb>
0.362221631062929

> <r_i_glide_esite>
0

> <r_i_glide_emodel>
-64.1569585841287

> <r_i_glide_energy>
-46.1880762577057

> <r_i_glide_einternal>
4.80327177047729

> <i_i_glide_confnum>
8

> <i_i_glide_posenum>
181

> <r_i_glide_eff_state_penalty>
0

> <s_user_duplicate_titles>
CHEMBL301_lig610

> <s_m_subgroup_title>
dock_pv

> <s_m_subgroupid>
dock_pv

> <b_m_subgroup_collapsed>
1

$$$$
CHEMBL301_lig1399
                    3D
 Schrodinger Suite 2021-1.
 47 48  0  0  1  0            999 V2000
    0.3826   27.5968   10.6662 C   0  0  0  0  0  0
   -1.1062   28.0331   10.6582 C   0  0  2  0  0  0
   -1.2995   29.4924   10.5464 N   0  0  0  0  0  0
   -0.7258   30.3555    9.5935 C   0  0  0  0  0  0
    0.2941   29.9225    8.8036 N   0  0  0  0  0  0
    0.8662   30.8197    7.9586 C   0  0  0  0  0  0
    2.0140   30.4686    7.2374 N   0  0  0  0  0  0
    2.9158   29.4028    7.3680 C   0  0  0  0  0  0
    3.1022   28.7048    8.5628 C   0  0  0  0  0  0
    3.9739   27.6217    8.6089 C   0  0  0  0  0  0
    4.7107   27.2604    7.4801 C   0  0  0  0  0  0
    4.5598   27.9833    6.2944 C   0  0  0  0  0  0
    3.6577   29.0438    6.2455 C   0  0  0  0  0  0
    5.7869   25.8275    7.5722 S   0  0  1  0  0  0
    6.8580   26.2499    8.5755 N   0  0  0  0  0  0
    4.9578   24.6309    7.7321 O   0  0  0  0  0  0
    6.7718   25.7240    5.9736 C   0  0  0  0  0  0
    0.4584   32.1003    7.7891 N   0  0  0  0  0  0
   -0.5712   32.5138    8.5757 C   0  0  0  0  0  0
   -1.1975   31.6744    9.4988 C   0  0  0  0  0  0
   -2.6222   32.3493   10.5746 Br  0  0  0  0  0  0
   -1.9158   27.4253   11.8566 C   0  0  0  0  0  0
   -1.9936   25.8835   11.8116 C   0  0  0  0  0  0
   -1.3783   27.8978   13.2250 C   0  0  0  0  0  0
   -3.2657   27.8520   11.7763 O   0  0  0  0  0  0
    0.5345   26.5921   11.0546 H   0  0  0  0  0  0
    0.7947   27.5797    9.6592 H   0  0  0  0  0  0
    0.9917   28.2631   11.2779 H   0  0  0  0  0  0
   -1.5418   27.6216    9.7466 H   0  0  0  0  0  0
   -2.1045   29.8564   11.0405 H   0  0  0  0  0  0
    2.3262   31.1815    6.5982 H   0  0  0  0  0  0
    2.5694   28.9881    9.4551 H   0  0  0  0  0  0
    4.0617   27.0582    9.5257 H   0  0  0  0  0  0
    5.1194   27.7317    5.4064 H   0  0  0  0  0  0
    3.5426   29.5936    5.3272 H   0  0  0  0  0  0
    6.4632   26.2520    9.5199 H   0  0  0  0  0  0
    7.3231   26.6517    5.8323 H   0  0  0  0  0  0
    7.4684   24.8926    6.0560 H   0  0  0  0  0  0
    6.0896   25.5502    5.1425 H   0  0  0  0  0  0
   -0.8908   33.5387    8.4496 H   0  0  0  0  0  0
   -1.0332   25.4122   12.0158 H   0  0  0  0  0  0
   -2.3394   25.5284   10.8394 H   0  0  0  0  0  0
   -2.6906   25.4952   12.5579 H   0  0  0  0  0  0
   -0.3381   27.6018   13.3665 H   0  0  0  0  0  0
   -1.4256   28.9828   13.3259 H   0  0  0  0  0  0
   -1.9446   27.4709   14.0544 H   0  0  0  0  0  0
   -3.5154   28.2129   12.6448 H   0  0  0  0  0  0
  1  2  1  0  0  0
  1 26  1  0  0  0
  1 27  1  0  0  0
  1 28  1  0  0  0
  2  3  1  0  0  0
  2 22  1  0  0  0
  2 29  1  0  0  0
  3  4  1  0  0  0
  3 30  1  0  0  0
  4  5  2  0  0  0
  4 20  1  0  0  0
  5  6  1  0  0  0
  6  7  1  0  0  0
  6 18  2  0  0  0
  7  8  1  0  0  0
  7 31  1  0  0  0
  8  9  2  0  0  0
  8 13  1  0  0  0
  9 10  1  0  0  0
  9 32  1  0  0  0
 10 11  2  0  0  0
 10 33  1  0  0  0
 11 12  1  0  0  0
 11 14  1  0  0  0
 12 13  2  0  0  0
 12 34  1  0  0  0
 13 35  1  0  0  0
 14 15  2  0  0  0
 14 16  2  0  0  0
 14 17  1  0  0  0
 15 36  1  0  0  0
 17 37  1  0  0  0
 17 38  1  0  0  0
 17 39  1  0  0  0
 18 19  1  0  0  0
 19 20  2  0  0  0
 19 40  1  0  0  0
 20 21  1  0  0  0
 22 23  1  0  0  0
 22 24  1  0  0  0
 22 25  1  0  0  0
 23 41  1  0  0  0
 23 42  1  0  0  0
 23 43  1  0  0  0
 24 44  1  0  0  0
 24 45  1  0  0  0
 24 46  1  0  0  0
 25 47  1  0  0  0
M  END
> <s_m_entry_id>
33118

> <s_m_entry_name>
dock_pv.519

> <s_m_Source_Path>
/home/csk/Desktop/cluster/DUD-E-result/cdk2

> <s_m_Source_File>
dock_pv.maegz

> <i_m_Source_File_Index>
519

> <chembl_id>
CHEMBL3648116

> <chembl_pref_name>
None

> <i_lp_mmshare_version>
53161

> <i_f3d_flags>
0

> <r_lp_tautomer_probability>
0.999999624730965

> <s_lp_Force_Field>
OPLS_2005

> <r_lp_Energy>
8.986636

> <b_lp_Chiralities_Consistent>
1

> <s_lp_Variant>
CHEMBL301_lig1399-2

> <s_i_glide_gridfile>
glide-grid_1h00

> <i_i_glide_lignum>
1900

> <i_i_glide_rotatable_bonds>
7

> <r_i_docking_score>
-6.98378714611345

> <r_i_glide_ligand_efficiency>
-0.279351485844538

> <r_i_glide_ligand_efficiency_sa>
-0.816828698929126

> <r_i_glide_ligand_efficiency_ln>
-1.65536684084122

> <r_i_glide_gscore>
-6.98378714611345

> <r_i_glide_lipo>
-2.36152331862229

> <r_i_glide_hbond>
-0.334141057267987

> <r_i_glide_metal>
0

> <r_i_glide_rewards>
-1.26728389244859

> <r_i_glide_evdw>
-38.6530303955078

> <r_i_glide_ecoul>
-10.8630905151367

> <r_i_glide_erotb>
0.541276219271308

> <r_i_glide_esite>
0

> <r_i_glide_emodel>
-68.8800411993088

> <r_i_glide_energy>
-49.5161209106445

> <r_i_glide_einternal>
5.80313110351562

> <i_i_glide_confnum>
4

> <i_i_glide_posenum>
373

> <r_i_glide_eff_state_penalty>
0

> <s_user_duplicate_titles>
CHEMBL301_lig1399

> <s_m_subgroup_title>
dock_pv

> <s_m_subgroupid>
dock_pv

> <b_m_subgroup_collapsed>
1

$$$$
CHEMBL301_lig973
                    3D
 Schrodinger Suite 2021-1.
 34 37  0  0  1  0            999 V2000
   -0.1267   26.5712   11.3399 C   0  0  0  0  0  0
   -0.4402   27.8928   10.7500 C   0  0  0  0  0  0
    0.9226   25.7089   11.0423 C   0  0  0  0  0  0
   -3.9202   25.6544   15.1110 S   0  0  0  0  0  0
   -0.8900   25.8846   12.3727 C   0  0  0  0  0  0
   -1.5454   28.4836   10.9846 N   0  0  0  0  0  0
    0.4361   28.6493    9.8522 C   0  0  0  0  0  0
    0.8273   24.5568   11.7620 N   0  0  0  0  0  0
   -0.3664   29.8234    9.5307 C   0  0  0  0  0  0
   -0.2634   24.6140   12.5926 C   0  0  0  0  0  0
   -1.5318   29.6605   10.2494 C   0  0  0  0  0  0
   -2.0321   26.1898   13.1447 C   0  0  0  0  0  0
   -2.5033   25.2607   14.0822 C   0  0  0  0  0  0
   -3.3331   27.0519   15.7762 O   0  0  0  0  0  0
   -5.0586   25.9848   14.2454 O   0  0  0  0  0  0
   -4.0236   24.6498   16.1759 O   0  0  0  0  0  0
    1.9758   25.7828   10.1774 O   0  0  0  0  0  0
    1.5693   28.3380    9.4836 O   0  0  0  0  0  0
   -0.7443   23.6749   13.5079 C   0  0  0  0  0  0
   -1.8723   24.0275   14.2417 C   0  0  0  0  0  0
   -0.1581   30.9445    8.7269 C   0  0  0  0  0  0
   -2.5358   30.6266   10.1880 C   0  0  0  0  0  0
   -1.1392   31.9404    8.7046 C   0  0  0  0  0  0
   -2.3282   31.7784    9.4237 C   0  0  0  0  0  0
    1.4941   23.8098   11.6526 H   0  0  0  0  0  0
   -2.5370   27.1385   13.0236 H   0  0  0  0  0  0
   -3.5413   27.8121   15.1727 H   0  0  0  0  0  0
    2.0740   26.6969    9.8740 H   0  0  0  0  0  0
   -0.2645   22.7176   13.6528 H   0  0  0  0  0  0
   -2.2569   23.3170   14.9594 H   0  0  0  0  0  0
    0.7577   31.0739    8.1677 H   0  0  0  0  0  0
   -3.4507   30.5110   10.7500 H   0  0  0  0  0  0
   -0.9784   32.8405    8.1297 H   0  0  0  0  0  0
   -3.0846   32.5485    9.3997 H   0  0  0  0  0  0
  1  2  1  0  0  0
  1  3  2  0  0  0
  1  5  1  0  0  0
  2  6  2  0  0  0
  2  7  1  0  0  0
  3  8  1  0  0  0
  3 17  1  0  0  0
  4 13  1  0  0  0
  4 14  1  0  0  0
  4 15  2  0  0  0
  4 16  2  0  0  0
  5 10  2  0  0  0
  5 12  1  0  0  0
  6 11  1  0  0  0
  7  9  1  0  0  0
  7 18  2  0  0  0
  8 10  1  0  0  0
  8 25  1  0  0  0
  9 21  2  0  0  0
  9 11  1  0  0  0
 10 19  1  0  0  0
 11 22  2  0  0  0
 12 13  2  0  0  0
 12 26  1  0  0  0
 13 20  1  0  0  0
 14 27  1  0  0  0
 17 28  1  0  0  0
 19 20  2  0  0  0
 19 29  1  0  0  0
 20 30  1  0  0  0
 21 23  1  0  0  0
 21 31  1  0  0  0
 22 24  1  0  0  0
 22 32  1  0  0  0
 23 24  2  0  0  0
 23 33  1  0  0  0
 24 34  1  0  0  0
M  END
> <s_m_entry_id>
33119

> <s_m_entry_name>
dock_pv.520

> <s_m_Source_Path>
/home/csk/Desktop/cluster/DUD-E-result/cdk2

> <s_m_Source_File>
dock_pv.maegz

> <i_m_Source_File_Index>
520

> <chembl_id>
CHEMBL1207227

> <chembl_pref_name>
None

> <i_lp_mmshare_version>
53161

> <i_f3d_flags>
0

> <r_lp_tautomer_probability>
1

> <s_lp_Force_Field>
OPLS_2005

> <r_lp_Energy>
28.080694

> <b_lp_Chiralities_Consistent>
1

> <s_lp_Variant>
CHEMBL301_lig973-1

> <s_i_glide_gridfile>
glide-grid_1h00

> <i_i_glide_lignum>
1367

> <i_i_glide_rotatable_bonds>
4

> <r_i_docking_score>
-6.98250741904081

> <r_i_glide_ligand_efficiency>
-0.2909378091267

> <r_i_glide_ligand_efficiency_sa>
-0.839209859509307

> <r_i_glide_ligand_efficiency_ln>
-1.67123443176397

> <r_i_glide_gscore>
-6.98250741904081

> <r_i_glide_lipo>
-1.79728218809422

> <r_i_glide_hbond>
0

> <r_i_glide_metal>
0

> <r_i_glide_rewards>
-1.99385248302544

> <r_i_glide_evdw>
-35.67724609375

> <r_i_glide_ecoul>
-10.0858478546143

> <r_i_glide_erotb>
0.323602207845245

> <r_i_glide_esite>
-0.218235472886756

> <r_i_glide_emodel>
-67.7918032095993

> <r_i_glide_energy>
-45.7630939483643

> <r_i_glide_einternal>
0.707170605659485

> <i_i_glide_confnum>
4

> <i_i_glide_posenum>
370

> <r_i_glide_eff_state_penalty>
0

> <s_user_duplicate_titles>
CHEMBL301_lig973

> <s_m_subgroup_title>
dock_pv

> <s_m_subgroupid>
dock_pv

> <b_m_subgroup_collapsed>
1

$$$$
CHEMBL301_lig486
                    3D
 Schrodinger Suite 2021-1.
 53 56  0  0  1  0            999 V2000
   -2.5379   30.5286   10.1783 C   0  0  0  0  0  0
   -1.4009   30.8470    9.4403 C   0  0  0  0  0  0
   -0.3234   29.9320    9.4886 C   0  0  0  0  0  0
   -0.3772   28.8565   10.3227 N   0  0  0  0  0  0
   -1.4986   28.6695   11.0663 C   0  0  0  0  0  0
   -2.6061   29.4391   10.9756 N   0  0  0  0  0  0
    0.9379   29.9842    8.6614 C   0  0  0  0  0  0
    2.4578   30.5998    7.1010 N   0  0  0  0  0  0
    1.2681   30.9213    7.6947 C   0  0  0  0  0  0
    2.9655   29.4521    7.6401 C   0  0  0  0  0  0
    2.0578   29.0514    8.6672 C   0  0  0  0  0  0
    2.3713   27.8711    9.3758 C   0  0  0  0  0  0
    3.4694   27.1119    8.9772 C   0  0  0  0  0  0
    4.3405   27.5455    7.9899 C   0  0  0  0  0  0
    4.1199   28.7336    7.3076 C   0  0  0  0  0  0
   -1.4058   32.3427    8.5765 Cl  0  0  0  0  0  0
   -1.5333   27.6708   12.0525 N   0  0  0  0  0  0
   -0.3673   26.8415   12.3775 C   0  0  0  0  0  0
   -0.5075   26.2691   13.8097 C   0  0  0  0  0  0
   -1.6008   25.1871   13.9385 C   0  0  0  0  0  0
   -1.2947   24.1526   12.9366 N   0  0  0  0  0  0
   -1.3668   24.6260   11.5384 C   0  0  0  0  0  0
   -0.2418   25.6753   11.3640 C   0  0  0  0  0  0
   -0.8243   22.9347   13.3134 C   0  0  0  0  0  0
   -0.6573   22.6434   14.5042 O   0  0  0  0  0  0
   -0.5505   21.8831   12.2097 C   0  0  0  0  0  0
    0.0597   20.6528   12.7165 N   0  0  0  0  0  0
    1.3693   20.5120   12.9780 C   0  0  0  0  0  0
    1.8133   19.1522   13.4987 C   0  0  0  0  0  0
    2.2029   21.4058   12.8129 O   0  0  0  0  0  0
   -3.4032   31.1742   10.1768 H   0  0  0  0  0  0
    2.9067   31.1514    6.3811 H   0  0  0  0  0  0
    0.7623   31.8147    7.3738 H   0  0  0  0  0  0
    1.7324   27.4948   10.1580 H   0  0  0  0  0  0
    3.6467   26.1491    9.4246 H   0  0  0  0  0  0
    5.1936   26.9344    7.7333 H   0  0  0  0  0  0
    4.7941   29.0508    6.5258 H   0  0  0  0  0  0
   -2.3380   27.6480   12.6650 H   0  0  0  0  0  0
    0.5278   27.4672   12.3353 H   0  0  0  0  0  0
   -0.7424   27.0523   14.5211 H   0  0  0  0  0  0
    0.4564   25.8806   14.1385 H   0  0  0  0  0  0
   -2.5710   25.6097   13.6752 H   0  0  0  0  0  0
   -1.7337   24.7928   14.9484 H   0  0  0  0  0  0
   -1.3787   23.8393   10.7896 H   0  0  0  0  0  0
   -2.3383   25.1075   11.4159 H   0  0  0  0  0  0
    0.7354   25.1978   11.4606 H   0  0  0  0  0  0
   -0.2713   26.0558   10.3431 H   0  0  0  0  0  0
    0.0928   22.2990   11.4319 H   0  0  0  0  0  0
   -1.5060   21.5936   11.7726 H   0  0  0  0  0  0
   -0.5626   19.8599   12.8521 H   0  0  0  0  0  0
    0.9896   18.6241   13.9862 H   0  0  0  0  0  0
    2.6223   19.2676   14.2222 H   0  0  0  0  0  0
    2.1771   18.5391   12.6733 H   0  0  0  0  0  0
  1  6  1  0  0  0
  1  2  2  0  0  0
  1 31  1  0  0  0
  2 16  1  0  0  0
  2  3  1  0  0  0
  3  7  1  0  0  0
  3  4  2  0  0  0
  4  5  1  0  0  0
  5 17  1  0  0  0
  5  6  2  0  0  0
  7 11  1  0  0  0
  7  9  2  0  0  0
  8 10  1  0  0  0
  8  9  1  0  0  0
  8 32  1  0  0  0
  9 33  1  0  0  0
 10 15  1  0  0  0
 10 11  2  0  0  0
 11 12  1  0  0  0
 12 13  2  0  0  0
 12 34  1  0  0  0
 13 14  1  0  0  0
 13 35  1  0  0  0
 14 15  2  0  0  0
 14 36  1  0  0  0
 15 37  1  0  0  0
 17 18  1  0  0  0
 17 38  1  0  0  0
 18 19  1  0  0  0
 18 23  1  0  0  0
 18 39  1  0  0  0
 19 20  1  0  0  0
 19 40  1  0  0  0
 19 41  1  0  0  0
 20 21  1  0  0  0
 20 42  1  0  0  0
 20 43  1  0  0  0
 21 22  1  0  0  0
 21 24  1  0  0  0
 22 23  1  0  0  0
 22 44  1  0  0  0
 22 45  1  0  0  0
 23 46  1  0  0  0
 23 47  1  0  0  0
 24 25  2  0  0  0
 24 26  1  0  0  0
 26 27  1  0  0  0
 26 48  1  0  0  0
 26 49  1  0  0  0
 27 28  1  0  0  0
 27 50  1  0  0  0
 28 29  1  0  0  0
 28 30  2  0  0  0
 29 51  1  0  0  0
 29 52  1  0  0  0
 29 53  1  0  0  0
M  END
> <s_m_entry_id>
33120

> <s_m_entry_name>
dock_pv.521

> <s_m_Source_Path>
/home/csk/Desktop/cluster/DUD-E-result/cdk2

> <s_m_Source_File>
dock_pv.maegz

> <i_m_Source_File_Index>
521

> <chembl_id>
CHEMBL245535

> <chembl_pref_name>
None

> <i_lp_mmshare_version>
53161

> <i_f3d_flags>
0

> <r_lp_tautomer_probability>
0.999999987636

> <s_lp_Force_Field>
OPLS_2005

> <r_lp_Energy>
22.764732

> <b_lp_Chiralities_Consistent>
1

> <s_lp_Variant>
CHEMBL301_lig486-1

> <s_i_glide_gridfile>
glide-grid_1h00

> <i_i_glide_lignum>
677

> <i_i_glide_rotatable_bonds>
7

> <r_i_docking_score>
-6.9815154360869

> <r_i_glide_ligand_efficiency>
-0.232717181202897

> <r_i_glide_ligand_efficiency_sa>
-0.723106389307786

> <r_i_glide_ligand_efficiency_ln>
-1.58627637678233

> <r_i_glide_gscore>
-6.9815154360869

> <r_i_glide_lipo>
-2.69248028372415

> <r_i_glide_hbond>
-0.342307536916266

> <r_i_glide_metal>
0

> <r_i_glide_rewards>
-1.32528091049031

> <r_i_glide_evdw>
-40.2201232910156

> <r_i_glide_ecoul>
-7.5575647354126

> <r_i_glide_erotb>
0.653528882893507

> <r_i_glide_esite>
-0.130334712987018

> <r_i_glide_emodel>
-67.0341535282899

> <r_i_glide_energy>
-47.7776880264282

> <r_i_glide_einternal>
8.10354995727539

> <i_i_glide_confnum>
47

> <i_i_glide_posenum>
10

> <r_i_glide_eff_state_penalty>
0

> <s_user_duplicate_titles>
CHEMBL301_lig486,410908

> <s_m_subgroup_title>
dock_pv

> <s_m_subgroupid>
dock_pv

> <b_m_subgroup_collapsed>
1

$$$$
CHEMBL301_lig1387
                    3D
 Schrodinger Suite 2021-1.
 54 56  0  0  1  0            999 V2000
   -0.6135   27.1759    9.9833 C   0  0  0  0  0  0
   -0.6231   28.4325   10.8751 C   0  0  1  0  0  0
   -1.2447   29.5671   10.1760 N   0  0  0  0  0  0
   -0.5389   30.3863    9.2760 C   0  0  0  0  0  0
    0.5510   29.8897    8.6254 N   0  0  0  0  0  0
    1.2096   30.7248    7.7768 C   0  0  0  0  0  0
    2.3559   30.2867    7.1065 N   0  0  0  0  0  0
    3.1233   29.1228    7.2183 C   0  0  0  0  0  0
    3.2690   28.4347    8.4253 C   0  0  0  0  0  0
    3.9949   27.2494    8.4556 C   0  0  0  0  0  0
    4.5855   26.7605    7.2870 C   0  0  0  0  0  0
    4.4684   27.4664    6.0910 C   0  0  0  0  0  0
    3.7472   28.6519    6.0634 C   0  0  0  0  0  0
    5.4356   25.1917    7.3670 S   0  0  1  0  0  0
    6.6796   25.5593    8.1764 N   0  0  0  0  0  0
    4.4603   24.1778    7.7816 O   0  0  0  0  0  0
    6.1174   24.7467    5.6443 C   0  0  0  0  0  0
    7.3264   25.6060    5.2214 C   0  0  0  0  0  0
    8.7118   25.2912    5.7298 C   0  0  0  0  0  0
    8.3515   25.0333    4.2764 C   0  0  0  0  0  0
    0.8580   32.0079    7.5209 N   0  0  0  0  0  0
   -0.2146   32.4932    8.1936 C   0  0  0  0  0  0
   -0.9472   31.7152    9.0923 C   0  0  0  0  0  0
   -2.4050   32.4865   10.0513 Br  0  0  0  0  0  0
   -1.2465   28.1836   12.2921 C   0  0  0  0  0  0
   -0.6094   26.9982   13.0425 C   0  0  0  0  0  0
   -1.1415   29.4524   13.1626 C   0  0  0  0  0  0
   -2.6187   27.8524   12.1751 O   0  0  0  0  0  0
    0.1119   26.4394   10.3279 H   0  0  0  0  0  0
   -1.5862   26.6903    9.9396 H   0  0  0  0  0  0
   -0.3414   27.4493    8.9702 H   0  0  0  0  0  0
    0.4225   28.7007   11.0433 H   0  0  0  0  0  0
   -2.0315   29.9910   10.6461 H   0  0  0  0  0  0
    2.7727   30.9856    6.5072 H   0  0  0  0  0  0
    2.8075   28.7978    9.3310 H   0  0  0  0  0  0
    4.0580   26.6895    9.3758 H   0  0  0  0  0  0
    4.9145   27.1082    5.1773 H   0  0  0  0  0  0
    3.6580   29.1941    5.1330 H   0  0  0  0  0  0
    6.4325   25.8515    9.1181 H   0  0  0  0  0  0
    6.3989   23.6961    5.7021 H   0  0  0  0  0  0
    5.2980   24.8266    4.9313 H   0  0  0  0  0  0
    7.0686   26.6514    5.0745 H   0  0  0  0  0  0
    9.3655   26.1279    5.9818 H   0  0  0  0  0  0
    8.8321   24.4507    6.4133 H   0  0  0  0  0  0
    8.2271   24.0072    3.9303 H   0  0  0  0  0  0
    8.7613   25.6842    3.5028 H   0  0  0  0  0  0
   -0.4723   33.5278    8.0131 H   0  0  0  0  0  0
    0.4580   27.1502   13.1690 H   0  0  0  0  0  0
   -0.7499   26.0537   12.5156 H   0  0  0  0  0  0
   -1.0400   26.8706   14.0363 H   0  0  0  0  0  0
   -0.1036   29.7620   13.2727 H   0  0  0  0  0  0
   -1.6732   30.2936   12.7206 H   0  0  0  0  0  0
   -1.5417   29.2998   14.1646 H   0  0  0  0  0  0
   -3.0887   28.2432   12.9297 H   0  0  0  0  0  0
  1  2  1  0  0  0
  1 29  1  0  0  0
  1 30  1  0  0  0
  1 31  1  0  0  0
  2  3  1  0  0  0
  2 25  1  0  0  0
  2 32  1  0  0  0
  3  4  1  0  0  0
  3 33  1  0  0  0
  4  5  2  0  0  0
  4 23  1  0  0  0
  5  6  1  0  0  0
  6  7  1  0  0  0
  6 21  2  0  0  0
  7  8  1  0  0  0
  7 34  1  0  0  0
  8  9  2  0  0  0
  8 13  1  0  0  0
  9 10  1  0  0  0
  9 35  1  0  0  0
 10 11  2  0  0  0
 10 36  1  0  0  0
 11 12  1  0  0  0
 11 14  1  0  0  0
 12 13  2  0  0  0
 12 37  1  0  0  0
 13 38  1  0  0  0
 14 15  2  0  0  0
 14 16  2  0  0  0
 14 17  1  0  0  0
 15 39  1  0  0  0
 17 18  1  0  0  0
 17 40  1  0  0  0
 17 41  1  0  0  0
 18 19  1  0  0  0
 18 20  1  0  0  0
 18 42  1  0  0  0
 19 20  1  0  0  0
 19 43  1  0  0  0
 19 44  1  0  0  0
 20 45  1  0  0  0
 20 46  1  0  0  0
 21 22  1  0  0  0
 22 23  2  0  0  0
 22 47  1  0  0  0
 23 24  1  0  0  0
 25 26  1  0  0  0
 25 27  1  0  0  0
 25 28  1  0  0  0
 26 48  1  0  0  0
 26 49  1  0  0  0
 26 50  1  0  0  0
 27 51  1  0  0  0
 27 52  1  0  0  0
 27 53  1  0  0  0
 28 54  1  0  0  0
M  END
> <s_m_entry_id>
33121

> <s_m_entry_name>
dock_pv.522

> <s_m_Source_Path>
/home/csk/Desktop/cluster/DUD-E-result/cdk2

> <s_m_Source_File>
dock_pv.maegz

> <i_m_Source_File_Index>
522

> <chembl_id>
CHEMBL3648076

> <chembl_pref_name>
None

> <i_lp_mmshare_version>
53161

> <i_f3d_flags>
0

> <r_lp_tautomer_probability>
0.999999624730965

> <s_lp_Force_Field>
OPLS_2005

> <r_lp_Energy>
18.240695

> <b_lp_Chiralities_Consistent>
1

> <s_lp_Variant>
CHEMBL301_lig1387-2

> <s_i_glide_gridfile>
glide-grid_1h00

> <i_i_glide_lignum>
1873

> <i_i_glide_rotatable_bonds>
9

> <r_i_docking_score>
-6.98064282765732

> <r_i_glide_ligand_efficiency>
-0.249308672416333

> <r_i_glide_ligand_efficiency_sa>
-0.757047964411519

> <r_i_glide_ligand_efficiency_ln>
-1.61133732520282

> <r_i_glide_gscore>
-6.98064282765732

> <r_i_glide_lipo>
-2.75551994103162

> <r_i_glide_hbond>
-0.484112351227928

> <r_i_glide_metal>
0

> <r_i_glide_rewards>
-1.1408798286791

> <r_i_glide_evdw>
-39.4798049926758

> <r_i_glide_ecoul>
-9.08191871643066

> <r_i_glide_erotb>
0.73614735037971

> <r_i_glide_esite>
0

> <r_i_glide_emodel>
-66.9998785506645

> <r_i_glide_energy>
-48.5617237091064

> <r_i_glide_einternal>
6.45092535018921

> <i_i_glide_confnum>
142

> <i_i_glide_posenum>
360

> <r_i_glide_eff_state_penalty>
0

> <s_user_duplicate_titles>
CHEMBL301_lig1387

> <s_m_subgroup_title>
dock_pv

> <s_m_subgroupid>
dock_pv

> <b_m_subgroup_collapsed>
1

$$$$
CHEMBL301_lig1446
                    3D
 Schrodinger Suite 2021-1.
 38 41  0  0  1  0            999 V2000
    2.2609   24.8304    9.4084 Cl  0  0  0  0  0  0
    1.2848   25.3032   10.7553 C   0  0  0  0  0  0
    0.8753   24.2819   11.6152 C   0  0  0  0  0  0
    0.0531   24.5567   12.7025 C   0  0  0  0  0  0
   -0.3522   25.8640   12.9476 C   0  0  0  0  0  0
    0.0544   26.8859   12.0940 C   0  0  0  0  0  0
    0.8714   26.6373   10.9759 C   0  0  0  0  0  0
    1.2201   27.7753   10.0597 C   0  0  0  0  0  0
    2.4804   27.9408    9.4688 C   0  0  0  0  0  0
    2.6960   28.9981    8.5756 C   0  0  0  0  0  0
    3.9097   29.2192    7.9003 N   0  0  0  0  0  0
    5.0498   28.3132    7.9678 C   0  0  0  0  0  0
    4.8595   27.1243    7.0378 C   0  0  0  0  0  0
    4.6250   27.3009    5.6672 C   0  0  0  0  0  0
    4.4587   26.1838    4.8454 C   0  0  0  0  0  0
    4.5407   24.9155    5.4222 C   0  0  0  0  0  0
    4.7837   24.7198    6.7437 N   0  0  0  0  0  0
    4.9455   25.8177    7.5270 C   0  0  0  0  0  0
    1.6410   29.8540    8.3639 N   0  0  0  0  0  0
    1.6191   30.9427    7.5427 N   0  0  0  0  0  0
    0.4582   31.5193    7.7760 C   0  0  0  0  0  0
   -0.3723   30.7829    8.6104 C   0  0  0  0  0  0
   -2.1567   31.1108    9.1884 Br  0  0  0  0  0  0
    0.4146   29.6845    9.0219 C   0  0  0  0  0  0
    0.1977   28.6530    9.8383 N   0  0  0  0  0  0
    1.1880   23.2654   11.4274 H   0  0  0  0  0  0
   -0.2649   23.7582   13.3568 H   0  0  0  0  0  0
   -0.9869   26.0892   13.7906 H   0  0  0  0  0  0
   -0.2807   27.8919   12.3040 H   0  0  0  0  0  0
    3.2798   27.2534    9.6992 H   0  0  0  0  0  0
    3.9826   30.0354    7.3027 H   0  0  0  0  0  0
    5.2416   27.9892    8.9916 H   0  0  0  0  0  0
    5.9276   28.8684    7.6404 H   0  0  0  0  0  0
    4.5690   28.2947    5.2452 H   0  0  0  0  0  0
    4.2723   26.2955    3.7870 H   0  0  0  0  0  0
    4.4146   24.0284    4.8181 H   0  0  0  0  0  0
    5.1319   25.6291    8.5757 H   0  0  0  0  0  0
    0.1976   32.4635    7.3209 H   0  0  0  0  0  0
  1  2  1  0  0  0
  2  3  2  0  0  0
  2  7  1  0  0  0
  3  4  1  0  0  0
  3 26  1  0  0  0
  4  5  2  0  0  0
  4 27  1  0  0  0
  5  6  1  0  0  0
  5 28  1  0  0  0
  6  7  2  0  0  0
  6 29  1  0  0  0
  7  8  1  0  0  0
  8  9  1  0  0  0
  8 25  2  0  0  0
  9 10  2  0  0  0
  9 30  1  0  0  0
 10 11  1  0  0  0
 10 19  1  0  0  0
 11 12  1  0  0  0
 11 31  1  0  0  0
 12 13  1  0  0  0
 12 32  1  0  0  0
 12 33  1  0  0  0
 13 14  2  0  0  0
 13 18  1  0  0  0
 14 15  1  0  0  0
 14 34  1  0  0  0
 15 16  2  0  0  0
 15 35  1  0  0  0
 16 17  1  0  0  0
 16 36  1  0  0  0
 17 18  2  0  0  0
 18 37  1  0  0  0
 19 20  1  0  0  0
 19 24  1  0  0  0
 20 21  2  0  0  0
 21 22  1  0  0  0
 21 38  1  0  0  0
 22 23  1  0  0  0
 22 24  2  0  0  0
 24 25  1  0  0  0
M  END
> <s_m_entry_id>
33122

> <s_m_entry_name>
dock_pv.523

> <s_m_Source_Path>
/home/csk/Desktop/cluster/DUD-E-result/cdk2

> <s_m_Source_File>
dock_pv.maegz

> <i_m_Source_File_Index>
523

> <chembl_id>
CHEMBL401303

> <chembl_pref_name>
None

> <i_lp_mmshare_version>
53161

> <i_f3d_flags>
0

> <r_lp_tautomer_probability>
1

> <s_lp_Force_Field>
OPLS_2005

> <r_lp_Energy>
21.700025

> <b_lp_Chiralities_Consistent>
1

> <s_lp_Variant>
CHEMBL301_lig1446-1

> <s_i_glide_gridfile>
glide-grid_1h00

> <i_i_glide_lignum>
1959

> <i_i_glide_rotatable_bonds>
4

> <r_i_docking_score>
-6.97937118083009

> <r_i_glide_ligand_efficiency>
-0.279174847233204

> <r_i_glide_ligand_efficiency_sa>
-0.816312204496886

> <r_i_glide_ligand_efficiency_ln>
-1.65432012473326

> <r_i_glide_gscore>
-6.97937118083009

> <r_i_glide_lipo>
-2.64727002166464

> <r_i_glide_hbond>
-0.29226486312106

> <r_i_glide_metal>
0

> <r_i_glide_rewards>
-2.2120399527169

> <r_i_glide_evdw>
-40.3604507446289

> <r_i_glide_ecoul>
-1.79289388656616

> <r_i_glide_erotb>
0.459160276888881

> <r_i_glide_esite>
0

> <r_i_glide_emodel>
-60.1892783634559

> <r_i_glide_energy>
-42.1533446311951

> <r_i_glide_einternal>
1.65195727348328

> <i_i_glide_confnum>
1

> <i_i_glide_posenum>
359

> <r_i_glide_eff_state_penalty>
0

> <s_user_duplicate_titles>
CHEMBL301_lig1446

> <s_m_subgroup_title>
dock_pv

> <s_m_subgroupid>
dock_pv

> <b_m_subgroup_collapsed>
1

$$$$
CHEMBL301_lig1463
                    3D
 Schrodinger Suite 2021-1.
 37 38  0  0  1  0            999 V2000
    0.5678   19.9540   11.3333 C   0  0  0  0  0  0
    1.6589   21.2286   12.1706 S   0  0  0  0  0  0
    2.8580   21.4132   11.3467 O   0  0  0  0  0  0
    1.7797   20.8867   13.5916 O   0  0  0  0  0  0
    0.7165   22.7446   12.0679 C   0  0  0  0  0  0
   -0.2162   23.0548   13.0580 C   0  0  0  0  0  0
   -0.9027   24.2663   13.0041 C   0  0  0  0  0  0
   -0.6515   25.1762   11.9754 C   0  0  0  0  0  0
   -1.3730   26.3822   11.9783 N   0  0  0  0  0  0
   -1.1918   27.5971   11.3072 C   0  0  0  0  0  0
   -2.2339   28.4546   11.3762 N   0  0  0  0  0  0
   -2.1146   29.6149   10.6864 C   0  0  0  0  0  0
   -0.9771   29.9488    9.9441 C   0  0  0  0  0  0
    0.0752   29.0156    9.9630 C   0  0  0  0  0  0
    1.2575   29.2565    9.2817 O   0  0  0  0  0  0
    2.3308   28.3094    9.3760 C   0  0  0  0  0  0
    3.4631   28.6480    8.5015 C   0  0  0  0  0  0
    4.4199   28.8691    7.7762 C   0  0  0  0  0  0
   -0.0351   27.8407   10.6465 N   0  0  0  0  0  0
   -0.9637   31.2479    9.1416 C   0  0  0  0  0  0
   -0.0448   31.2585    8.1759 F   0  0  0  0  0  0
   -2.1571   31.4330    8.5760 F   0  0  0  0  0  0
   -0.7421   32.2759    9.9578 F   0  0  0  0  0  0
    0.2718   24.8445   10.9768 C   0  0  0  0  0  0
    0.9596   23.6383   11.0254 C   0  0  0  0  0  0
    1.0882   18.9975   11.3324 H   0  0  0  0  0  0
   -0.3525   19.8543   11.9036 H   0  0  0  0  0  0
    0.3577   20.2712   10.3140 H   0  0  0  0  0  0
   -0.4024   22.3652   13.8688 H   0  0  0  0  0  0
   -1.6208   24.5019   13.7757 H   0  0  0  0  0  0
   -2.2268   26.3669   12.5143 H   0  0  0  0  0  0
   -2.9675   30.2774   10.7255 H   0  0  0  0  0  0
    2.0031   27.3061    9.1025 H   0  0  0  0  0  0
    2.6948   28.2496   10.4028 H   0  0  0  0  0  0
    5.2537   29.0518    7.1358 H   0  0  0  0  0  0
    0.4673   25.5019   10.1461 H   0  0  0  0  0  0
    1.6759   23.4070   10.2498 H   0  0  0  0  0  0
  1  2  1  0  0  0
  1 26  1  0  0  0
  1 27  1  0  0  0
  1 28  1  0  0  0
  2  3  2  0  0  0
  2  4  2  0  0  0
  2  5  1  0  0  0
  5  6  2  0  0  0
  5 25  1  0  0  0
  6  7  1  0  0  0
  6 29  1  0  0  0
  7  8  2  0  0  0
  7 30  1  0  0  0
  8  9  1  0  0  0
  8 24  1  0  0  0
  9 10  1  0  0  0
  9 31  1  0  0  0
 10 11  2  0  0  0
 10 19  1  0  0  0
 11 12  1  0  0  0
 12 13  2  0  0  0
 12 32  1  0  0  0
 13 14  1  0  0  0
 13 20  1  0  0  0
 14 15  1  0  0  0
 14 19  2  0  0  0
 15 16  1  0  0  0
 16 17  1  0  0  0
 16 33  1  0  0  0
 16 34  1  0  0  0
 17 18  3  0  0  0
 18 35  1  0  0  0
 20 21  1  0  0  0
 20 22  1  0  0  0
 20 23  1  0  0  0
 24 25  2  0  0  0
 24 36  1  0  0  0
 25 37  1  0  0  0
M  END
> <s_m_entry_id>
33123

> <s_m_entry_name>
dock_pv.524

> <s_m_Source_Path>
/home/csk/Desktop/cluster/DUD-E-result/cdk2

> <s_m_Source_File>
dock_pv.maegz

> <i_m_Source_File_Index>
524

> <chembl_id>
CHEMBL3644028

> <chembl_pref_name>
None

> <i_lp_mmshare_version>
53161

> <i_f3d_flags>
0

> <r_lp_tautomer_probability>
0.999999917912647

> <s_lp_Force_Field>
OPLS_2005

> <r_lp_Energy>
0.215312

> <b_lp_Chiralities_Consistent>
1

> <s_lp_Variant>
CHEMBL301_lig1463-1

> <s_i_glide_gridfile>
glide-grid_1h00

> <i_i_glide_lignum>
1976

> <i_i_glide_rotatable_bonds>
7

> <r_i_docking_score>
-6.97932457809542

> <r_i_glide_ligand_efficiency>
-0.279172983123817

> <r_i_glide_ligand_efficiency_sa>
-0.816306753807978

> <r_i_glide_ligand_efficiency_ln>
-1.65430907848857

> <r_i_glide_gscore>
-6.97932457809542

> <r_i_glide_lipo>
-2.24958703034938

> <r_i_glide_hbond>
0

> <r_i_glide_metal>
0

> <r_i_glide_rewards>
-2.46891022828715

> <r_i_glide_evdw>
-36.4673614501953

> <r_i_glide_ecoul>
-6.53569412231445

> <r_i_glide_erotb>
0.699906309514691

> <r_i_glide_esite>
-0.157011438116652

> <r_i_glide_emodel>
-60.932232824513

> <r_i_glide_energy>
-43.0030555725098

> <r_i_glide_einternal>
2.69150114059448

> <i_i_glide_confnum>
19

> <i_i_glide_posenum>
292

> <r_i_glide_eff_state_penalty>
0

> <s_user_duplicate_titles>
CHEMBL301_lig1463

> <s_m_subgroup_title>
dock_pv

> <s_m_subgroupid>
dock_pv

> <b_m_subgroup_collapsed>
1

$$$$
CHEMBL301_lig1172
                    3D
 Schrodinger Suite 2021-1.
 28 29  0  0  1  0            999 V2000
   -0.0381   32.4795    8.1760 C   0  0  0  0  0  0
    0.9991   31.9595    7.4682 N   0  0  0  0  0  0
    1.3177   30.6649    7.7219 C   0  0  0  0  0  0
    0.6409   29.8520    8.5760 N   0  0  0  0  0  0
   -0.4147   30.3837    9.2502 C   0  0  0  0  0  0
   -0.7902   31.7225    9.0742 C   0  0  0  0  0  0
    2.4580   30.1964    7.0553 N   0  0  0  0  0  0
    3.2580   29.0520    7.2152 C   0  0  0  0  0  0
    4.0509   28.6520    6.1343 C   0  0  0  0  0  0
    4.8580   27.5225    6.2272 C   0  0  0  0  0  0
    4.8580   26.7782    7.4019 C   0  0  0  0  0  0
    4.0670   27.1649    8.4805 C   0  0  0  0  0  0
    3.2892   28.3143    8.4028 C   0  0  0  0  0  0
   -2.2358   32.5286   10.0250 Br  0  0  0  0  0  0
   -1.0957   29.5884   10.1840 N   0  0  0  0  0  0
   -0.4299   28.4518   10.8153 C   0  0  0  0  0  0
   -0.8279   27.1596   10.2305 C   0  0  0  0  0  0
   -1.1420   26.1414    9.7760 N   0  0  0  0  0  0
   -0.2750   33.5177    7.9928 H   0  0  0  0  0  0
    2.9174   30.8949    6.4844 H   0  0  0  0  0  0
    4.0533   29.2264    5.2194 H   0  0  0  0  0  0
    5.4786   27.2271    5.3934 H   0  0  0  0  0  0
    5.4719   25.8928    7.4789 H   0  0  0  0  0  0
    4.0580   26.5698    9.3760 H   0  0  0  0  0  0
    2.7098   28.6063    9.2638 H   0  0  0  0  0  0
   -1.8421   30.0310   10.7029 H   0  0  0  0  0  0
   -0.7133   28.4241   11.8676 H   0  0  0  0  0  0
    0.6575   28.5316   10.7813 H   0  0  0  0  0  0
  1  2  2  0  0  0
  1  6  1  0  0  0
  1 19  1  0  0  0
  2  3  1  0  0  0
  3  4  2  0  0  0
  3  7  1  0  0  0
  4  5  1  0  0  0
  5  6  2  0  0  0
  5 15  1  0  0  0
  6 14  1  0  0  0
  7  8  1  0  0  0
  7 20  1  0  0  0
  8  9  2  0  0  0
  8 13  1  0  0  0
  9 10  1  0  0  0
  9 21  1  0  0  0
 10 11  2  0  0  0
 10 22  1  0  0  0
 11 12  1  0  0  0
 11 23  1  0  0  0
 12 13  2  0  0  0
 12 24  1  0  0  0
 13 25  1  0  0  0
 15 16  1  0  0  0
 15 26  1  0  0  0
 16 17  1  0  0  0
 16 27  1  0  0  0
 16 28  1  0  0  0
 17 18  3  0  0  0
M  END
> <s_m_entry_id>
33124

> <s_m_entry_name>
dock_pv.525

> <s_m_Source_Path>
/home/csk/Desktop/cluster/DUD-E-result/cdk2

> <s_m_Source_File>
dock_pv.maegz

> <i_m_Source_File_Index>
525

> <chembl_id>
CHEMBL2203628

> <chembl_pref_name>
None

> <i_lp_mmshare_version>
53161

> <i_f3d_flags>
0

> <r_lp_tautomer_probability>
0.999999624730965

> <s_lp_Force_Field>
OPLS_2005

> <r_lp_Energy>
2.668721

> <b_lp_Chiralities_Consistent>
1

> <s_lp_Variant>
CHEMBL301_lig1172-1

> <s_i_glide_gridfile>
glide-grid_1h00

> <i_i_glide_lignum>
1585

> <i_i_glide_rotatable_bonds>
4

> <r_i_docking_score>
-6.97624697980844

> <r_i_glide_ligand_efficiency>
-0.387569276656024

> <r_i_glide_ligand_efficiency_sa>
-1.01571884547744

> <r_i_glide_ligand_efficiency_ln>
-1.7932083137425

> <r_i_glide_gscore>
-6.97624697980844

> <r_i_glide_lipo>
-2.17459752140489

> <r_i_glide_hbond>
-0.260568711211441

> <r_i_glide_metal>
0

> <r_i_glide_rewards>
-2.85377958241876

> <r_i_glide_evdw>
-30.9065818786621

> <r_i_glide_ecoul>
-4.93284893035889

> <r_i_glide_erotb>
0.597955268713599

> <r_i_glide_esite>
0

> <r_i_glide_emodel>
-51.6241311891449

> <r_i_glide_energy>
-35.839430809021

> <r_i_glide_einternal>
0.975743055343628

> <i_i_glide_confnum>
1

> <i_i_glide_posenum>
313

> <r_i_glide_eff_state_penalty>
0

> <s_user_duplicate_titles>
CHEMBL301_lig1172

> <s_m_subgroup_title>
dock_pv

> <s_m_subgroupid>
dock_pv

> <b_m_subgroup_collapsed>
1

$$$$
CHEMBL301_lig1436
                    3D
 Schrodinger Suite 2021-1.
 41 43  0  0  1  0            999 V2000
    7.0910   25.3806    5.6899 C   0  0  0  0  0  0
    6.2487   25.6256    7.3545 S   0  0  1  0  0  0
    5.2921   24.4348    7.3757 N   0  0  0  0  0  0
    7.2515   25.9054    8.3873 O   0  0  0  0  0  0
    5.1083   27.0084    7.2379 C   0  0  0  0  0  0
    4.4743   27.4803    8.3912 C   0  0  0  0  0  0
    3.5571   28.5226    8.3180 C   0  0  0  0  0  0
    3.2708   29.1020    7.0839 C   0  0  0  0  0  0
    2.4141   30.2016    6.9522 N   0  0  0  0  0  0
    1.3248   30.6657    7.6957 C   0  0  0  0  0  0
    0.9839   31.9534    7.4395 N   0  0  0  0  0  0
   -0.0331   32.4681    8.1760 C   0  0  0  0  0  0
   -0.7423   31.7116    9.1077 C   0  0  0  0  0  0
   -2.1721   32.5146   10.0864 Br  0  0  0  0  0  0
   -0.3418   30.3790    9.2926 C   0  0  0  0  0  0
   -1.0221   29.6078   10.2491 N   0  0  0  0  0  0
   -0.8706   28.3140   10.7764 C   0  0  0  0  0  0
   -1.7722   27.9380   11.7759 C   0  0  0  0  0  0
   -1.7028   26.6718   12.3502 C   0  0  0  0  0  0
   -0.7244   25.7766   11.9269 C   0  0  0  0  0  0
    0.1841   26.1396   10.9358 C   0  0  0  0  0  0
    0.1120   27.4062   10.3610 C   0  0  0  0  0  0
    0.6995   29.8526    8.5892 N   0  0  0  0  0  0
    3.9192   28.6475    5.9350 C   0  0  0  0  0  0
    4.8309   27.5994    6.0053 C   0  0  0  0  0  0
    6.3392   25.2295    4.9167 H   0  0  0  0  0  0
    7.7335   24.5040    5.7543 H   0  0  0  0  0  0
    7.7005   26.2521    5.4663 H   0  0  0  0  0  0
    5.7626   23.5633    7.1900 H   0  0  0  0  0  0
    4.6790   27.0520    9.3563 H   0  0  0  0  0  0
    3.0900   28.8836    9.2217 H   0  0  0  0  0  0
    2.7908   30.9021    6.3291 H   0  0  0  0  0  0
   -0.2911   33.5002    7.9879 H   0  0  0  0  0  0
   -1.7707   30.1252   10.6873 H   0  0  0  0  0  0
   -2.5344   28.6254   12.1186 H   0  0  0  0  0  0
   -2.4062   26.3901   13.1204 H   0  0  0  0  0  0
   -0.6680   24.7940   12.3718 H   0  0  0  0  0  0
    0.9448   25.4440   10.6127 H   0  0  0  0  0  0
    0.8314   27.6507    9.5986 H   0  0  0  0  0  0
    3.7276   29.1147    4.9822 H   0  0  0  0  0  0
    5.3167   27.2668    5.1014 H   0  0  0  0  0  0
  1  2  1  0  0  0
  1 26  1  0  0  0
  1 27  1  0  0  0
  1 28  1  0  0  0
  2  3  2  0  0  0
  2  4  2  0  0  0
  2  5  1  0  0  0
  3 29  1  0  0  0
  5  6  2  0  0  0
  5 25  1  0  0  0
  6  7  1  0  0  0
  6 30  1  0  0  0
  7  8  2  0  0  0
  7 31  1  0  0  0
  8  9  1  0  0  0
  8 24  1  0  0  0
  9 10  1  0  0  0
  9 32  1  0  0  0
 10 11  2  0  0  0
 10 23  1  0  0  0
 11 12  1  0  0  0
 12 13  2  0  0  0
 12 33  1  0  0  0
 13 14  1  0  0  0
 13 15  1  0  0  0
 15 16  1  0  0  0
 15 23  2  0  0  0
 16 17  1  0  0  0
 16 34  1  0  0  0
 17 18  2  0  0  0
 17 22  1  0  0  0
 18 19  1  0  0  0
 18 35  1  0  0  0
 19 20  2  0  0  0
 19 36  1  0  0  0
 20 21  1  0  0  0
 20 37  1  0  0  0
 21 22  2  0  0  0
 21 38  1  0  0  0
 22 39  1  0  0  0
 24 25  2  0  0  0
 24 40  1  0  0  0
 25 41  1  0  0  0
M  END
> <s_m_entry_id>
33125

> <s_m_entry_name>
dock_pv.526

> <s_m_Source_Path>
/home/csk/Desktop/cluster/DUD-E-result/cdk2

> <s_m_Source_File>
dock_pv.maegz

> <i_m_Source_File_Index>
526

> <chembl_id>
CHEMBL3940661

> <chembl_pref_name>
None

> <i_lp_mmshare_version>
53161

> <i_f3d_flags>
0

> <r_lp_tautomer_probability>
0.999999624730965

> <s_lp_Force_Field>
OPLS_2005

> <r_lp_Energy>
10.104392

> <b_lp_Chiralities_Consistent>
1

> <s_lp_Variant>
CHEMBL301_lig1436-1

> <s_i_glide_gridfile>
glide-grid_1h00

> <i_i_glide_lignum>
1948

> <i_i_glide_rotatable_bonds>
5

> <r_i_docking_score>
-6.9750276791487

> <r_i_glide_ligand_efficiency>
-0.279001107165948

> <r_i_glide_ligand_efficiency_sa>
-0.815804185458937

> <r_i_glide_ligand_efficiency_ln>
-1.65329058467053

> <r_i_glide_gscore>
-6.9750276791487

> <r_i_glide_lipo>
-2.7601408225226

> <r_i_glide_hbond>
-0.199335520918859

> <r_i_glide_metal>
0

> <r_i_glide_rewards>
-1.49840088413132

> <r_i_glide_evdw>
-42.487003326416

> <r_i_glide_ecoul>
-5.63197660446167

> <r_i_glide_erotb>
0.451996205414131

> <r_i_glide_esite>
0

> <r_i_glide_emodel>
-66.6317016130385

> <r_i_glide_energy>
-48.1189799308777

> <r_i_glide_einternal>
2.09635829925537

> <i_i_glide_confnum>
4

> <i_i_glide_posenum>
395

> <r_i_glide_eff_state_penalty>
0

> <s_user_duplicate_titles>
CHEMBL301_lig1436

> <s_m_subgroup_title>
dock_pv

> <s_m_subgroupid>
dock_pv

> <b_m_subgroup_collapsed>
1

$$$$
CHEMBL301_lig1159
                    3D
 Schrodinger Suite 2021-1.
 46 49  0  0  1  0            999 V2000
    0.8580   31.2840    7.7995 N   0  0  0  0  0  0
    1.4993   30.1083    8.0150 C   0  0  0  0  0  0
    1.0779   29.1819    8.9762 C   0  0  0  0  0  0
   -0.0412   29.4546    9.7620 C   0  0  0  0  0  0
   -0.2008   31.5538    8.5724 C   0  0  0  0  0  0
   -0.6671   30.6547    9.5400 N   0  0  0  0  0  0
   -1.7672   31.1326   10.1811 N   0  0  0  0  0  0
   -1.9715   32.3251    9.6655 C   0  0  0  0  0  0
   -1.0551   32.6676    8.6733 C   0  0  0  0  0  0
    2.6070   29.8871    7.1815 N   0  0  0  0  0  0
    3.4363   28.6812    7.1919 C   0  0  2  0  0  0
    4.6023   28.7752    8.1682 C   0  0  0  0  0  0
    5.2607   27.3851    8.2486 C   0  0  0  0  0  0
    5.6691   26.7921    6.8809 C   0  0  2  0  0  0
    4.6081   26.9462    5.7667 C   0  0  0  0  0  0
    3.9445   28.3398    5.7762 C   0  0  0  0  0  0
   -0.5745   28.5732   10.7189 N   0  0  0  0  0  0
   -0.2771   27.2597   11.1304 C   0  0  0  0  0  0
   -1.3244   26.4375   11.5880 C   0  0  0  0  0  0
   -1.0775   25.1038   11.9236 C   0  0  0  0  0  0
    0.2090   24.5794   11.8212 C   0  0  0  0  0  0
    1.2594   25.3964   11.4077 C   0  0  0  0  0  0
    1.0186   26.7292   11.0759 C   0  0  0  0  0  0
    6.2283   25.4603    6.9760 N   0  0  0  0  0  0
   -2.9401   27.0376   11.7760 Cl  0  0  0  0  0  0
    1.5866   28.2479    9.0692 H   0  0  0  0  0  0
   -2.7847   32.9477   10.0123 H   0  0  0  0  0  0
   -1.0121   33.5907    8.1169 H   0  0  0  0  0  0
    2.9700   30.6843    6.6753 H   0  0  0  0  0  0
    2.8581   27.8520    7.5715 H   0  0  0  0  0  0
    5.3218   29.5358    7.8544 H   0  0  0  0  0  0
    4.2425   29.0507    9.1543 H   0  0  0  0  0  0
    4.5399   26.7144    8.7208 H   0  0  0  0  0  0
    6.1201   27.4501    8.9137 H   0  0  0  0  0  0
    6.4622   27.4526    6.5543 H   0  0  0  0  0  0
    3.8230   26.2025    5.9086 H   0  0  0  0  0  0
    5.0576   26.7680    4.7887 H   0  0  0  0  0  0
    3.1271   28.3616    5.0555 H   0  0  0  0  0  0
    4.6670   29.0859    5.4409 H   0  0  0  0  0  0
   -1.4470   28.9247   11.0921 H   0  0  0  0  0  0
   -1.8882   24.4770   12.2683 H   0  0  0  0  0  0
    0.3968   23.5487   12.0830 H   0  0  0  0  0  0
    2.2653   25.0096   11.3606 H   0  0  0  0  0  0
    1.8718   27.3418   10.8321 H   0  0  0  0  0  0
    6.9346   25.4476    7.6960 H   0  0  0  0  0  0
    5.5055   24.8201    7.2683 H   0  0  0  0  0  0
  1  5  1  0  0  0
  1  2  2  0  0  0
  2  3  1  0  0  0
  2 10  1  0  0  0
  3  4  2  0  0  0
  3 26  1  0  0  0
  4  6  1  0  0  0
  4 17  1  0  0  0
  5  6  1  0  0  0
  5  9  2  0  0  0
  6  7  1  0  0  0
  7  8  2  0  0  0
  8  9  1  0  0  0
  8 27  1  0  0  0
  9 28  1  0  0  0
 10 11  1  0  0  0
 10 29  1  0  0  0
 11 12  1  0  0  0
 11 16  1  0  0  0
 11 30  1  0  0  0
 12 13  1  0  0  0
 12 31  1  0  0  0
 12 32  1  0  0  0
 13 14  1  0  0  0
 13 33  1  0  0  0
 13 34  1  0  0  0
 14 15  1  0  0  0
 14 24  1  0  0  0
 14 35  1  0  0  0
 15 16  1  0  0  0
 15 36  1  0  0  0
 15 37  1  0  0  0
 16 38  1  0  0  0
 16 39  1  0  0  0
 17 18  1  0  0  0
 17 40  1  0  0  0
 18 19  2  0  0  0
 18 23  1  0  0  0
 19 20  1  0  0  0
 19 25  1  0  0  0
 20 21  2  0  0  0
 20 41  1  0  0  0
 21 22  1  0  0  0
 21 42  1  0  0  0
 22 23  2  0  0  0
 22 43  1  0  0  0
 23 44  1  0  0  0
 24 45  1  0  0  0
 24 46  1  0  0  0
M  END
> <s_m_entry_id>
33126

> <s_m_entry_name>
dock_pv.527

> <s_m_Source_Path>
/home/csk/Desktop/cluster/DUD-E-result/cdk2

> <s_m_Source_File>
dock_pv.maegz

> <i_m_Source_File_Index>
527

> <chembl_id>
CHEMBL2163607

> <chembl_pref_name>
None

> <i_lp_mmshare_version>
53161

> <i_f3d_flags>
0

> <r_lp_tautomer_probability>
1

> <s_lp_Force_Field>
OPLS_2005

> <r_lp_Energy>
27.091171

> <b_lp_Chiralities_Consistent>
1

> <s_lp_Variant>
CHEMBL301_lig1159-1

> <s_i_glide_gridfile>
glide-grid_1h00

> <i_i_glide_lignum>
1571

> <i_i_glide_rotatable_bonds>
4

> <r_i_docking_score>
-6.97208664980852

> <r_i_glide_ligand_efficiency>
-0.278883465992341

> <r_i_glide_ligand_efficiency_sa>
-0.815460200580933

> <r_i_glide_ligand_efficiency_ln>
-1.65259347258137

> <r_i_glide_gscore>
-6.97208664980852

> <r_i_glide_lipo>
-2.96777664510064

> <r_i_glide_hbond>
-0.27181115442102

> <r_i_glide_metal>
0

> <r_i_glide_rewards>
-2.23223594125671

> <r_i_glide_evdw>
-38.6814765930176

> <r_i_glide_ecoul>
-1.11540043354034

> <r_i_glide_erotb>
0.601120985651782

> <r_i_glide_esite>
0

> <r_i_glide_emodel>
-53.0438811222301

> <r_i_glide_energy>
-39.7968770265579

> <r_i_glide_einternal>
8.70984840393066

> <i_i_glide_confnum>
16

> <i_i_glide_posenum>
100

> <r_i_glide_eff_state_penalty>
0

> <s_user_duplicate_titles>
CHEMBL301_lig1159

> <s_m_subgroup_title>
dock_pv

> <s_m_subgroupid>
dock_pv

> <b_m_subgroup_collapsed>
1

$$$$
CHEMBL301_lig1445
                    3D
 Schrodinger Suite 2021-1.
 38 41  0  0  1  0            999 V2000
    0.5070   30.6702    7.5636 F   0  0  0  0  0  0
   -0.3419   30.9582    8.5784 C   0  0  0  0  0  0
   -0.9651   32.2065    8.5761 C   0  0  0  0  0  0
   -1.8812   32.5364    9.5694 C   0  0  0  0  0  0
   -2.1865   31.6112   10.5599 C   0  0  0  0  0  0
   -1.5392   30.3783   10.5879 C   0  0  0  0  0  0
   -0.5820   30.0351    9.6171 C   0  0  0  0  0  0
    0.2009   28.7666    9.7507 C   0  0  0  0  0  0
    1.5480   28.7062    9.3774 C   0  0  0  0  0  0
    2.2960   27.5688    9.6756 C   0  0  0  0  0  0
    3.6580   27.4553    9.3758 N   0  0  0  0  0  0
    4.4003   28.3151    8.4569 C   0  0  0  0  0  0
    4.4585   27.6777    7.0751 C   0  0  0  0  0  0
    4.9326   26.3687    6.9017 C   0  0  0  0  0  0
    4.9692   25.8063    5.6253 C   0  0  0  0  0  0
    4.5393   26.5779    4.5436 C   0  0  0  0  0  0
    4.0922   27.8521    4.6836 N   0  0  0  0  0  0
    4.0595   28.3852    5.9336 C   0  0  0  0  0  0
    1.6460   26.5375   10.3092 N   0  0  0  0  0  0
    2.1777   25.3340   10.6722 N   0  0  0  0  0  0
    1.1852   24.6744   11.2274 C   0  0  0  0  0  0
   -0.0110   25.3855   11.2495 C   0  0  0  0  0  0
   -1.5427   24.9422   11.8759 Cl  0  0  0  0  0  0
    0.2828   26.6256   10.6342 C   0  0  0  0  0  0
   -0.4337   27.7240   10.3604 N   0  0  0  0  0  0
   -0.7370   32.9214    7.7997 H   0  0  0  0  0  0
   -2.3533   33.5068    9.5732 H   0  0  0  0  0  0
   -2.8981   31.8558   11.3328 H   0  0  0  0  0  0
   -1.7638   29.7039   11.4023 H   0  0  0  0  0  0
    2.0239   29.5644    8.9368 H   0  0  0  0  0  0
    4.1534   26.6460    9.7413 H   0  0  0  0  0  0
    5.4188   28.3892    8.8396 H   0  0  0  0  0  0
    4.0115   29.3318    8.4083 H   0  0  0  0  0  0
    5.2609   25.7897    7.7532 H   0  0  0  0  0  0
    5.3268   24.7970    5.4736 H   0  0  0  0  0  0
    4.5469   26.1761    3.5392 H   0  0  0  0  0  0
    3.6996   29.4042    6.0093 H   0  0  0  0  0  0
    1.3268   23.6768   11.6163 H   0  0  0  0  0  0
  1  2  1  0  0  0
  2  3  2  0  0  0
  2  7  1  0  0  0
  3  4  1  0  0  0
  3 26  1  0  0  0
  4  5  2  0  0  0
  4 27  1  0  0  0
  5  6  1  0  0  0
  5 28  1  0  0  0
  6  7  2  0  0  0
  6 29  1  0  0  0
  7  8  1  0  0  0
  8  9  1  0  0  0
  8 25  2  0  0  0
  9 10  2  0  0  0
  9 30  1  0  0  0
 10 11  1  0  0  0
 10 19  1  0  0  0
 11 12  1  0  0  0
 11 31  1  0  0  0
 12 13  1  0  0  0
 12 32  1  0  0  0
 12 33  1  0  0  0
 13 14  2  0  0  0
 13 18  1  0  0  0
 14 15  1  0  0  0
 14 34  1  0  0  0
 15 16  2  0  0  0
 15 35  1  0  0  0
 16 17  1  0  0  0
 16 36  1  0  0  0
 17 18  2  0  0  0
 18 37  1  0  0  0
 19 20  1  0  0  0
 19 24  1  0  0  0
 20 21  2  0  0  0
 21 22  1  0  0  0
 21 38  1  0  0  0
 22 23  1  0  0  0
 22 24  2  0  0  0
 24 25  1  0  0  0
M  END
> <s_m_entry_id>
33127

> <s_m_entry_name>
dock_pv.528

> <s_m_Source_Path>
/home/csk/Desktop/cluster/DUD-E-result/cdk2

> <s_m_Source_File>
dock_pv.maegz

> <i_m_Source_File_Index>
528

> <chembl_id>
CHEMBL3642648

> <chembl_pref_name>
None

> <i_lp_mmshare_version>
53161

> <i_f3d_flags>
0

> <r_lp_tautomer_probability>
1

> <s_lp_Force_Field>
OPLS_2005

> <r_lp_Energy>
25.777733

> <b_lp_Chiralities_Consistent>
1

> <s_lp_Variant>
CHEMBL301_lig1445-1

> <s_i_glide_gridfile>
glide-grid_1h00

> <i_i_glide_lignum>
1958

> <i_i_glide_rotatable_bonds>
4

> <r_i_docking_score>
-6.9691212645797

> <r_i_glide_ligand_efficiency>
-0.278764850583188

> <r_i_glide_ligand_efficiency_sa>
-0.815113367020918

> <r_i_glide_ligand_efficiency_ln>
-1.65189058741671

> <r_i_glide_gscore>
-6.9691212645797

> <r_i_glide_lipo>
-2.98389393583839

> <r_i_glide_hbond>
-0.149599962066544

> <r_i_glide_metal>
0

> <r_i_glide_rewards>
-1.86983098093335

> <r_i_glide_evdw>
-39.6321029663086

> <r_i_glide_ecoul>
-3.87420129776001

> <r_i_glide_erotb>
0.610444975151369

> <r_i_glide_esite>
-0.0135060179133601

> <r_i_glide_emodel>
-59.9391201815261

> <r_i_glide_energy>
-43.5063042640686

> <r_i_glide_einternal>
4.15617036819458

> <i_i_glide_confnum>
17

> <i_i_glide_posenum>
264

> <r_i_glide_eff_state_penalty>
0

> <s_user_duplicate_titles>
CHEMBL301_lig1445

> <s_m_subgroup_title>
dock_pv

> <s_m_subgroupid>
dock_pv

> <b_m_subgroup_collapsed>
1

$$$$
CHEMBL301_lig510
                    3D
 Schrodinger Suite 2021-1.
 54 58  0  0  1  0            999 V2000
   10.8054   24.8801    4.7721 N   0  0  0  0  0  0
    1.8338   29.9496    7.9785 C   0  0  0  0  0  0
    1.0710   29.4415    9.0429 C   0  0  0  0  0  0
    1.6138   28.3696    9.7760 C   0  0  0  0  0  0
    2.8716   27.8512    9.4797 C   0  0  0  0  0  0
    3.6263   28.3952    8.4422 C   0  0  0  0  0  0
    3.0934   29.4352    7.6822 C   0  0  0  0  0  0
    5.0240   27.8627    8.1368 C   0  0  0  0  0  0
    5.0438   26.7697    7.0540 C   0  0  0  0  0  0
    4.4403   25.7099    7.2228 O   0  0  0  0  0  0
    5.7891   27.0519    5.9723 N   0  0  0  0  0  0
    5.9554   26.2522    4.8614 C   0  0  0  0  0  0
    5.5910   25.3349    2.9761 N   0  0  0  0  0  0
    5.0112   26.0065    3.9878 N   0  0  0  0  0  0
    6.9306   25.1105    3.1942 C   0  0  0  0  0  0
    7.2111   25.6984    4.4481 C   0  0  0  0  0  0
    8.5207   25.6360    4.9517 C   0  0  0  0  0  0
    9.5125   24.9788    4.2109 C   0  0  0  0  0  0
    9.1901   24.4238    2.9626 C   0  0  0  0  0  0
    7.9037   24.4720    2.4271 C   0  0  0  0  0  0
   11.9539   24.5181    3.9456 C   0  0  0  0  0  0
   12.1248   22.9820    3.9661 C   0  0  0  0  0  0
   11.3972   22.4120    5.2001 C   0  0  0  0  0  0
   11.0198   23.9196    6.2486 S   0  0  0  0  0  0
   12.2622   24.2524    6.9542 O   0  0  0  0  0  0
    9.7618   23.7250    6.9759 O   0  0  0  0  0  0
   -0.2744   30.0204    9.3923 C   0  0  0  0  0  0
   -0.6458   31.3104    8.9730 C   0  0  0  0  0  0
   -1.8718   31.8639    9.3306 C   0  0  0  0  0  0
   -2.7513   31.1322   10.1176 C   0  0  0  0  0  0
   -2.4157   29.8520   10.5418 C   0  0  0  0  0  0
   -1.1925   29.2998   10.1751 C   0  0  0  0  0  0
    1.4632   30.7502    7.3573 H   0  0  0  0  0  0
    1.0918   27.9409   10.6171 H   0  0  0  0  0  0
    3.2701   27.0414   10.0744 H   0  0  0  0  0  0
    3.6578   29.8506    6.8623 H   0  0  0  0  0  0
    5.6568   28.7035    7.8492 H   0  0  0  0  0  0
    5.4736   27.4501    9.0375 H   0  0  0  0  0  0
    6.3384   27.9030    5.9655 H   0  0  0  0  0  0
    5.0401   25.0522    2.1536 H   0  0  0  0  0  0
    8.7540   26.0826    5.9068 H   0  0  0  0  0  0
    9.9415   23.9186    2.3756 H   0  0  0  0  0  0
    7.6784   24.0337    1.4655 H   0  0  0  0  0  0
   11.8071   24.8384    2.9125 H   0  0  0  0  0  0
   12.8578   25.0521    4.2227 H   0  0  0  0  0  0
   11.7259   22.5345    3.0541 H   0  0  0  0  0  0
   13.1862   22.7317    3.9789 H   0  0  0  0  0  0
   10.4552   21.9209    4.9520 H   0  0  0  0  0  0
   12.0115   21.7277    5.7830 H   0  0  0  0  0  0
    0.0239   31.9213    8.3888 H   0  0  0  0  0  0
   -2.1311   32.8636    9.0148 H   0  0  0  0  0  0
   -3.6967   31.5633   10.4167 H   0  0  0  0  0  0
   -3.1004   29.2946   11.1652 H   0  0  0  0  0  0
   -0.9771   28.2997   10.5140 H   0  0  0  0  0  0
  1 18  1  0  0  0
  1 21  1  0  0  0
  1 24  1  0  0  0
  2  7  1  0  0  0
  2  3  2  0  0  0
  2 33  1  0  0  0
  3  4  1  0  0  0
  3 27  1  0  0  0
  4  5  2  0  0  0
  4 34  1  0  0  0
  5  6  1  0  0  0
  5 35  1  0  0  0
  6  7  2  0  0  0
  6  8  1  0  0  0
  7 36  1  0  0  0
  8  9  1  0  0  0
  8 37  1  0  0  0
  8 38  1  0  0  0
  9 10  2  0  0  0
  9 11  1  0  0  0
 11 12  1  0  0  0
 11 39  1  0  0  0
 12 16  1  0  0  0
 12 14  2  0  0  0
 13 15  1  0  0  0
 13 14  1  0  0  0
 13 40  1  0  0  0
 15 16  2  0  0  0
 15 20  1  0  0  0
 16 17  1  0  0  0
 17 18  2  0  0  0
 17 41  1  0  0  0
 18 19  1  0  0  0
 19 20  2  0  0  0
 19 42  1  0  0  0
 20 43  1  0  0  0
 21 22  1  0  0  0
 21 44  1  0  0  0
 21 45  1  0  0  0
 22 23  1  0  0  0
 22 46  1  0  0  0
 22 47  1  0  0  0
 23 24  1  0  0  0
 23 48  1  0  0  0
 23 49  1  0  0  0
 24 25  2  0  0  0
 24 26  2  0  0  0
 27 28  2  0  0  0
 27 32  1  0  0  0
 28 29  1  0  0  0
 28 50  1  0  0  0
 29 30  2  0  0  0
 29 51  1  0  0  0
 30 31  1  0  0  0
 30 52  1  0  0  0
 31 32  2  0  0  0
 31 53  1  0  0  0
 32 54  1  0  0  0
M  END
> <s_m_entry_id>
33128

> <s_m_entry_name>
dock_pv.529

> <s_m_Source_Path>
/home/csk/Desktop/cluster/DUD-E-result/cdk2

> <s_m_Source_File>
dock_pv.maegz

> <i_m_Source_File_Index>
529

> <chembl_id>
CHEMBL402759

> <chembl_pref_name>
None

> <i_lp_mmshare_version>
53161

> <i_f3d_flags>
0

> <r_lp_tautomer_probability>
0.980392156862745

> <s_lp_Force_Field>
OPLS_2005

> <r_lp_Energy>
28.958941

> <b_lp_Chiralities_Consistent>
1

> <s_lp_Variant>
CHEMBL301_lig510-1

> <s_i_glide_gridfile>
glide-grid_1h00

> <i_i_glide_lignum>
704

> <i_i_glide_rotatable_bonds>
6

> <r_i_docking_score>
-6.96871815648904

> <r_i_glide_ligand_efficiency>
-0.217772442390282

> <r_i_glide_ligand_efficiency_sa>
-0.691384407481318

> <r_i_glide_ligand_efficiency_ln>
-1.5604859553204

> <r_i_glide_gscore>
-6.96871815648904

> <r_i_glide_lipo>
-2.58674595651843

> <r_i_glide_hbond>
-0.456

> <r_i_glide_metal>
0

> <r_i_glide_rewards>
-1.01902336892117

> <r_i_glide_evdw>
-36.8133506774902

> <r_i_glide_ecoul>
-10.4839296340942

> <r_i_glide_erotb>
0.602373664130142

> <r_i_glide_esite>
-0.096065516190931

> <r_i_glide_emodel>
-65.3499339729585

> <r_i_glide_energy>
-47.2972803115845

> <r_i_glide_einternal>
7.65778350830078

> <i_i_glide_confnum>
159

> <i_i_glide_posenum>
101

> <r_i_glide_eff_state_penalty>
0

> <s_user_duplicate_titles>
CHEMBL301_lig510,424754

> <s_m_subgroup_title>
dock_pv

> <s_m_subgroupid>
dock_pv

> <b_m_subgroup_collapsed>
1

$$$$
CHEMBL301_lig922
                    3D
 Schrodinger Suite 2021-1.
 46 49  0  0  1  0            999 V2000
   -0.1499   29.9311    9.1088 C   0  0  0  0  0  0
   -0.4864   29.0159   10.1016 C   0  0  0  0  0  0
    0.4076   28.0301   10.5342 C   0  0  0  0  0  0
    1.6887   27.9489    9.9755 C   0  0  0  0  0  0
    1.6237   30.6480    7.5441 N   0  0  0  0  0  0
    1.1244   29.8525    8.5358 C   0  0  0  0  0  0
    2.0579   28.8627    8.9759 C   0  0  0  0  0  0
    3.2113   29.0948    8.1758 C   0  0  0  0  0  0
    2.8580   30.1554    7.3761 N   0  0  0  0  0  0
    4.5654   28.4313    8.1004 C   0  0  0  0  0  0
   -0.0223   27.0412   11.5681 C   0  0  0  0  0  0
   -1.1436   27.4625   12.8351 S   0  0  0  0  0  0
   -1.0672   25.8000   13.3458 C   0  0  0  0  0  0
   -0.2441   25.0675   12.6385 N   0  0  0  0  0  0
    0.3716   25.7866   11.6195 N   0  0  0  0  0  0
   -1.8259   25.3052   14.3714 N   0  0  0  0  0  0
   -2.7560   26.0166   15.2475 C   0  0  0  0  0  0
   -4.1791   25.4201   15.3168 C   0  0  2  0  0  0
   -4.1719   23.8754   15.4651 C   0  0  0  0  0  0
   -5.4542   23.2305   15.9741 C   0  0  0  0  0  0
   -6.0733   23.6992   17.1370 C   0  0  0  0  0  0
   -7.2021   23.0522   17.6348 C   0  0  0  0  0  0
   -7.7011   21.9303   16.9764 C   0  0  0  0  0  0
   -7.0845   21.4518   15.8222 C   0  0  0  0  0  0
   -5.9591   22.1020   15.3227 C   0  0  0  0  0  0
   -4.9432   25.8513   14.1551 N   0  0  0  0  0  0
   -0.8592   30.6783    8.7853 H   0  0  0  0  0  0
   -1.4764   29.0750   10.5260 H   0  0  0  0  0  0
    2.3888   27.1951   10.3061 H   0  0  0  0  0  0
    3.5003   30.5807    6.7126 H   0  0  0  0  0  0
    5.1225   28.5543    9.0278 H   0  0  0  0  0  0
    4.4719   27.3576    7.9290 H   0  0  0  0  0  0
    5.1894   28.8295    7.2972 H   0  0  0  0  0  0
   -1.7681   24.3187   14.5731 H   0  0  0  0  0  0
   -2.8089   27.0689   14.9793 H   0  0  0  0  0  0
   -2.3414   26.0140   16.2492 H   0  0  0  0  0  0
   -4.6638   25.8696   16.1863 H   0  0  0  0  0  0
   -3.3967   23.5845   16.1759 H   0  0  0  0  0  0
   -3.8733   23.4189   14.5187 H   0  0  0  0  0  0
   -5.6781   24.5504   17.6729 H   0  0  0  0  0  0
   -7.6785   23.4091   18.5376 H   0  0  0  0  0  0
   -8.5665   21.4189   17.3730 H   0  0  0  0  0  0
   -7.4701   20.5727   15.3253 H   0  0  0  0  0  0
   -5.4734   21.7137   14.4388 H   0  0  0  0  0  0
   -4.7429   26.8399   14.0267 H   0  0  0  0  0  0
   -4.5632   25.4022   13.3282 H   0  0  0  0  0  0
  1  6  1  0  0  0
  1 27  1  0  0  0
  1  2  2  0  0  0
  2 28  1  0  0  0
  2  3  1  0  0  0
  3 11  1  0  0  0
  3  4  2  0  0  0
  4 29  1  0  0  0
  4  7  1  0  0  0
  5  9  1  0  0  0
  5  6  2  0  0  0
  6  7  1  0  0  0
  7  8  2  0  0  0
  8  9  1  0  0  0
  8 10  1  0  0  0
  9 30  1  0  0  0
 10 31  1  0  0  0
 10 32  1  0  0  0
 10 33  1  0  0  0
 11 12  1  0  0  0
 11 15  2  0  0  0
 12 13  1  0  0  0
 13 14  2  0  0  0
 13 16  1  0  0  0
 14 15  1  0  0  0
 16 17  1  0  0  0
 16 34  1  0  0  0
 17 18  1  0  0  0
 17 35  1  0  0  0
 17 36  1  0  0  0
 18 19  1  0  0  0
 18 26  1  0  0  0
 18 37  1  0  0  0
 19 20  1  0  0  0
 19 38  1  0  0  0
 19 39  1  0  0  0
 20 21  2  0  0  0
 20 25  1  0  0  0
 21 22  1  0  0  0
 21 40  1  0  0  0
 22 23  2  0  0  0
 22 41  1  0  0  0
 23 24  1  0  0  0
 23 42  1  0  0  0
 24 25  2  0  0  0
 24 43  1  0  0  0
 25 44  1  0  0  0
 26 45  1  0  0  0
 26 46  1  0  0  0
M  END
> <s_m_entry_id>
33129

> <s_m_entry_name>
dock_pv.530

> <s_m_Source_Path>
/home/csk/Desktop/cluster/DUD-E-result/cdk2

> <s_m_Source_File>
dock_pv.maegz

> <i_m_Source_File_Index>
530

> <chembl_id>
CHEMBL1087281

> <chembl_pref_name>
None

> <i_lp_mmshare_version>
53161

> <i_f3d_flags>
0

> <r_lp_tautomer_probability>
0.0196078431372549

> <s_lp_Force_Field>
OPLS_2005

> <r_lp_Energy>
32.521103

> <b_lp_Chiralities_Consistent>
1

> <s_lp_Variant>
CHEMBL301_lig922-2

> <s_i_glide_gridfile>
glide-grid_1h00

> <i_i_glide_lignum>
1300

> <i_i_glide_rotatable_bonds>
6

> <r_i_docking_score>
-6.96770504266434

> <r_i_glide_ligand_efficiency>
-0.26798865548709

> <r_i_glide_ligand_efficiency_sa>
-0.793915337396064

> <r_i_glide_ligand_efficiency_ln>
-1.63634266636469

> <r_i_glide_gscore>
-6.96770504266434

> <r_i_glide_lipo>
-2.08748464218991

> <r_i_glide_hbond>
-0.491155179739476

> <r_i_glide_metal>
0

> <r_i_glide_rewards>
-1.79907977272727

> <r_i_glide_evdw>
-37.5724296569824

> <r_i_glide_ecoul>
-9.37170505523682

> <r_i_glide_erotb>
0.72363614089556

> <r_i_glide_esite>
-0.0292443477686036

> <r_i_glide_emodel>
-64.8944710429424

> <r_i_glide_energy>
-46.9441347122192

> <r_i_glide_einternal>
4.20276832580566

> <i_i_glide_confnum>
4

> <i_i_glide_posenum>
293

> <r_i_glide_eff_state_penalty>
0

> <s_user_duplicate_titles>
CHEMBL301_lig922,613834

> <s_m_subgroup_title>
dock_pv

> <s_m_subgroupid>
dock_pv

> <b_m_subgroup_collapsed>
1

$$$$
CHEMBL301_lig356
                    3D
 Schrodinger Suite 2021-1.
 66 69  0  0  1  0            999 V2000
    0.3079   29.6705    9.3928 C   0  0  0  0  0  0
    1.4029   29.8554    8.5314 N   0  0  0  0  0  0
    2.4582   28.9726    8.5056 C   0  0  0  0  0  0
    7.1790   24.9196    5.4373 S   0  0  0  0  0  0
   -0.5380   30.7949    9.1984 C   0  0  0  0  0  0
    0.2258   28.6078   10.1922 N   0  0  0  0  0  0
    1.2334   30.9499    7.7458 N   0  0  0  0  0  0
    2.3935   27.8889    9.3819 C   0  0  0  0  0  0
    1.2676   27.7365   10.1887 C   0  0  0  0  0  0
    0.1172   31.4978    8.1760 C   0  0  0  0  0  0
    3.4444   29.1014    7.5120 N   0  0  0  0  0  0
    6.1089   26.2171    6.0616 C   0  0  0  0  0  0
    8.6718   25.7231    4.9090 N   0  0  0  0  0  0
    6.5223   24.3613    4.2505 O   0  0  0  0  0  0
    7.5109   24.0556    6.5762 O   0  0  0  0  0  0
    1.2016   26.5824   10.9761 N   0  0  0  0  0  0
   -1.7996   31.1672    9.9654 C   0  0  0  0  0  0
   -0.0330   26.1106   11.6056 C   0  0  2  0  0  0
   -0.3504   26.8789   12.9140 C   0  0  0  0  0  0
    5.3074   26.9470    5.1800 C   0  0  0  0  0  0
    6.0745   26.4898    7.4303 C   0  0  0  0  0  0
    4.3900   28.1776    7.0484 C   0  0  0  0  0  0
   -1.6450   26.3611   13.5787 C   0  0  1  0  0  0
    4.4586   27.9355    5.6752 C   0  0  0  0  0  0
    5.2237   27.4760    7.9171 C   0  0  0  0  0  0
   -2.8145   26.6508   12.7678 N   0  0  0  0  0  0
   -1.1143   24.0319   12.5929 C   0  0  0  0  0  0
    9.5540   26.2720    5.9620 C   0  0  0  0  0  0
    8.6353   26.4835    3.6385 C   0  0  0  0  0  0
    0.1350   24.6047   11.8998 C   0  0  0  0  0  0
   -3.0503   30.5366    9.3396 C   0  0  0  0  0  0
   -1.9603   32.6921   10.1058 C   0  0  0  0  0  0
   -1.4890   24.8448   13.8523 C   0  0  0  0  0  0
    3.1494   27.1229    9.3966 H   0  0  0  0  0  0
   -0.2140   32.4451    7.7761 H   0  0  0  0  0  0
    3.2753   29.8788    6.8893 H   0  0  0  0  0  0
    2.0803   26.1741   11.2636 H   0  0  0  0  0  0
   -1.7131   30.7704   10.9785 H   0  0  0  0  0  0
   -0.8521   26.2720   10.9006 H   0  0  0  0  0  0
    0.4580   26.7907   13.6336 H   0  0  0  0  0  0
   -0.4481   27.9467   12.7144 H   0  0  0  0  0  0
    5.3369   26.7458    4.1192 H   0  0  0  0  0  0
    6.6969   25.9395    8.1239 H   0  0  0  0  0  0
   -1.7249   26.8558   14.5492 H   0  0  0  0  0  0
    3.8273   28.4825    4.9912 H   0  0  0  0  0  0
    5.2051   27.6827    8.9755 H   0  0  0  0  0  0
   -3.6093   26.1352   13.1138 H   0  0  0  0  0  0
   -3.0518   27.6358   12.8843 H   0  0  0  0  0  0
   -0.9539   22.9855   12.8532 H   0  0  0  0  0  0
   -1.9418   24.0516   11.8866 H   0  0  0  0  0  0
   10.5600   26.4279    5.5688 H   0  0  0  0  0  0
    9.6079   25.5817    6.8058 H   0  0  0  0  0  0
    9.1537   27.2182    6.3247 H   0  0  0  0  0  0
    8.1539   27.4505    3.7773 H   0  0  0  0  0  0
    9.6504   26.6308    3.2624 H   0  0  0  0  0  0
    8.0674   25.9281    2.8918 H   0  0  0  0  0  0
    0.3225   24.0577   10.9734 H   0  0  0  0  0  0
    1.0089   24.4393   12.5342 H   0  0  0  0  0  0
   -2.9987   29.4521    9.3790 H   0  0  0  0  0  0
   -3.9531   30.8371    9.8741 H   0  0  0  0  0  0
   -3.1722   30.8326    8.2963 H   0  0  0  0  0  0
   -1.0829   33.1382   10.5741 H   0  0  0  0  0  0
   -2.0959   33.1698    9.1360 H   0  0  0  0  0  0
   -2.8288   32.9424   10.7182 H   0  0  0  0  0  0
   -0.7424   24.6929   14.6342 H   0  0  0  0  0  0
   -2.4198   24.4505   14.2648 H   0  0  0  0  0  0
  1  2  1  0  0  0
  1  5  2  0  0  0
  1  6  1  0  0  0
  2  3  1  0  0  0
  2  7  1  0  0  0
  3 11  1  0  0  0
  3  8  2  0  0  0
  4 12  1  0  0  0
  4 13  1  0  0  0
  4 14  2  0  0  0
  4 15  2  0  0  0
  5 10  1  0  0  0
  5 17  1  0  0  0
  6  9  2  0  0  0
  7 10  2  0  0  0
  8  9  1  0  0  0
  8 34  1  0  0  0
  9 16  1  0  0  0
 10 35  1  0  0  0
 11 22  1  0  0  0
 11 36  1  0  0  0
 12 21  2  0  0  0
 12 20  1  0  0  0
 13 28  1  0  0  0
 13 29  1  0  0  0
 16 18  1  0  0  0
 16 37  1  0  0  0
 17 31  1  0  0  0
 17 32  1  0  0  0
 17 38  1  0  0  0
 18 19  1  0  0  0
 18 30  1  0  0  0
 18 39  1  0  0  0
 19 23  1  0  0  0
 19 40  1  0  0  0
 19 41  1  0  0  0
 20 24  2  0  0  0
 20 42  1  0  0  0
 21 25  1  0  0  0
 21 43  1  0  0  0
 22 24  1  0  0  0
 22 25  2  0  0  0
 23 26  1  0  0  0
 23 33  1  0  0  0
 23 44  1  0  0  0
 24 45  1  0  0  0
 25 46  1  0  0  0
 26 47  1  0  0  0
 26 48  1  0  0  0
 27 30  1  0  0  0
 27 33  1  0  0  0
 27 49  1  0  0  0
 27 50  1  0  0  0
 28 51  1  0  0  0
 28 52  1  0  0  0
 28 53  1  0  0  0
 29 54  1  0  0  0
 29 55  1  0  0  0
 29 56  1  0  0  0
 30 57  1  0  0  0
 30 58  1  0  0  0
 31 59  1  0  0  0
 31 60  1  0  0  0
 31 61  1  0  0  0
 32 62  1  0  0  0
 32 63  1  0  0  0
 32 64  1  0  0  0
 33 65  1  0  0  0
 33 66  1  0  0  0
M  END
> <s_m_entry_id>
33130

> <s_m_entry_name>
dock_pv.531

> <s_m_Source_Path>
/home/csk/Desktop/cluster/DUD-E-result/cdk2

> <s_m_Source_File>
dock_pv.maegz

> <i_m_Source_File_Index>
531

> <chembl_id>
CHEMBL181606

> <chembl_pref_name>
None

> <i_lp_mmshare_version>
53161

> <i_f3d_flags>
0

> <r_lp_tautomer_probability>
1

> <s_lp_Force_Field>
OPLS_2005

> <r_lp_Energy>
22.000973

> <b_lp_Chiralities_Consistent>
1

> <s_lp_Variant>
CHEMBL301_lig356-3

> <s_i_glide_gridfile>
glide-grid_1h00

> <i_i_glide_lignum>
538

> <i_i_glide_rotatable_bonds>
7

> <r_i_docking_score>
-6.96617571937008

> <r_i_glide_ligand_efficiency>
-0.211096233920306

> <r_i_glide_ligand_efficiency_sa>
-0.67709841644305

> <r_i_glide_ligand_efficiency_ln>
-1.5492414110604

> <r_i_glide_gscore>
-6.96617571937008

> <r_i_glide_lipo>
-3.08406769028801

> <r_i_glide_hbond>
-0.138018663762762

> <r_i_glide_metal>
0

> <r_i_glide_rewards>
-1.11113710386835

> <r_i_glide_evdw>
-49.5438575744629

> <r_i_glide_ecoul>
-3.78565192222595

> <r_i_glide_erotb>
0.454398366693118

> <r_i_glide_esite>
-0.0423099610870379

> <r_i_glide_emodel>
-69.2338599726918

> <r_i_glide_energy>
-53.3295094966888

> <r_i_glide_einternal>
11.3070993423462

> <i_i_glide_confnum>
42

> <i_i_glide_posenum>
348

> <r_i_glide_eff_state_penalty>
0

> <s_user_duplicate_titles>
CHEMBL301_lig356

> <s_m_subgroup_title>
dock_pv

> <s_m_subgroupid>
dock_pv

> <b_m_subgroup_collapsed>
1

$$$$
CHEMBL301_lig829
                    3D
 Schrodinger Suite 2021-1.
 55 57  0  0  1  0            999 V2000
   -2.3125   26.6336   11.8139 C   0  0  0  0  0  0
   -2.6726   27.8996   11.7760 N   0  0  0  0  0  0
   -1.5730   28.5320   11.4501 C   0  0  0  0  0  0
   -0.5138   27.7156   11.2014 O   0  0  0  0  0  0
   -0.9937   26.4667   11.4242 C   0  0  0  0  0  0
   -1.3770   30.0338   11.3800 C   0  0  0  0  0  0
   -1.9106   30.7813    9.8029 S   0  0  0  0  0  0
   -0.3882   30.7617    8.9184 C   0  0  0  0  0  0
    0.1293   31.7276    8.0595 C   0  0  0  0  0  0
    1.2580   31.4383    7.4314 N   0  0  0  0  0  0
    1.7443   30.2898    7.8287 C   0  0  0  0  0  0
    0.7428   29.4520    8.9762 S   0  0  0  0  0  0
    2.9664   29.8321    7.3638 N   0  0  0  0  0  0
    3.6888   28.7667    7.7808 C   0  0  0  0  0  0
    4.9928   28.4729    6.9878 C   0  0  2  0  0  0
    3.4231   28.1064    8.7861 O   0  0  0  0  0  0
   -0.0493   25.2754   11.2714 C   0  0  0  0  0  0
    1.1751   25.4763   12.1760 C   0  0  0  0  0  0
    0.4288   25.1339    9.8150 C   0  0  0  0  0  0
   -0.7845   23.9839   11.6850 C   0  0  0  0  0  0
    4.7315   28.5064    5.4554 C   0  0  0  0  0  0
    3.8885   27.3367    4.9464 C   0  0  0  0  0  0
    4.4580   26.0447    5.3333 N   0  0  1  0  0  0
    4.6964   25.8926    6.7721 C   0  0  2  0  0  0
    5.5670   27.0679    7.3028 C   0  0  0  0  0  0
    5.2877   24.5063    7.0973 C   0  0  0  0  0  0
    6.7041   24.2306    6.5587 C   0  0  0  0  0  0
   -2.9874   25.8544   12.1276 H   0  0  0  0  0  0
   -1.9419   30.5184   12.1757 H   0  0  0  0  0  0
   -0.3363   30.2944   11.5737 H   0  0  0  0  0  0
   -0.3419   32.6765    7.8493 H   0  0  0  0  0  0
    3.4177   30.4178    6.6690 H   0  0  0  0  0  0
    5.6579   29.2904    7.2642 H   0  0  0  0  0  0
    1.7683   24.5668   12.2756 H   0  0  0  0  0  0
    0.8580   25.7968   13.1701 H   0  0  0  0  0  0
    1.8311   26.2523   11.7760 H   0  0  0  0  0  0
   -0.4106   25.0522    9.1230 H   0  0  0  0  0  0
    1.0320   25.9963    9.5273 H   0  0  0  0  0  0
    1.0555   24.2517    9.6788 H   0  0  0  0  0  0
   -1.6817   23.8520   11.0821 H   0  0  0  0  0  0
   -0.1615   23.0979   11.5562 H   0  0  0  0  0  0
   -1.1015   24.0174   12.7284 H   0  0  0  0  0  0
    4.3031   29.4520    5.1431 H   0  0  0  0  0  0
    5.6580   28.5603    4.8947 H   0  0  0  0  0  0
    3.7893   27.3777    3.8608 H   0  0  0  0  0  0
    2.8959   27.4519    5.3760 H   0  0  0  0  0  0
    3.8721   25.2922    4.9987 H   0  0  0  0  0  0
    3.7185   25.9152    7.2558 H   0  0  0  0  0  0
    6.5458   27.0334    6.8230 H   0  0  0  0  0  0
    5.8515   26.9664    8.3518 H   0  0  0  0  0  0
    5.2841   24.3837    8.1760 H   0  0  0  0  0  0
    4.6107   23.7367    6.7234 H   0  0  0  0  0  0
    7.0098   23.2073    6.7779 H   0  0  0  0  0  0
    6.7505   24.3636    5.4773 H   0  0  0  0  0  0
    7.4433   24.8930    7.0091 H   0  0  0  0  0  0
  1  5  2  0  0  0
  1  2  1  0  0  0
  1 28  1  0  0  0
  2  3  2  0  0  0
  3  4  1  0  0  0
  3  6  1  0  0  0
  4  5  1  0  0  0
  5 17  1  0  0  0
  6  7  1  0  0  0
  6 29  1  0  0  0
  6 30  1  0  0  0
  7  8  1  0  0  0
  8  9  2  0  0  0
  8 12  1  0  0  0
  9 10  1  0  0  0
  9 31  1  0  0  0
 10 11  2  0  0  0
 11 13  1  0  0  0
 11 12  1  0  0  0
 13 14  1  0  0  0
 13 32  1  0  0  0
 14 15  1  0  0  0
 14 16  2  0  0  0
 15 21  1  0  0  0
 15 25  1  0  0  0
 15 33  1  0  0  0
 17 18  1  0  0  0
 17 19  1  0  0  0
 17 20  1  0  0  0
 18 34  1  0  0  0
 18 35  1  0  0  0
 18 36  1  0  0  0
 19 37  1  0  0  0
 19 38  1  0  0  0
 19 39  1  0  0  0
 20 40  1  0  0  0
 20 41  1  0  0  0
 20 42  1  0  0  0
 21 22  1  0  0  0
 21 43  1  0  0  0
 21 44  1  0  0  0
 22 23  1  0  0  0
 22 45  1  0  0  0
 22 46  1  0  0  0
 23 24  1  0  0  0
 23 47  1  0  0  0
 24 25  1  0  0  0
 24 26  1  0  0  0
 24 48  1  0  0  0
 25 49  1  0  0  0
 25 50  1  0  0  0
 26 27  1  0  0  0
 26 51  1  0  0  0
 26 52  1  0  0  0
 27 53  1  0  0  0
 27 54  1  0  0  0
 27 55  1  0  0  0
M  END
> <s_m_entry_id>
33131

> <s_m_entry_name>
dock_pv.532

> <s_m_Source_Path>
/home/csk/Desktop/cluster/DUD-E-result/cdk2

> <s_m_Source_File>
dock_pv.maegz

> <i_m_Source_File_Index>
532

> <chembl_id>
CHEMBL455195

> <chembl_pref_name>
None

> <i_lp_mmshare_version>
53161

> <i_f3d_flags>
0

> <r_lp_tautomer_probability>
0.999000488399163

> <s_lp_Force_Field>
OPLS_2005

> <r_lp_Energy>
16.374249

> <b_lp_Chiralities_Consistent>
1

> <s_lp_Variant>
CHEMBL301_lig829-1

> <s_i_glide_gridfile>
glide-grid_1h00

> <i_i_glide_lignum>
1181

> <i_i_glide_rotatable_bonds>
8

> <r_i_docking_score>
-6.96068216330393

> <r_i_glide_ligand_efficiency>
-0.257803043085331

> <r_i_glide_ligand_efficiency_sa>
-0.773409128406315

> <r_i_glide_ligand_efficiency_ln>
-1.62033205180304

> <r_i_glide_gscore>
-6.96068216330393

> <r_i_glide_lipo>
-2.84714862830356

> <r_i_glide_hbond>
-0.32

> <r_i_glide_metal>
0

> <r_i_glide_rewards>
-2.02932171182622

> <r_i_glide_evdw>
-37.1470489501953

> <r_i_glide_ecoul>
-4.0951681137085

> <r_i_glide_erotb>
0.707415841391892

> <r_i_glide_esite>
0

> <r_i_glide_emodel>
-54.9665623737157

> <r_i_glide_energy>
-41.2422170639038

> <r_i_glide_einternal>
2.99023652076721

> <i_i_glide_confnum>
89

> <i_i_glide_posenum>
156

> <r_i_glide_eff_state_penalty>
0

> <s_user_duplicate_titles>
CHEMBL301_lig829,453124

> <s_m_subgroup_title>
dock_pv

> <s_m_subgroupid>
dock_pv

> <b_m_subgroup_collapsed>
1

$$$$
CHEMBL301_lig634
                    3D
 Schrodinger Suite 2021-1.
 32 33  0  0  1  0            999 V2000
   -2.1942   27.0621   11.8181 C   0  0  0  0  0  0
   -1.7527   28.3741   11.9161 C   0  0  0  0  0  0
   -0.6460   28.8192   11.1879 C   0  0  0  0  0  0
   -1.5475   26.1987   10.9367 C   0  0  0  0  0  0
   -0.4814   26.6482   10.1760 C   0  0  0  0  0  0
    0.0395   27.9421   10.3167 C   0  0  0  0  0  0
    2.5357   26.1692   10.0564 C   0  0  0  0  0  0
    2.2294   26.0805   11.3760 O   0  0  0  0  0  0
    2.4580   27.5532    9.4567 C   0  0  0  0  0  0
    1.2678   28.3367    9.5352 C   0  0  0  0  0  0
    1.1917   29.4918    8.7420 C   0  0  0  0  0  0
    2.2290   29.8676    7.8975 C   0  0  0  0  0  0
    3.4090   29.1467    7.8852 C   0  0  0  0  0  0
    3.5352   28.0038    8.6600 C   0  0  0  0  0  0
    2.8580   25.1929    9.3828 O   0  0  0  0  0  0
    4.7398   27.3511    8.5760 O   0  0  0  0  0  0
   -0.2133   30.2520   11.4166 C   0  0  0  0  0  0
   -3.2537   26.6520   12.5889 O   0  0  0  0  0  0
    2.0944   30.9326    7.0516 O   0  0  0  0  0  0
   -1.9420   24.9044   10.7877 O   0  0  0  0  0  0
   -2.2715   29.0531   12.5760 H   0  0  0  0  0  0
   -0.0410   25.9437    9.4888 H   0  0  0  0  0  0
    2.2290   26.9225   11.8465 H   0  0  0  0  0  0
    0.2806   30.0680    8.7058 H   0  0  0  0  0  0
    4.2290   29.4520    7.2506 H   0  0  0  0  0  0
    4.8481   26.6520    9.2341 H   0  0  0  0  0  0
   -0.6655   30.6517   12.3187 H   0  0  0  0  0  0
    0.8580   30.2983   11.5651 H   0  0  0  0  0  0
   -0.4915   30.8970   10.5844 H   0  0  0  0  0  0
   -3.5420   27.3507   13.1922 H   0  0  0  0  0  0
    2.9276   31.0520    6.5760 H   0  0  0  0  0  0
   -2.8541   24.7858   11.0937 H   0  0  0  0  0  0
  1  2  2  0  0  0
  1 18  1  0  0  0
  1  4  1  0  0  0
  2  3  1  0  0  0
  2 21  1  0  0  0
  3  6  2  0  0  0
  3 17  1  0  0  0
  4  5  2  0  0  0
  4 20  1  0  0  0
  5  6  1  0  0  0
  5 22  1  0  0  0
  6 10  1  0  0  0
  7 15  2  0  0  0
  7  9  1  0  0  0
  7  8  1  0  0  0
  8 23  1  0  0  0
  9 10  2  0  0  0
  9 14  1  0  0  0
 10 11  1  0  0  0
 11 12  2  0  0  0
 11 24  1  0  0  0
 12 13  1  0  0  0
 12 19  1  0  0  0
 13 14  2  0  0  0
 13 25  1  0  0  0
 14 16  1  0  0  0
 16 26  1  0  0  0
 17 27  1  0  0  0
 17 28  1  0  0  0
 17 29  1  0  0  0
 18 30  1  0  0  0
 19 31  1  0  0  0
 20 32  1  0  0  0
M  END
> <s_m_entry_id>
33132

> <s_m_entry_name>
dock_pv.533

> <s_m_Source_Path>
/home/csk/Desktop/cluster/DUD-E-result/cdk2

> <s_m_Source_File>
dock_pv.maegz

> <i_m_Source_File_Index>
533

> <chembl_id>
CHEMBL483532

> <chembl_pref_name>
DESMETHYLALTENUSIN

> <i_lp_mmshare_version>
53161

> <i_f3d_flags>
0

> <r_lp_tautomer_probability>
0.999999999999776

> <s_lp_Force_Field>
OPLS_2005

> <r_lp_Energy>
21.556619

> <b_lp_Chiralities_Consistent>
1

> <s_lp_Variant>
CHEMBL301_lig634-1

> <s_i_glide_gridfile>
glide-grid_1h00

> <i_i_glide_lignum>
878

> <i_i_glide_rotatable_bonds>
7

> <r_i_docking_score>
-6.9578995621843

> <r_i_glide_ligand_efficiency>
-0.347894978109215

> <r_i_glide_ligand_efficiency_sa>
-0.944332256361564

> <r_i_glide_ligand_efficiency_ln>
-1.7413327735283

> <r_i_glide_gscore>
-6.9578995621843

> <r_i_glide_lipo>
-2.21584846691147

> <r_i_glide_hbond>
-0.32

> <r_i_glide_metal>
0

> <r_i_glide_rewards>
-1.52784419268557

> <r_i_glide_evdw>
-21.3920059204102

> <r_i_glide_ecoul>
-15.3070793151855

> <r_i_glide_erotb>
0.471455290711079

> <r_i_glide_esite>
0

> <r_i_glide_emodel>
-49.763208085121

> <r_i_glide_energy>
-36.6990852355957

> <r_i_glide_einternal>
6.84557008743286

> <i_i_glide_confnum>
3

> <i_i_glide_posenum>
144

> <r_i_glide_eff_state_penalty>
0

> <s_user_duplicate_titles>
CHEMBL301_lig634

> <s_m_subgroup_title>
dock_pv

> <s_m_subgroupid>
dock_pv

> <b_m_subgroup_collapsed>
1

$$$$
CHEMBL301_lig473
                    3D
 Schrodinger Suite 2021-1.
 33 35  0  0  1  0            999 V2000
    3.7179   28.6834    8.2103 C   0  0  0  0  0  0
    2.4436   28.2514    9.3758 S   0  0  0  0  0  0
    1.3841   29.5349    8.7468 C   0  0  0  0  0  0
    2.0545   30.2512    7.6870 C   0  0  0  0  0  0
    3.2582   29.7151    7.4851 N   0  0  0  0  0  0
    1.6308   31.2058    7.0334 O   0  0  0  0  0  0
    0.1269   29.8709    9.1157 C   0  0  0  0  0  0
   -0.7152   29.2608   10.1227 C   0  0  0  0  0  0
   -1.9393   29.6377   10.6526 C   0  0  0  0  0  0
   -2.3035   28.6642   11.5781 C   0  0  0  0  0  0
   -1.2939   27.7167   11.5919 C   0  0  0  0  0  0
   -0.3358   28.0876   10.7020 O   0  0  0  0  0  0
    4.8182   28.0735    8.1611 N   0  0  0  0  0  0
   -1.0883   26.4562   12.3568 C   0  0  0  0  0  0
   -1.7983   26.2564   13.5413 C   0  0  0  0  0  0
   -1.6359   25.0789   14.2650 C   0  0  0  0  0  0
   -0.7705   24.0768   13.8081 C   0  0  0  0  0  0
   -0.0481   24.2870   12.6231 C   0  0  0  0  0  0
   -0.2033   25.4728   11.9057 C   0  0  0  0  0  0
   -0.6330   22.8023   14.6069 C   0  0  0  0  0  0
   -0.8370   22.7747   15.8196 O   0  0  0  0  0  0
   -0.2939   21.6965   13.9407 N   0  0  0  0  0  0
    3.8448   30.1404    6.7766 H   0  0  0  0  0  0
   -0.3627   30.7009    8.6263 H   0  0  0  0  0  0
   -2.5071   30.5215   10.4026 H   0  0  0  0  0  0
   -3.2019   28.6517   12.1748 H   0  0  0  0  0  0
    5.4421   28.4301    7.4518 H   0  0  0  0  0  0
   -2.4795   27.0145   13.9063 H   0  0  0  0  0  0
   -2.2036   24.9486   15.1755 H   0  0  0  0  0  0
    0.6458   23.5470   12.2492 H   0  0  0  0  0  0
    0.3623   25.6237   10.9966 H   0  0  0  0  0  0
   -0.2335   20.8188   14.4342 H   0  0  0  0  0  0
   -0.2216   21.7051   12.9357 H   0  0  0  0  0  0
  1  2  1  0  0  0
  1  5  1  0  0  0
  1 13  2  0  0  0
  2  3  1  0  0  0
  3  4  1  0  0  0
  3  7  2  0  0  0
  4  5  1  0  0  0
  4  6  2  0  0  0
  5 23  1  0  0  0
  7  8  1  0  0  0
  7 24  1  0  0  0
  8  9  2  0  0  0
  8 12  1  0  0  0
  9 10  1  0  0  0
  9 25  1  0  0  0
 10 11  2  0  0  0
 10 26  1  0  0  0
 11 12  1  0  0  0
 11 14  1  0  0  0
 13 27  1  0  0  0
 14 15  2  0  0  0
 14 19  1  0  0  0
 15 16  1  0  0  0
 15 28  1  0  0  0
 16 17  2  0  0  0
 16 29  1  0  0  0
 17 18  1  0  0  0
 17 20  1  0  0  0
 18 19  2  0  0  0
 18 30  1  0  0  0
 19 31  1  0  0  0
 20 21  2  0  0  0
 20 22  1  0  0  0
 22 32  1  0  0  0
 22 33  1  0  0  0
M  END
> <s_m_entry_id>
33133

> <s_m_entry_name>
dock_pv.534

> <s_m_Source_Path>
/home/csk/Desktop/cluster/DUD-E-result/cdk2

> <s_m_Source_File>
dock_pv.maegz

> <i_m_Source_File_Index>
534

> <chembl_id>
CHEMBL233765

> <chembl_pref_name>
None

> <i_lp_mmshare_version>
53161

> <i_f3d_flags>
0

> <r_lp_tautomer_probability>
1

> <s_lp_Force_Field>
OPLS_2005

> <r_lp_Energy>
5.334439

> <b_lp_Chiralities_Consistent>
1

> <s_lp_Variant>
CHEMBL301_lig473-1

> <s_i_glide_gridfile>
glide-grid_1h00

> <i_i_glide_lignum>
664

> <i_i_glide_rotatable_bonds>
3

> <r_i_docking_score>
-6.95552980254083

> <r_i_glide_ligand_efficiency>
-0.316160445570038

> <r_i_glide_ligand_efficiency_sa>
-0.885894002371998

> <r_i_glide_ligand_efficiency_ln>
-1.70018519285496

> <r_i_glide_gscore>
-6.95552980254083

> <r_i_glide_lipo>
-1.41901429239851

> <r_i_glide_hbond>
-0.32

> <r_i_glide_metal>
0

> <r_i_glide_rewards>
-2.80865241560299

> <r_i_glide_evdw>
-35.8867301940918

> <r_i_glide_ecoul>
-6.42125415802002

> <r_i_glide_erotb>
0.378348449534824

> <r_i_glide_esite>
-0.0286869106665566

> <r_i_glide_emodel>
-60.2686204980796

> <r_i_glide_energy>
-42.3079843521118

> <r_i_glide_einternal>
0.895697176456451

> <i_i_glide_confnum>
2

> <i_i_glide_posenum>
68

> <r_i_glide_eff_state_penalty>
0

> <s_user_duplicate_titles>
CHEMBL301_lig473

> <s_m_subgroup_title>
dock_pv

> <s_m_subgroupid>
dock_pv

> <b_m_subgroup_collapsed>
1

$$$$
CHEMBL301_lig471
                    3D
 Schrodinger Suite 2021-1.
 34 36  0  0  1  0            999 V2000
    5.3881   26.8091    7.6459 C   0  0  0  0  0  0
    4.0844   27.6211    8.5428 S   0  0  0  0  0  0
    3.6510   28.5884    7.1292 C   0  0  0  0  0  0
    4.4931   28.2202    6.0212 C   0  0  0  0  0  0
    5.3625   27.2833    6.3998 N   0  0  0  0  0  0
    4.4580   28.6520    4.8761 O   0  0  0  0  0  0
    2.6783   29.5160    6.9968 C   0  0  0  0  0  0
    1.6700   29.8776    7.9712 C   0  0  0  0  0  0
    0.7705   30.9298    8.0573 C   0  0  0  0  0  0
   -0.0762   30.6603    9.1356 C   0  0  0  0  0  0
    0.3287   29.4467    9.6691 C   0  0  0  0  0  0
    1.4040   29.0049    8.9760 O   0  0  0  0  0  0
    6.1488   25.9624    8.1760 N   0  0  0  0  0  0
   -0.1418   28.5894   10.7861 C   0  0  0  0  0  0
   -0.0353   27.1958   10.7373 C   0  0  0  0  0  0
   -0.5035   26.4029   11.7897 C   0  0  0  0  0  0
   -1.0372   27.0151   12.9383 C   0  0  0  0  0  0
   -1.1321   28.4078   12.9760 C   0  0  0  0  0  0
   -0.7089   29.1844   11.9072 C   0  0  0  0  0  0
   -1.6479   26.0812   14.3507 S   0  0  0  0  0  0
   -0.7485   24.9456   14.5760 O   0  0  0  0  0  0
   -0.4255   24.6842   11.6037 Cl  0  0  0  0  0  0
   -1.9420   27.0142   15.4445 O   0  0  0  0  0  0
   -3.1774   25.4520   13.8086 N   0  0  0  0  0  0
    6.0361   26.9528    5.7269 H   0  0  0  0  0  0
    2.5834   30.0689    6.0730 H   0  0  0  0  0  0
    0.7197   31.7828    7.3968 H   0  0  0  0  0  0
   -0.9012   31.2693    9.4758 H   0  0  0  0  0  0
    5.9163   25.8520    9.1650 H   0  0  0  0  0  0
    0.3921   26.7232    9.8660 H   0  0  0  0  0  0
   -1.5420   28.9117   13.8337 H   0  0  0  0  0  0
   -0.8155   30.2520   11.9636 H   0  0  0  0  0  0
   -3.0913   24.8445   12.9895 H   0  0  0  0  0  0
   -3.8635   26.1927   13.6458 H   0  0  0  0  0  0
  1  5  1  0  0  0
  1 13  2  0  0  0
  1  2  1  0  0  0
  2  3  1  0  0  0
  3  4  1  0  0  0
  3  7  2  0  0  0
  4  5  1  0  0  0
  4  6  2  0  0  0
  5 25  1  0  0  0
  7  8  1  0  0  0
  7 26  1  0  0  0
  8  9  2  0  0  0
  8 12  1  0  0  0
  9 10  1  0  0  0
  9 27  1  0  0  0
 10 11  2  0  0  0
 10 28  1  0  0  0
 11 12  1  0  0  0
 11 14  1  0  0  0
 13 29  1  0  0  0
 14 15  2  0  0  0
 14 19  1  0  0  0
 15 16  1  0  0  0
 15 30  1  0  0  0
 16 17  2  0  0  0
 16 22  1  0  0  0
 17 18  1  0  0  0
 17 20  1  0  0  0
 18 19  2  0  0  0
 18 31  1  0  0  0
 19 32  1  0  0  0
 20 21  2  0  0  0
 20 23  2  0  0  0
 20 24  1  0  0  0
 24 33  1  0  0  0
 24 34  1  0  0  0
M  END
> <s_m_entry_id>
33134

> <s_m_entry_name>
dock_pv.535

> <s_m_Source_Path>
/home/csk/Desktop/cluster/DUD-E-result/cdk2

> <s_m_Source_File>
dock_pv.maegz

> <i_m_Source_File_Index>
535

> <chembl_id>
CHEMBL396614

> <chembl_pref_name>
None

> <i_lp_mmshare_version>
53161

> <i_f3d_flags>
0

> <r_lp_tautomer_probability>
1

> <s_lp_Force_Field>
OPLS_2005

> <r_lp_Energy>
12.585133

> <b_lp_Chiralities_Consistent>
1

> <s_lp_Variant>
CHEMBL301_lig471-1

> <s_i_glide_gridfile>
glide-grid_1h00

> <i_i_glide_lignum>
662

> <i_i_glide_rotatable_bonds>
3

> <r_i_docking_score>
-6.95529900282371

> <r_i_glide_ligand_efficiency>
-0.289804125117655

> <r_i_glide_ligand_efficiency_sa>
-0.83593974896295

> <r_i_glide_ligand_efficiency_ln>
-1.66472220925035

> <r_i_glide_gscore>
-6.95529900282371

> <r_i_glide_lipo>
-2.26249617987642

> <r_i_glide_hbond>
-0.290586756548597

> <r_i_glide_metal>
0

> <r_i_glide_rewards>
-1.24262852512777

> <r_i_glide_evdw>
-38.837776184082

> <r_i_glide_ecoul>
-8.83588027954102

> <r_i_glide_erotb>
0.263852445689857

> <r_i_glide_esite>
-0.15616913582553

> <r_i_glide_emodel>
-67.3555660214993

> <r_i_glide_energy>
-47.673656463623

> <r_i_glide_einternal>
2.65418529510498

> <i_i_glide_confnum>
1

> <i_i_glide_posenum>
400

> <r_i_glide_eff_state_penalty>
0

> <s_user_duplicate_titles>
CHEMBL301_lig471,396955

> <s_m_subgroup_title>
dock_pv

> <s_m_subgroupid>
dock_pv

> <b_m_subgroup_collapsed>
1

$$$$
CHEMBL301_lig272
                    3D
 Schrodinger Suite 2021-1.
 45 47  0  0  1  0            999 V2000
    1.6810   29.8624    8.2452 C   0  0  0  0  0  0
    0.6879   29.4520    9.1551 C   0  0  0  0  0  0
    0.8315   28.2765    9.9161 C   0  0  0  0  0  0
    1.4082   31.0508    7.3760 C   0  0  0  0  0  0
    0.3148   31.8609    7.8224 C   0  0  0  0  0  0
   -0.5581   31.4125    8.7309 C   0  0  0  0  0  0
    2.8745   29.1296    8.1865 C   0  0  0  0  0  0
    2.0701   27.6078    9.8700 C   0  0  0  0  0  0
   -0.4742   30.1954    9.3305 O   0  0  0  0  0  0
   -0.3513   27.7524   10.7604 C   0  0  2  0  0  0
    3.0690   28.0384    9.0144 C   0  0  0  0  0  0
   -0.1865   27.9802   12.2779 C   0  0  2  0  0  0
   -1.5672   25.9475   12.7592 N   0  0  2  0  0  0
   -0.7249   26.2832   10.4398 C   0  0  0  0  0  0
   -1.3520   27.3635   13.0858 C   0  0  0  0  0  0
    2.0580   31.3495    6.3858 O   0  0  0  0  0  0
   -1.9551   32.3561    9.3085 S   0  0  0  0  0  0
   -1.8624   25.7552   11.3347 C   0  0  0  0  0  0
    3.9227   29.4520    7.3760 O   0  0  0  0  0  0
    2.3746   26.5233   10.6453 O   0  0  0  0  0  0
   -0.0707   29.3602   12.5739 O   0  0  0  0  0  0
   -2.6377   25.3930   13.5807 C   0  0  0  0  0  0
   -2.8093   31.3085   10.5102 C   0  0  0  0  0  0
   -3.5292   30.0837    9.9425 C   0  0  0  0  0  0
    0.1835   32.8485    7.4056 H   0  0  0  0  0  0
   -1.2389   28.3078   10.4634 H   0  0  0  0  0  0
    4.0135   27.5135    8.9759 H   0  0  0  0  0  0
    0.7446   27.5039   12.5760 H   0  0  0  0  0  0
   -1.0892   26.2262    9.4130 H   0  0  0  0  0  0
    0.1105   25.5894   10.5087 H   0  0  0  0  0  0
   -1.1341   27.4520   14.1509 H   0  0  0  0  0  0
   -2.2779   27.9162   12.9137 H   0  0  0  0  0  0
   -1.9791   24.6860   11.1505 H   0  0  0  0  0  0
   -2.8155   26.2212   11.0772 H   0  0  0  0  0  0
    3.7973   30.2433    6.8333 H   0  0  0  0  0  0
    3.3211   26.3325   10.6216 H   0  0  0  0  0  0
   -0.5124   29.8543   11.8794 H   0  0  0  0  0  0
   -2.7570   24.3268   13.3848 H   0  0  0  0  0  0
   -2.4092   25.5064   14.6412 H   0  0  0  0  0  0
   -3.5916   25.8861   13.3839 H   0  0  0  0  0  0
   -3.5522   31.9533   10.9760 H   0  0  0  0  0  0
   -2.1094   31.0161   11.2926 H   0  0  0  0  0  0
   -3.9420   29.4766   10.7482 H   0  0  0  0  0  0
   -2.8532   29.4520    9.3760 H   0  0  0  0  0  0
   -4.3420   30.3790    9.2795 H   0  0  0  0  0  0
  1  2  2  0  0  0
  1  4  1  0  0  0
  1  7  1  0  0  0
  2  3  1  0  0  0
  2  9  1  0  0  0
  3 10  1  0  0  0
  3  8  2  0  0  0
  4  5  1  0  0  0
  4 16  2  0  0  0
  5  6  2  0  0  0
  5 25  1  0  0  0
  6 17  1  0  0  0
  6  9  1  0  0  0
  7 11  2  0  0  0
  7 19  1  0  0  0
  8 11  1  0  0  0
  8 20  1  0  0  0
 10 12  1  0  0  0
 10 14  1  0  0  0
 10 26  1  0  0  0
 11 27  1  0  0  0
 12 15  1  0  0  0
 12 21  1  0  0  0
 12 28  1  0  0  0
 13 18  1  0  0  0
 13 22  1  0  0  0
 13 15  1  0  0  0
 14 18  1  0  0  0
 14 29  1  0  0  0
 14 30  1  0  0  0
 15 31  1  0  0  0
 15 32  1  0  0  0
 17 23  1  0  0  0
 18 33  1  0  0  0
 18 34  1  0  0  0
 19 35  1  0  0  0
 20 36  1  0  0  0
 21 37  1  0  0  0
 22 38  1  0  0  0
 22 39  1  0  0  0
 22 40  1  0  0  0
 23 24  1  0  0  0
 23 41  1  0  0  0
 23 42  1  0  0  0
 24 43  1  0  0  0
 24 44  1  0  0  0
 24 45  1  0  0  0
M  END
> <s_m_entry_id>
33135

> <s_m_entry_name>
dock_pv.536

> <s_m_Source_Path>
/home/csk/Desktop/cluster/DUD-E-result/cdk2

> <s_m_Source_File>
dock_pv.maegz

> <i_m_Source_File_Index>
536

> <chembl_id>
CHEMBL326843

> <chembl_pref_name>
None

> <i_lp_mmshare_version>
53161

> <i_f3d_flags>
0

> <r_lp_tautomer_probability>
1

> <s_lp_Force_Field>
OPLS_2005

> <r_lp_Energy>
26.601874

> <b_lp_Chiralities_Consistent>
1

> <s_lp_Variant>
CHEMBL301_lig272-1

> <s_i_glide_gridfile>
glide-grid_1h00

> <i_i_glide_lignum>
425

> <i_i_glide_rotatable_bonds>
6

> <r_i_docking_score>
-6.95509187565347

> <r_i_glide_ligand_efficiency>
-0.289795494818895

> <r_i_glide_ligand_efficiency_sa>
-0.835914854873619

> <r_i_glide_ligand_efficiency_ln>
-1.66467263421406

> <r_i_glide_gscore>
-6.95509187565347

> <r_i_glide_lipo>
-3.1432673013152

> <r_i_glide_hbond>
-0.275604672407215

> <r_i_glide_metal>
0

> <r_i_glide_rewards>
-1.11269756822056

> <r_i_glide_evdw>
-34.9238548278809

> <r_i_glide_ecoul>
-6.57474327087402

> <r_i_glide_erotb>
0.30888189831465

> <r_i_glide_esite>
0

> <r_i_glide_emodel>
-57.7493806032293

> <r_i_glide_energy>
-41.4985980987549

> <r_i_glide_einternal>
4.41530513763428

> <i_i_glide_confnum>
4

> <i_i_glide_posenum>
294

> <r_i_glide_eff_state_penalty>
0

> <s_user_duplicate_titles>
CHEMBL301_lig272

> <s_m_subgroup_title>
dock_pv

> <s_m_subgroupid>
dock_pv

> <b_m_subgroup_collapsed>
1

$$$$
CHEMBL301_lig966
                    3D
 Schrodinger Suite 2021-1.
 48 51  0  0  1  0            999 V2000
    4.2178   28.3919    8.3595 C   0  0  0  0  0  0
    5.2059   27.4419    8.1312 C   0  0  0  0  0  0
    5.5130   27.0707    6.8243 C   0  0  0  0  0  0
    4.8585   27.6654    5.7465 C   0  0  0  0  0  0
    3.8917   28.6394    5.9779 C   0  0  0  0  0  0
    3.5457   28.9813    7.2844 C   0  0  0  0  0  0
    2.5004   29.8972    7.4688 N   0  0  0  0  0  0
    1.4226   29.8530    8.3611 C   0  0  0  0  0  0
    1.3765   28.8591    9.2835 N   0  0  0  0  0  0
   -0.6162   30.7220    9.0055 C   0  0  0  0  0  0
    0.4605   30.7942    8.1790 N   0  0  0  0  0  0
   -0.7697   29.7215    9.9751 C   0  0  0  0  0  0
    0.2757   28.7899   10.0642 C   0  0  0  0  0  0
   -1.7706   28.8727   12.2133 C   0  0  0  0  0  0
   -2.0103   29.5914   10.8532 C   0  0  0  0  0  0
   -0.5674   26.5015   12.8077 C   0  0  0  0  0  0
   -0.7866   27.7067   12.0884 C   0  0  0  0  0  0
    0.1406   27.6920   11.0567 C   0  0  0  0  0  0
    0.8489   26.5202   11.2091 N   0  0  0  0  0  0
    0.3980   25.8045   12.2462 N   0  0  0  0  0  0
   -1.1913   26.0666   14.0429 C   0  0  0  0  0  0
   -2.3419   26.6516   14.3805 N   0  0  0  0  0  0
   -0.7205   25.1741   14.7420 O   0  0  0  0  0  0
    1.9840   26.0390   10.4004 C   0  0  0  0  0  0
    2.7132   24.7803   10.9409 C   0  0  0  0  0  0
    2.4522   22.6264    9.7769 N   0  0  0  0  0  0
    1.9316   23.4513   10.8539 C   0  0  0  0  0  0
    3.9736   28.6468    9.3785 H   0  0  0  0  0  0
    5.7175   26.9955    8.9738 H   0  0  0  0  0  0
    6.2743   26.3251    6.6435 H   0  0  0  0  0  0
    5.1124   27.3794    4.7359 H   0  0  0  0  0  0
    3.3937   29.1000    5.1428 H   0  0  0  0  0  0
    2.4751   30.6458    6.7947 H   0  0  0  0  0  0
   -1.3799   31.4717    8.8591 H   0  0  0  0  0  0
   -2.7361   28.5010   12.5476 H   0  0  0  0  0  0
   -1.4341   29.5851   12.9671 H   0  0  0  0  0  0
   -2.4496   30.5749   11.0352 H   0  0  0  0  0  0
   -2.7641   29.0522   10.2844 H   0  0  0  0  0  0
   -2.8327   26.3357   15.2000 H   0  0  0  0  0  0
   -2.6635   27.4984   13.9254 H   0  0  0  0  0  0
    1.6377   25.8719    9.3784 H   0  0  0  0  0  0
    2.7147   26.8466   10.3549 H   0  0  0  0  0  0
    3.6555   24.6819   10.4036 H   0  0  0  0  0  0
    2.9987   24.9690   11.9780 H   0  0  0  0  0  0
    1.9612   21.7430    9.7527 H   0  0  0  0  0  0
    2.2457   23.0701    8.8869 H   0  0  0  0  0  0
    2.0338   22.8984   11.7898 H   0  0  0  0  0  0
    0.8669   23.6195   10.7062 H   0  0  0  0  0  0
  1  6  1  0  0  0
  1  2  2  0  0  0
  1 28  1  0  0  0
  2  3  1  0  0  0
  2 29  1  0  0  0
  3  4  2  0  0  0
  3 30  1  0  0  0
  4  5  1  0  0  0
  4 31  1  0  0  0
  5  6  2  0  0  0
  5 32  1  0  0  0
  6  7  1  0  0  0
  7  8  1  0  0  0
  7 33  1  0  0  0
  8  9  2  0  0  0
  8 11  1  0  0  0
  9 13  1  0  0  0
 10 12  1  0  0  0
 10 11  2  0  0  0
 10 34  1  0  0  0
 12 15  1  0  0  0
 12 13  2  0  0  0
 13 18  1  0  0  0
 14 17  1  0  0  0
 14 15  1  0  0  0
 14 35  1  0  0  0
 14 36  1  0  0  0
 15 37  1  0  0  0
 15 38  1  0  0  0
 16 17  1  0  0  0
 16 20  2  0  0  0
 16 21  1  0  0  0
 17 18  2  0  0  0
 18 19  1  0  0  0
 19 20  1  0  0  0
 19 24  1  0  0  0
 21 22  1  0  0  0
 21 23  2  0  0  0
 22 39  1  0  0  0
 22 40  1  0  0  0
 24 25  1  0  0  0
 24 41  1  0  0  0
 24 42  1  0  0  0
 25 27  1  0  0  0
 25 43  1  0  0  0
 25 44  1  0  0  0
 26 27  1  0  0  0
 26 45  1  0  0  0
 26 46  1  0  0  0
 27 47  1  0  0  0
 27 48  1  0  0  0
M  END
> <s_m_entry_id>
33136

> <s_m_entry_name>
dock_pv.537

> <s_m_Source_Path>
/home/csk/Desktop/cluster/DUD-E-result/cdk2

> <s_m_Source_File>
dock_pv.maegz

> <i_m_Source_File_Index>
537

> <chembl_id>
CHEMBL1171950

> <chembl_pref_name>
None

> <i_lp_mmshare_version>
53161

> <i_f3d_flags>
0

> <r_lp_tautomer_probability>
0.999999987636

> <s_lp_Force_Field>
OPLS_2005

> <r_lp_Energy>
20.513785

> <b_lp_Chiralities_Consistent>
1

> <s_lp_Variant>
CHEMBL301_lig966-1

> <s_i_glide_gridfile>
glide-grid_1h00

> <i_i_glide_lignum>
1360

> <i_i_glide_rotatable_bonds>
6

> <r_i_docking_score>
-6.95166868002563

> <r_i_glide_ligand_efficiency>
-0.25746921037132

> <r_i_glide_ligand_efficiency_sa>
-0.772407630265382

> <r_i_glide_ligand_efficiency_ln>
-1.61823386149474

> <r_i_glide_gscore>
-6.95166868002563

> <r_i_glide_lipo>
-2.33681392928844

> <r_i_glide_hbond>
-0.34589348216975

> <r_i_glide_metal>
0

> <r_i_glide_rewards>
-1.39287314045019

> <r_i_glide_evdw>
-41.3588676452637

> <r_i_glide_ecoul>
-8.67108535766602

> <r_i_glide_erotb>
0.581902579745396

> <r_i_glide_esite>
-0.0893845219495638

> <r_i_glide_emodel>
-68.1280873578457

> <r_i_glide_energy>
-50.0299530029297

> <r_i_glide_einternal>
7.67555046081543

> <i_i_glide_confnum>
118

> <i_i_glide_posenum>
319

> <r_i_glide_eff_state_penalty>
0

> <s_user_duplicate_titles>
CHEMBL301_lig966,648053

> <s_m_subgroup_title>
dock_pv

> <s_m_subgroupid>
dock_pv

> <b_m_subgroup_collapsed>
1

$$$$
CHEMBL301_lig155
                    3D
 Schrodinger Suite 2021-1.
 47 50  0  0  1  0            999 V2000
    0.6475   30.4579    8.5079 C   0  0  0  0  0  0
    1.0109   29.2899    9.1462 C   0  0  0  0  0  0
    2.4647   29.4855    7.4856 C   0  0  0  0  0  0
    2.1305   28.7455    8.5759 O   0  0  0  0  0  0
    1.5880   30.6517    7.4031 C   0  0  0  0  0  0
    0.2828   28.7607   10.2270 C   0  0  0  0  0  0
   -0.4267   31.2061    8.9800 C   0  0  0  0  0  0
   -0.7975   29.5402   10.6988 C   0  0  0  0  0  0
    3.4285   29.1638    6.5951 C   0  0  0  0  0  0
   -1.1434   30.7440   10.0803 C   0  0  0  0  0  0
    4.3674   28.0211    6.6101 C   0  0  0  0  0  0
    1.0159   24.4474   10.9025 N   0  0  2  0  0  0
    0.5657   27.3856   10.8775 C   0  0  0  0  0  0
    1.6582   31.5624    6.5780 O   0  0  0  0  0  0
    4.7198   27.3715    5.4122 C   0  0  0  0  0  0
   -0.5496   26.3596   10.5600 C   0  0  0  0  0  0
    1.9412   26.7391   10.5775 C   0  0  0  0  0  0
    2.1077   25.3631   11.2578 C   0  0  0  0  0  0
   -0.3047   24.9939   11.2341 C   0  0  0  0  0  0
   -0.7391   32.4218    8.4370 O   0  0  0  0  0  0
   -1.5408   29.1520   11.7839 O   0  0  0  0  0  0
    4.0583   27.8517    3.8889 Cl  0  0  0  0  0  0
    1.2068   23.1382   11.5163 C   0  0  0  0  0  0
    4.9187   27.5573    7.8107 C   0  0  0  0  0  0
    5.6212   26.3047    5.4208 C   0  0  0  0  0  0
    5.8266   26.4963    7.8089 C   0  0  0  0  0  0
    6.1810   25.8703    6.6185 C   0  0  0  0  0  0
    3.5580   29.8304    5.7527 H   0  0  0  0  0  0
   -1.9645   31.3348   10.4606 H   0  0  0  0  0  0
    0.5485   27.5911   11.9517 H   0  0  0  0  0  0
   -1.5032   26.7157   10.9493 H   0  0  0  0  0  0
   -0.6891   26.2201    9.4860 H   0  0  0  0  0  0
    2.1095   26.5856    9.5116 H   0  0  0  0  0  0
    2.7407   27.3787   10.9531 H   0  0  0  0  0  0
    2.1699   25.4584   12.3446 H   0  0  0  0  0  0
    3.0536   24.9225   10.9366 H   0  0  0  0  0  0
   -0.4102   25.0745   12.3190 H   0  0  0  0  0  0
   -1.0716   24.2896   10.9030 H   0  0  0  0  0  0
   -0.1195   32.6876    7.7526 H   0  0  0  0  0  0
   -2.2316   29.7787   12.0273 H   0  0  0  0  0  0
    2.1517   22.6985   11.1949 H   0  0  0  0  0  0
    1.2136   23.2019   12.6082 H   0  0  0  0  0  0
    0.4137   22.4495   11.2189 H   0  0  0  0  0  0
    4.6636   28.0250    8.7523 H   0  0  0  0  0  0
    5.8880   25.8175    4.4947 H   0  0  0  0  0  0
    6.2615   26.1580    8.7381 H   0  0  0  0  0  0
    6.8854   25.0511    6.6212 H   0  0  0  0  0  0
  1  2  1  0  0  0
  1  5  1  0  0  0
  1  7  2  0  0  0
  2  4  1  0  0  0
  2  6  2  0  0  0
  3  5  1  0  0  0
  3  9  2  0  0  0
  3  4  1  0  0  0
  5 14  2  0  0  0
  6 13  1  0  0  0
  6  8  1  0  0  0
  7 10  1  0  0  0
  7 20  1  0  0  0
  8 10  2  0  0  0
  8 21  1  0  0  0
  9 11  1  0  0  0
  9 28  1  0  0  0
 10 29  1  0  0  0
 11 15  1  0  0  0
 11 24  2  0  0  0
 12 18  1  0  0  0
 12 23  1  0  0  0
 12 19  1  0  0  0
 13 16  1  0  0  0
 13 17  1  0  0  0
 13 30  1  0  0  0
 15 22  1  0  0  0
 15 25  2  0  0  0
 16 19  1  0  0  0
 16 31  1  0  0  0
 16 32  1  0  0  0
 17 18  1  0  0  0
 17 33  1  0  0  0
 17 34  1  0  0  0
 18 35  1  0  0  0
 18 36  1  0  0  0
 19 37  1  0  0  0
 19 38  1  0  0  0
 20 39  1  0  0  0
 21 40  1  0  0  0
 23 41  1  0  0  0
 23 42  1  0  0  0
 23 43  1  0  0  0
 24 26  1  0  0  0
 24 44  1  0  0  0
 25 27  1  0  0  0
 25 45  1  0  0  0
 26 27  2  0  0  0
 26 46  1  0  0  0
 27 47  1  0  0  0
M  END
> <s_m_entry_id>
33137

> <s_m_entry_name>
dock_pv.538

> <s_m_Source_Path>
/home/csk/Desktop/cluster/DUD-E-result/cdk2

> <s_m_Source_File>
dock_pv.maegz

> <i_m_Source_File_Index>
538

> <chembl_id>
CHEMBL48614

> <chembl_pref_name>
None

> <i_lp_mmshare_version>
53161

> <i_f3d_flags>
0

> <r_lp_tautomer_probability>
1

> <s_lp_Force_Field>
OPLS_2005

> <r_lp_Energy>
43.016363

> <b_lp_Chiralities_Consistent>
1

> <s_lp_Variant>
CHEMBL301_lig155-1

> <s_i_glide_gridfile>
glide-grid_1h00

> <i_i_glide_lignum>
295

> <i_i_glide_rotatable_bonds>
4

> <r_i_docking_score>
-6.94458238724267

> <r_i_glide_ligand_efficiency>
-0.257206755083062

> <r_i_glide_ligand_efficiency_sa>
-0.771620264401474

> <r_i_glide_ligand_efficiency_ln>
-1.61658428936153

> <r_i_glide_gscore>
-6.94458238724267

> <r_i_glide_lipo>
-3.06098030082172

> <r_i_glide_hbond>
-0.161454588921059

> <r_i_glide_metal>
0

> <r_i_glide_rewards>
-1.25170937718003

> <r_i_glide_evdw>
-38.6821937561035

> <r_i_glide_ecoul>
-4.44683408737183

> <r_i_glide_erotb>
0.130696680591095

> <r_i_glide_esite>
0

> <r_i_glide_emodel>
-59.224337426444

> <r_i_glide_energy>
-43.1290278434753

> <r_i_glide_einternal>
4.49109077453613

> <i_i_glide_confnum>
4

> <i_i_glide_posenum>
391

> <r_i_glide_eff_state_penalty>
0

> <s_user_duplicate_titles>
CHEMBL301_lig155

> <s_m_subgroup_title>
dock_pv

> <s_m_subgroupid>
dock_pv

> <b_m_subgroup_collapsed>
1

$$$$
CHEMBL301_lig578
                    3D
 Schrodinger Suite 2021-1.
 50 52  0  0  1  0            999 V2000
   -1.1417   26.5432   10.3796 C   0  0  0  0  0  0
   -1.1421   27.8031   10.0068 N   0  0  0  0  0  0
   -1.2340   28.4880   11.1246 C   0  0  0  0  0  0
   -1.2748   27.7123   12.2354 O   0  0  0  0  0  0
   -1.2244   26.4440   11.7548 C   0  0  0  0  0  0
   -1.2338   25.3056   12.7549 C   0  0  0  0  0  0
   -2.5083   25.3964   13.6214 C   0  0  0  0  0  0
    0.0159   25.4251   13.6295 C   0  0  0  0  0  0
   -1.1718   23.9469   12.0199 C   0  0  0  0  0  0
   -1.2268   29.9971   11.3219 C   0  0  0  0  0  0
   -1.8986   30.9942    9.9398 S   0  0  0  0  0  0
   -0.4786   31.1530    8.9049 C   0  0  0  0  0  0
   -0.0430   32.2619    8.1760 C   0  0  0  0  0  0
    0.9956   32.0820    7.3761 N   0  0  0  0  0  0
    1.4327   30.8500    7.4268 C   0  0  0  0  0  0
    0.6191   29.8539    8.5763 S   0  0  0  0  0  0
    2.4580   30.3456    6.6719 N   0  0  0  0  0  0
    3.1769   29.0967    6.8984 C   0  0  1  0  0  0
    3.9340   28.6364    5.6404 C   0  0  0  0  0  0
    4.5950   27.2650    5.8977 C   0  0  0  0  0  0
    5.4369   27.2656    7.1943 C   0  0  0  0  0  0
    4.7128   27.8423    8.4472 C   0  0  1  0  0  0
    4.1495   29.2275    8.0807 C   0  0  0  0  0  0
    3.6629   26.9765    8.9760 N   0  0  0  0  0  0
   -1.0770   25.7307    9.6719 H   0  0  0  0  0  0
   -2.6088   24.5411   14.2903 H   0  0  0  0  0  0
   -3.4044   25.4453   13.0020 H   0  0  0  0  0  0
   -2.5105   26.2996   14.2343 H   0  0  0  0  0  0
    0.8960   25.3884   12.9798 H   0  0  0  0  0  0
    0.0529   26.3700   14.1745 H   0  0  0  0  0  0
    0.0578   24.6137   14.3573 H   0  0  0  0  0  0
   -0.2213   23.8133   11.5006 H   0  0  0  0  0  0
   -1.2948   23.1061   12.7041 H   0  0  0  0  0  0
   -1.9421   23.8718   11.2585 H   0  0  0  0  0  0
   -1.8072   30.2519   12.2082 H   0  0  0  0  0  0
   -0.2123   30.3373   11.5294 H   0  0  0  0  0  0
   -0.5203   33.2317    8.1878 H   0  0  0  0  0  0
    3.0613   30.9954    6.1762 H   0  0  0  0  0  0
    2.4579   28.3353    7.1588 H   0  0  0  0  0  0
    3.2574   28.5412    4.7970 H   0  0  0  0  0  0
    4.6882   29.3727    5.3541 H   0  0  0  0  0  0
    5.2270   26.9981    5.0495 H   0  0  0  0  0  0
    3.8377   26.4841    5.9533 H   0  0  0  0  0  0
    6.3358   27.8428    6.9817 H   0  0  0  0  0  0
    5.7856   26.2538    7.4052 H   0  0  0  0  0  0
    5.4759   28.0123    9.2074 H   0  0  0  0  0  0
    4.9626   29.9174    7.8499 H   0  0  0  0  0  0
    3.6269   29.6422    8.9404 H   0  0  0  0  0  0
    4.1448   26.2534    9.5069 H   0  0  0  0  0  0
    3.1319   27.4833    9.6692 H   0  0  0  0  0  0
  1  5  2  0  0  0
  1  2  1  0  0  0
  1 25  1  0  0  0
  2  3  2  0  0  0
  3  4  1  0  0  0
  3 10  1  0  0  0
  4  5  1  0  0  0
  5  6  1  0  0  0
  6  7  1  0  0  0
  6  8  1  0  0  0
  6  9  1  0  0  0
  7 26  1  0  0  0
  7 27  1  0  0  0
  7 28  1  0  0  0
  8 29  1  0  0  0
  8 30  1  0  0  0
  8 31  1  0  0  0
  9 32  1  0  0  0
  9 33  1  0  0  0
  9 34  1  0  0  0
 10 11  1  0  0  0
 10 35  1  0  0  0
 10 36  1  0  0  0
 11 12  1  0  0  0
 12 13  2  0  0  0
 12 16  1  0  0  0
 13 14  1  0  0  0
 13 37  1  0  0  0
 14 15  2  0  0  0
 15 16  1  0  0  0
 15 17  1  0  0  0
 17 18  1  0  0  0
 17 38  1  0  0  0
 18 19  1  0  0  0
 18 23  1  0  0  0
 18 39  1  0  0  0
 19 20  1  0  0  0
 19 40  1  0  0  0
 19 41  1  0  0  0
 20 21  1  0  0  0
 20 42  1  0  0  0
 20 43  1  0  0  0
 21 22  1  0  0  0
 21 44  1  0  0  0
 21 45  1  0  0  0
 22 23  1  0  0  0
 22 24  1  0  0  0
 22 46  1  0  0  0
 23 47  1  0  0  0
 23 48  1  0  0  0
 24 49  1  0  0  0
 24 50  1  0  0  0
M  END
> <s_m_entry_id>
33138

> <s_m_entry_name>
dock_pv.539

> <s_m_Source_Path>
/home/csk/Desktop/cluster/DUD-E-result/cdk2

> <s_m_Source_File>
dock_pv.maegz

> <i_m_Source_File_Index>
539

> <chembl_id>
CHEMBL505474

> <chembl_pref_name>
None

> <i_lp_mmshare_version>
53161

> <i_f3d_flags>
0

> <r_lp_tautomer_probability>
1

> <s_lp_Force_Field>
OPLS_2005

> <r_lp_Energy>
9.667824

> <b_lp_Chiralities_Consistent>
1

> <s_lp_Variant>
CHEMBL301_lig578-4

> <s_i_glide_gridfile>
glide-grid_1h00

> <i_i_glide_lignum>
812

> <i_i_glide_rotatable_bonds>
6

> <r_i_docking_score>
-6.94435119573421

> <r_i_glide_ligand_efficiency>
-0.289347966488925

> <r_i_glide_ligand_efficiency_sa>
-0.83462395979179

> <r_i_glide_ligand_efficiency_ln>
-1.6621018966517

> <r_i_glide_gscore>
-6.94435119573421

> <r_i_glide_lipo>
-2.9288259857825

> <r_i_glide_hbond>
-0.400604439529689

> <r_i_glide_metal>
0

> <r_i_glide_rewards>
-1.94787745144484

> <r_i_glide_evdw>
-32.3901023864746

> <r_i_glide_ecoul>
-5.09244203567505

> <r_i_glide_erotb>
0.716328105697801

> <r_i_glide_esite>
0

> <r_i_glide_emodel>
-50.9228440715071

> <r_i_glide_energy>
-37.4825444221497

> <r_i_glide_einternal>
2.80938529968262

> <i_i_glide_confnum>
171

> <i_i_glide_posenum>
47

> <r_i_glide_eff_state_penalty>
0

> <s_user_duplicate_titles>
CHEMBL301_lig578

> <s_m_subgroup_title>
dock_pv

> <s_m_subgroupid>
dock_pv

> <b_m_subgroup_collapsed>
1

$$$$
CHEMBL301_lig694
                    3D
 Schrodinger Suite 2021-1.
 43 46  0  0  1  0            999 V2000
    4.4583   23.5805    5.8195 C   0  0  0  0  0  0
    4.2986   23.1044    4.5273 C   0  0  0  0  0  0
    4.2743   24.2491    3.7761 N   0  0  0  0  0  0
    4.4118   25.3729    4.4828 N   0  0  0  0  0  0
    4.5250   24.9802    5.7379 C   0  0  0  0  0  0
    4.6612   25.8177    6.8395 N   0  0  0  0  0  0
    4.7813   27.1644    6.8209 C   0  0  0  0  0  0
    4.7563   27.8686    8.1838 C   0  0  0  0  0  0
    4.8581   27.8500    5.8002 O   0  0  0  0  0  0
    4.1742   21.7103    3.9394 C   0  0  0  0  0  0
    3.4071   21.4612    2.6581 C   0  0  0  0  0  0
    4.9207   21.3461    2.6764 C   0  0  0  0  0  0
    3.3908   28.4961    8.4682 C   0  0  0  0  0  0
    2.5983   28.0459    9.5249 C   0  0  0  0  0  0
    1.3571   28.6347    9.7758 C   0  0  0  0  0  0
    0.8649   29.6828    8.9765 C   0  0  0  0  0  0
    1.6691   30.1147    7.9004 C   0  0  0  0  0  0
    2.9085   29.5255    7.6602 C   0  0  0  0  0  0
   -0.4722   30.2982    9.2827 C   0  0  0  0  0  0
   -1.4871   29.5303    9.8742 C   0  0  0  0  0  0
   -2.7253   30.0881   10.1761 C   0  0  0  0  0  0
   -2.9637   31.4292    9.9051 C   0  0  0  0  0  0
   -1.9728   32.2178    9.3312 C   0  0  0  0  0  0
   -0.7419   31.6520    9.0131 C   0  0  0  0  0  0
    1.2579   31.0805    7.0457 F   0  0  0  0  0  0
    4.5120   22.9837    6.7180 H   0  0  0  0  0  0
    4.1700   24.2611    2.7638 H   0  0  0  0  0  0
    4.6520   25.3690    7.7423 H   0  0  0  0  0  0
    5.0296   27.1729    8.9760 H   0  0  0  0  0  0
    5.5180   28.6510    8.1877 H   0  0  0  0  0  0
    4.1047   20.9281    4.6944 H   0  0  0  0  0  0
    2.9444   22.3033    2.1426 H   0  0  0  0  0  0
    2.8075   20.5532    2.5791 H   0  0  0  0  0  0
    5.3839   20.3604    2.6191 H   0  0  0  0  0  0
    5.5120   22.1102    2.1697 H   0  0  0  0  0  0
    2.9509   27.2496   10.1675 H   0  0  0  0  0  0
    0.7894   28.2748   10.6200 H   0  0  0  0  0  0
    3.4986   29.8524    6.8180 H   0  0  0  0  0  0
   -1.3331   28.4856   10.0982 H   0  0  0  0  0  0
   -3.4949   29.4867   10.6415 H   0  0  0  0  0  0
   -3.9198   31.8573   10.1685 H   0  0  0  0  0  0
   -2.1556   33.2660    9.1439 H   0  0  0  0  0  0
    0.0186   32.2920    8.5938 H   0  0  0  0  0  0
  1  2  2  0  0  0
  1  5  1  0  0  0
  1 26  1  0  0  0
  2  3  1  0  0  0
  2 10  1  0  0  0
  3  4  1  0  0  0
  3 27  1  0  0  0
  4  5  2  0  0  0
  5  6  1  0  0  0
  6  7  1  0  0  0
  6 28  1  0  0  0
  7  8  1  0  0  0
  7  9  2  0  0  0
  8 13  1  0  0  0
  8 29  1  0  0  0
  8 30  1  0  0  0
 10 11  1  0  0  0
 10 12  1  0  0  0
 10 31  1  0  0  0
 11 12  1  0  0  0
 11 32  1  0  0  0
 11 33  1  0  0  0
 12 34  1  0  0  0
 12 35  1  0  0  0
 13 14  2  0  0  0
 13 18  1  0  0  0
 14 15  1  0  0  0
 14 36  1  0  0  0
 15 16  2  0  0  0
 15 37  1  0  0  0
 16 17  1  0  0  0
 16 19  1  0  0  0
 17 18  2  0  0  0
 17 25  1  0  0  0
 18 38  1  0  0  0
 19 20  2  0  0  0
 19 24  1  0  0  0
 20 21  1  0  0  0
 20 39  1  0  0  0
 21 22  2  0  0  0
 21 40  1  0  0  0
 22 23  1  0  0  0
 22 41  1  0  0  0
 23 24  2  0  0  0
 23 42  1  0  0  0
 24 43  1  0  0  0
M  END
> <s_m_entry_id>
33139

> <s_m_entry_name>
dock_pv.540

> <s_m_Source_Path>
/home/csk/Desktop/cluster/DUD-E-result/cdk2

> <s_m_Source_File>
dock_pv.maegz

> <i_m_Source_File_Index>
540

> <chembl_id>
CHEMBL489477

> <chembl_pref_name>
None

> <i_lp_mmshare_version>
53161

> <i_f3d_flags>
0

> <r_lp_tautomer_probability>
0.5

> <s_lp_Force_Field>
OPLS_2005

> <r_lp_Energy>
22.002037

> <b_lp_Chiralities_Consistent>
1

> <s_lp_Variant>
CHEMBL301_lig694-1

> <s_i_glide_gridfile>
glide-grid_1h00

> <i_i_glide_lignum>
972

> <i_i_glide_rotatable_bonds>
6

> <r_i_docking_score>
-6.93677848090033

> <r_i_glide_ligand_efficiency>
-0.277471139236013

> <r_i_glide_ligand_efficiency_sa>
-0.811330532097711

> <r_i_glide_ligand_efficiency_ln>
-1.64422437844969

> <r_i_glide_gscore>
-6.93677848090033

> <r_i_glide_lipo>
-2.97847233098681

> <r_i_glide_hbond>
-0.16

> <r_i_glide_metal>
0

> <r_i_glide_rewards>
-2.36419802535903

> <r_i_glide_evdw>
-36.3312683105469

> <r_i_glide_ecoul>
-3.65060687065125

> <r_i_glide_erotb>
1.00675447188593

> <r_i_glide_esite>
-0.0767081503153879

> <r_i_glide_emodel>
-56.6501824912336

> <r_i_glide_energy>
-39.9818751811981

> <r_i_glide_einternal>
2.36174368858337

> <i_i_glide_confnum>
12

> <i_i_glide_posenum>
222

> <r_i_glide_eff_state_penalty>
0

> <s_user_duplicate_titles>
CHEMBL301_lig694,454884

> <s_m_subgroup_title>
dock_pv

> <s_m_subgroupid>
dock_pv

> <b_m_subgroup_collapsed>
1

$$$$
CHEMBL301_lig268
                    3D
 Schrodinger Suite 2021-1.
 49 52  0  0  1  0            999 V2000
    0.3517   30.4514    8.6004 C   0  0  0  0  0  0
    0.2296   29.2772    9.3726 C   0  0  0  0  0  0
   -0.9523   28.9703   10.0956 C   0  0  0  0  0  0
    1.5576   30.6533    7.7306 C   0  0  0  0  0  0
    2.4580   28.6798    8.8085 C   0  0  0  0  0  0
    2.6311   29.7270    7.9901 C   0  0  0  0  0  0
    1.2865   28.3874    9.4221 O   0  0  0  0  0  0
   -0.6518   31.4204    8.7068 C   0  0  0  0  0  0
   -1.9858   29.9314   10.0418 C   0  0  0  0  0  0
   -1.1649   27.6318   10.8950 C   0  0  2  0  0  0
   -1.8103   31.1497    9.4077 C   0  0  0  0  0  0
   -1.7881   27.7937   12.3185 C   0  0  1  0  0  0
   -0.7653   25.5977   13.0888 N   0  0  2  0  0  0
    3.6579   27.5082    9.3758 S   0  0  0  0  0  0
    0.0260   26.6396   10.9763 C   0  0  0  0  0  0
   -1.9426   26.4733   13.1187 C   0  0  0  0  0  0
    1.6580   31.5965    6.9439 O   0  0  0  0  0  0
   -0.3013   25.3368   11.7268 C   0  0  0  0  0  0
   -0.5211   32.6749    8.1761 O   0  0  0  0  0  0
   -3.2262   29.7309   10.5760 O   0  0  0  0  0  0
   -1.1420   28.7902   13.0855 O   0  0  0  0  0  0
    4.2353   26.7239    7.9015 C   0  0  0  0  0  0
   -1.0295   24.3477   13.7938 C   0  0  0  0  0  0
    4.0581   25.3456    7.7734 C   0  0  0  0  0  0
    4.8596   27.4531    6.8874 C   0  0  0  0  0  0
    5.2604   26.8064    5.7216 C   0  0  0  0  0  0
    4.4601   24.7004    6.6068 C   0  0  0  0  0  0
    5.0525   25.4357    5.5825 C   0  0  0  0  0  0
    3.5954   29.9301    7.5566 H   0  0  0  0  0  0
   -1.9098   27.1081   10.2970 H   0  0  0  0  0  0
   -2.5948   31.8929    9.4354 H   0  0  0  0  0  0
   -2.8123   28.1299   12.2021 H   0  0  0  0  0  0
    0.9067   27.0916   11.4369 H   0  0  0  0  0  0
    0.2938   26.3109    9.9722 H   0  0  0  0  0  0
   -2.7928   25.9177   12.7165 H   0  0  0  0  0  0
   -2.1960   26.6948   14.1572 H   0  0  0  0  0  0
   -1.0490   24.7537   11.1847 H   0  0  0  0  0  0
    0.5969   24.7184   11.7746 H   0  0  0  0  0  0
    0.3013   32.7679    7.6822 H   0  0  0  0  0  0
   -3.4750   30.4145   11.2131 H   0  0  0  0  0  0
   -1.7595   29.0528   13.7760 H   0  0  0  0  0  0
   -1.3182   24.5434   14.8271 H   0  0  0  0  0  0
   -1.8300   23.7793   13.3169 H   0  0  0  0  0  0
   -0.1377   23.7209   13.8181 H   0  0  0  0  0  0
    3.5803   24.7813    8.5611 H   0  0  0  0  0  0
    5.0527   28.5089    6.9922 H   0  0  0  0  0  0
    5.7435   27.3661    4.9334 H   0  0  0  0  0  0
    4.3010   23.6382    6.4926 H   0  0  0  0  0  0
    5.3613   24.9377    4.6745 H   0  0  0  0  0  0
  1  2  2  0  0  0
  1  4  1  0  0  0
  1  8  1  0  0  0
  2  3  1  0  0  0
  2  7  1  0  0  0
  3 10  1  0  0  0
  3  9  2  0  0  0
  4  6  1  0  0  0
  4 17  2  0  0  0
  5  6  2  0  0  0
  5 14  1  0  0  0
  5  7  1  0  0  0
  6 29  1  0  0  0
  8 11  2  0  0  0
  8 19  1  0  0  0
  9 11  1  0  0  0
  9 20  1  0  0  0
 10 12  1  0  0  0
 10 15  1  0  0  0
 10 30  1  0  0  0
 11 31  1  0  0  0
 12 16  1  0  0  0
 12 21  1  0  0  0
 12 32  1  0  0  0
 13 18  1  0  0  0
 13 23  1  0  0  0
 13 16  1  0  0  0
 14 22  1  0  0  0
 15 18  1  0  0  0
 15 33  1  0  0  0
 15 34  1  0  0  0
 16 35  1  0  0  0
 16 36  1  0  0  0
 18 37  1  0  0  0
 18 38  1  0  0  0
 19 39  1  0  0  0
 20 40  1  0  0  0
 21 41  1  0  0  0
 22 24  2  0  0  0
 22 25  1  0  0  0
 23 42  1  0  0  0
 23 43  1  0  0  0
 23 44  1  0  0  0
 24 27  1  0  0  0
 24 45  1  0  0  0
 25 26  2  0  0  0
 25 46  1  0  0  0
 26 28  1  0  0  0
 26 47  1  0  0  0
 27 28  2  0  0  0
 27 48  1  0  0  0
 28 49  1  0  0  0
M  END
> <s_m_entry_id>
33140

> <s_m_entry_name>
dock_pv.541

> <s_m_Source_Path>
/home/csk/Desktop/cluster/DUD-E-result/cdk2

> <s_m_Source_File>
dock_pv.maegz

> <i_m_Source_File_Index>
541

> <chembl_id>
CHEMBL112050

> <chembl_pref_name>
None

> <i_lp_mmshare_version>
53161

> <i_f3d_flags>
0

> <r_lp_tautomer_probability>
1

> <s_lp_Force_Field>
OPLS_2005

> <r_lp_Energy>
42.111661

> <b_lp_Chiralities_Consistent>
1

> <s_lp_Variant>
CHEMBL301_lig268-3

> <s_i_glide_gridfile>
glide-grid_1h00

> <i_i_glide_lignum>
413

> <i_i_glide_rotatable_bonds>
6

> <r_i_docking_score>
-6.93571484610263

> <r_i_glide_ligand_efficiency>
-0.247704101646523

> <r_i_glide_ligand_efficiency_sa>
-0.752175542512731

> <r_i_glide_ligand_efficiency_ln>
-1.60096662791714

> <r_i_glide_gscore>
-6.93571484610263

> <r_i_glide_lipo>
-3.41970009403621

> <r_i_glide_hbond>
-0.077037656019046

> <r_i_glide_metal>
0

> <r_i_glide_rewards>
-0.827158893939393

> <r_i_glide_evdw>
-38.7512359619141

> <r_i_glide_ecoul>
-6.95099449157715

> <r_i_glide_erotb>
0.368392769724295

> <r_i_glide_esite>
0

> <r_i_glide_emodel>
-47.4494906523391

> <r_i_glide_energy>
-45.7022304534912

> <r_i_glide_einternal>
24.212366104126

> <i_i_glide_confnum>
24

> <i_i_glide_posenum>
20

> <r_i_glide_eff_state_penalty>
0

> <s_user_duplicate_titles>
CHEMBL301_lig268

> <s_m_subgroup_title>
dock_pv

> <s_m_subgroupid>
dock_pv

> <b_m_subgroup_collapsed>
1

$$$$
CHEMBL301_lig251
                    3D
 Schrodinger Suite 2021-1.
 40 43  0  0  1  0            999 V2000
   -1.4388   25.4113   12.8708 C   0  0  0  0  0  0
    1.8175   29.3202    8.6762 N   0  0  0  0  0  0
    2.2036   28.2525    9.4545 C   0  0  0  0  0  0
    2.6122   29.7562    7.5951 C   0  0  0  0  0  0
    3.7932   29.0490    7.2993 C   0  0  0  0  0  0
    4.1611   27.9607    8.0878 C   0  0  0  0  0  0
    3.3697   27.5662    9.1578 C   0  0  0  0  0  0
   -1.6061   30.8667    9.4249 C   0  0  0  0  0  0
   -0.5450   29.9595    9.4952 C   0  0  0  0  0  0
    0.6822   30.1178    8.6529 C   0  0  0  0  0  0
    0.9538   31.0524    7.6515 C   0  0  0  0  0  0
   -2.7436   30.5688   10.1763 C   0  0  0  0  0  0
   -1.2159   26.2647   11.7891 C   0  0  0  0  0  0
   -1.7586   28.6369   10.9738 C   0  0  0  0  0  0
   -0.6170   28.8523   10.2773 N   0  0  0  0  0  0
   -0.3701   25.8544   10.7525 C   0  0  0  0  0  0
    0.2764   24.6264   10.8162 C   0  0  0  0  0  0
    0.0477   23.7787   11.9008 C   0  0  0  0  0  0
    2.0317   22.2438   11.0976 O   0  0  0  0  0  0
    0.8576   22.1847   11.9770 S   0  0  0  0  0  0
    0.9887   21.8381   13.3934 O   0  0  0  0  0  0
   -0.2816   21.0643   11.2737 N   0  0  0  0  0  0
   -0.8129   24.1688   12.9285 C   0  0  0  0  0  0
   -1.8937   27.4960   11.7757 N   0  0  0  0  0  0
   -2.8326   29.4522   10.9481 N   0  0  0  0  0  0
    2.0577   30.8299    6.9786 N   0  0  0  0  0  0
   -2.1016   25.7114   13.6700 H   0  0  0  0  0  0
    1.5980   27.9694   10.2962 H   0  0  0  0  0  0
    4.4053   29.3224    6.4580 H   0  0  0  0  0  0
    5.0669   27.4142    7.8639 H   0  0  0  0  0  0
    3.6578   26.7264    9.7691 H   0  0  0  0  0  0
   -1.5685   31.7512    8.8082 H   0  0  0  0  0  0
    0.3206   31.8857    7.3878 H   0  0  0  0  0  0
   -3.6046   31.2231   10.1755 H   0  0  0  0  0  0
   -0.2167   26.4616    9.8772 H   0  0  0  0  0  0
    0.9347   24.3339   10.0108 H   0  0  0  0  0  0
    0.0748   20.6098   10.4297 H   0  0  0  0  0  0
   -0.6807   20.4000   11.9493 H   0  0  0  0  0  0
   -0.9945   23.5155   13.7681 H   0  0  0  0  0  0
   -2.6825   27.5556   12.4035 H   0  0  0  0  0  0
  1 13  2  0  0  0
  1 23  1  0  0  0
  1 27  1  0  0  0
  2  3  1  0  0  0
  2  4  1  0  0  0
  2 10  1  0  0  0
  3  7  2  0  0  0
  3 28  1  0  0  0
  4  5  1  0  0  0
  4 26  2  0  0  0
  5  6  2  0  0  0
  5 29  1  0  0  0
  6  7  1  0  0  0
  6 30  1  0  0  0
  7 31  1  0  0  0
  8  9  2  0  0  0
  8 12  1  0  0  0
  8 32  1  0  0  0
  9 10  1  0  0  0
  9 15  1  0  0  0
 10 11  2  0  0  0
 11 26  1  0  0  0
 11 33  1  0  0  0
 12 25  2  0  0  0
 12 34  1  0  0  0
 13 16  1  0  0  0
 13 24  1  0  0  0
 14 15  2  0  0  0
 14 24  1  0  0  0
 14 25  1  0  0  0
 16 17  2  0  0  0
 16 35  1  0  0  0
 17 18  1  0  0  0
 17 36  1  0  0  0
 18 20  1  0  0  0
 18 23  2  0  0  0
 19 20  2  0  0  0
 20 21  2  0  0  0
 20 22  1  0  0  0
 22 37  1  0  0  0
 22 38  1  0  0  0
 23 39  1  0  0  0
 24 40  1  0  0  0
M  END
> <s_m_entry_id>
33141

> <s_m_entry_name>
dock_pv.542

> <s_m_Source_Path>
/home/csk/Desktop/cluster/DUD-E-result/cdk2

> <s_m_Source_File>
dock_pv.maegz

> <i_m_Source_File_Index>
542

> <chembl_id>
CHEMBL73303

> <chembl_pref_name>
None

> <i_lp_mmshare_version>
53161

> <i_f3d_flags>
0

> <r_lp_tautomer_probability>
0.999999987636

> <s_lp_Force_Field>
OPLS_2005

> <r_lp_Energy>
15.868277

> <b_lp_Chiralities_Consistent>
1

> <s_lp_Variant>
CHEMBL301_lig251-1

> <s_i_glide_gridfile>
glide-grid_1h00

> <i_i_glide_lignum>
394

> <i_i_glide_rotatable_bonds>
4

> <r_i_docking_score>
-6.93568538789003

> <r_i_glide_ligand_efficiency>
-0.266757130303463

> <r_i_glide_ligand_efficiency_sa>
-0.790266948885385

> <r_i_glide_ligand_efficiency_ln>
-1.628822955506

> <r_i_glide_gscore>
-6.93568538789003

> <r_i_glide_lipo>
-2.44708345557648

> <r_i_glide_hbond>
0

> <r_i_glide_metal>
0

> <r_i_glide_rewards>
-1.86447691442166

> <r_i_glide_evdw>
-37.9359893798828

> <r_i_glide_ecoul>
-6.76023054122925

> <r_i_glide_erotb>
0.430107918583494

> <r_i_glide_esite>
-0.143398886296848

> <r_i_glide_emodel>
-64.8114805954862

> <r_i_glide_energy>
-44.6962199211121

> <r_i_glide_einternal>
1.51560306549072

> <i_i_glide_confnum>
2

> <i_i_glide_posenum>
246

> <r_i_glide_eff_state_penalty>
0

> <s_user_duplicate_titles>
CHEMBL301_lig251,115177

> <s_m_subgroup_title>
dock_pv

> <s_m_subgroupid>
dock_pv

> <b_m_subgroup_collapsed>
1

$$$$
CHEMBL301_lig1456
                    3D
 Schrodinger Suite 2021-1.
 45 46  0  0  1  0            999 V2000
   -1.0433   29.5107   13.1942 C   0  0  0  0  0  0
   -1.0227   28.2606   12.3141 C   0  0  1  0  0  0
   -2.3549   27.8074   12.1760 O   0  0  0  0  0  0
   -0.3327   28.4919   10.9416 C   0  0  1  0  0  0
   -0.2372   27.2045   10.1052 C   0  0  0  0  0  0
   -1.0124   29.5440   10.2346 O   0  0  0  0  0  0
   -0.3504   30.3465    9.3212 C   0  0  0  0  0  0
    0.7517   29.8519    8.6873 N   0  0  0  0  0  0
    1.3639   30.6525    7.7758 C   0  0  0  0  0  0
    2.4578   30.1897    7.0332 N   0  0  0  0  0  0
    3.2582   29.0375    7.1003 C   0  0  0  0  0  0
    3.3409   28.2520    8.2507 C   0  0  0  0  0  0
    4.0785   27.0746    8.2315 C   0  0  0  0  0  0
    4.7934   26.7044    7.0920 C   0  0  0  0  0  0
    4.7531   27.5032    5.9545 C   0  0  0  0  0  0
    3.9758   28.6527    5.9608 C   0  0  0  0  0  0
    5.7564   25.2001    7.0846 S   0  0  0  0  0  0
    6.2235   24.9872    5.7101 O   0  0  0  0  0  0
    6.7276   25.3294    8.1758 O   0  0  0  0  0  0
    4.4944   23.8401    7.4936 C   0  0  0  0  0  0
    5.1041   22.6607    7.3764 F   0  0  0  0  0  0
    4.0576   24.0099    8.7416 F   0  0  0  0  0  0
    0.9899   31.9222    7.4877 N   0  0  0  0  0  0
   -0.0703   32.4156    8.1760 C   0  0  0  0  0  0
   -0.8218   31.6439    9.0669 C   0  0  0  0  0  0
   -2.0704   32.2210    9.7262 C   0  0  0  0  0  0
   -3.1336   31.8521    9.0122 F   0  0  0  0  0  0
   -2.2308   31.8029   10.9759 F   0  0  0  0  0  0
   -2.0140   33.5524    9.7608 F   0  0  0  0  0  0
   -0.0275   29.8520   13.3760 H   0  0  0  0  0  0
   -1.5409   29.3325   14.1494 H   0  0  0  0  0  0
   -1.5695   30.3258   12.7104 H   0  0  0  0  0  0
   -0.4776   27.4836   12.8535 H   0  0  0  0  0  0
   -2.8941   28.2344   12.8587 H   0  0  0  0  0  0
    0.6868   28.8163   11.1649 H   0  0  0  0  0  0
    0.0027   26.3400   10.7231 H   0  0  0  0  0  0
   -1.1685   26.9973    9.5787 H   0  0  0  0  0  0
    0.5614   27.2941    9.3761 H   0  0  0  0  0  0
    2.7990   30.8638    6.3631 H   0  0  0  0  0  0
    2.8152   28.5182    9.1537 H   0  0  0  0  0  0
    4.0580   26.4442    9.0992 H   0  0  0  0  0  0
    5.3086   27.2383    5.0659 H   0  0  0  0  0  0
    3.9528   29.2518    5.0667 H   0  0  0  0  0  0
    3.6598   23.8937    6.7945 H   0  0  0  0  0  0
   -0.3427   33.4374    7.9475 H   0  0  0  0  0  0
  1  2  1  0  0  0
  1 30  1  0  0  0
  1 31  1  0  0  0
  1 32  1  0  0  0
  2  3  1  0  0  0
  2  4  1  0  0  0
  2 33  1  0  0  0
  3 34  1  0  0  0
  4  5  1  0  0  0
  4  6  1  0  0  0
  4 35  1  0  0  0
  5 36  1  0  0  0
  5 37  1  0  0  0
  5 38  1  0  0  0
  6  7  1  0  0  0
  7  8  2  0  0  0
  7 25  1  0  0  0
  8  9  1  0  0  0
  9 10  1  0  0  0
  9 23  2  0  0  0
 10 11  1  0  0  0
 10 39  1  0  0  0
 11 12  2  0  0  0
 11 16  1  0  0  0
 12 13  1  0  0  0
 12 40  1  0  0  0
 13 14  2  0  0  0
 13 41  1  0  0  0
 14 15  1  0  0  0
 14 17  1  0  0  0
 15 16  2  0  0  0
 15 42  1  0  0  0
 16 43  1  0  0  0
 17 18  2  0  0  0
 17 19  2  0  0  0
 17 20  1  0  0  0
 20 21  1  0  0  0
 20 22  1  0  0  0
 20 44  1  0  0  0
 23 24  1  0  0  0
 24 25  2  0  0  0
 24 45  1  0  0  0
 25 26  1  0  0  0
 26 27  1  0  0  0
 26 28  1  0  0  0
 26 29  1  0  0  0
M  END
> <s_m_entry_id>
33142

> <s_m_entry_name>
dock_pv.543

> <s_m_Source_Path>
/home/csk/Desktop/cluster/DUD-E-result/cdk2

> <s_m_Source_File>
dock_pv.maegz

> <i_m_Source_File_Index>
543

> <chembl_id>
CHEMBL3644021

> <chembl_pref_name>
None

> <i_lp_mmshare_version>
53161

> <i_f3d_flags>
0

> <r_lp_tautomer_probability>
0.999999917912647

> <s_lp_Force_Field>
OPLS_2005

> <r_lp_Energy>
7.230376

> <b_lp_Chiralities_Consistent>
1

> <s_lp_Variant>
CHEMBL301_lig1456-1

> <s_i_glide_gridfile>
glide-grid_1h00

> <i_i_glide_lignum>
1969

> <i_i_glide_rotatable_bonds>
9

> <r_i_docking_score>
-6.9346020397596

> <r_i_glide_ligand_efficiency>
-0.239124208267572

> <r_i_glide_ligand_efficiency_sa>
-0.734665327664658

> <r_i_glide_ligand_efficiency_ln>
-1.58784802076966

> <r_i_glide_gscore>
-6.9346020397596

> <r_i_glide_lipo>
-2.63025224887949

> <r_i_glide_hbond>
-0.185217713020521

> <r_i_glide_metal>
0

> <r_i_glide_rewards>
-1.72948264856816

> <r_i_glide_evdw>
-35.8030776977539

> <r_i_glide_ecoul>
-7.42842578887939

> <r_i_glide_erotb>
0.615195675555567

> <r_i_glide_esite>
-0.100427351627399

> <r_i_glide_emodel>
-57.5891468710602

> <r_i_glide_energy>
-43.2315034866333

> <r_i_glide_einternal>
7.25851154327393

> <i_i_glide_confnum>
96

> <i_i_glide_posenum>
140

> <r_i_glide_eff_state_penalty>
0

> <s_user_duplicate_titles>
CHEMBL301_lig1456

> <s_m_subgroup_title>
dock_pv

> <s_m_subgroupid>
dock_pv

> <b_m_subgroup_collapsed>
1

$$$$
CHEMBL301_lig493
                    3D
 Schrodinger Suite 2021-1.
 51 54  0  0  1  0            999 V2000
   -0.0539   25.5923   11.7936 C   0  0  0  0  0  0
   -0.9412   26.6367   11.5133 C   0  0  0  0  0  0
   -0.4624   27.6896   10.7035 C   0  0  0  0  0  0
    0.7852   27.6214   10.1760 N   0  0  0  0  0  0
    1.5784   26.5655   10.4939 C   0  0  0  0  0  0
    1.2150   25.5488   11.3124 N   0  0  0  0  0  0
    2.8580   26.4849    9.9249 N   0  0  0  0  0  0
   -1.1529   28.9960   10.3934 C   0  0  0  0  0  0
   -2.5615   30.7639   10.5760 N   0  0  0  0  0  0
   -2.3100   29.4805   10.9760 C   0  0  0  0  0  0
   -1.6063   31.1721    9.6827 C   0  0  0  0  0  0
   -0.7328   30.0558    9.4855 C   0  0  0  0  0  0
    0.3087   30.2110    8.5513 C   0  0  0  0  0  0
    0.4847   31.4296    7.9021 C   0  0  0  0  0  0
   -0.3420   32.5124    8.1760 C   0  0  0  0  0  0
   -1.4224   32.4057    9.0501 C   0  0  0  0  0  0
   -2.5347   26.5608   12.1798 Cl  0  0  0  0  0  0
    3.2225   27.2522    8.7382 C   0  0  1  0  0  0
    3.6501   28.6520    9.1085 C   0  0  0  0  0  0
    4.0455   29.4447    7.8629 C   0  0  0  0  0  0
    5.1279   28.7281    7.0278 C   0  0  0  0  0  0
    4.7152   27.3220    6.7888 N   0  0  0  0  0  0
    4.3664   26.5325    7.9917 C   0  0  0  0  0  0
    4.6170   26.7548    5.5528 C   0  0  0  0  0  0
    5.1890   27.4447    4.5462 N   0  0  0  0  0  0
    4.0581   25.6728    5.3580 O   0  0  0  0  0  0
    5.2243   27.0520    3.1382 C   0  0  0  0  0  0
    3.8470   27.0520    2.4590 C   0  0  0  0  0  0
   -0.3561   24.7677   12.4218 H   0  0  0  0  0  0
    3.5454   25.8520   10.3150 H   0  0  0  0  0  0
   -3.3218   31.3043   10.9692 H   0  0  0  0  0  0
   -2.9567   29.0585   11.7324 H   0  0  0  0  0  0
    0.9888   29.4054    8.3417 H   0  0  0  0  0  0
    1.2977   31.5468    7.1998 H   0  0  0  0  0  0
   -0.1583   33.4520    7.6758 H   0  0  0  0  0  0
   -2.0768   33.2452    9.2343 H   0  0  0  0  0  0
    2.3377   27.4520    8.1760 H   0  0  0  0  0  0
    4.4809   28.6061    9.7760 H   0  0  0  0  0  0
    2.8443   29.1591    9.6298 H   0  0  0  0  0  0
    4.4072   30.4264    8.1751 H   0  0  0  0  0  0
    3.1715   29.6339    7.2378 H   0  0  0  0  0  0
    6.0580   28.7075    7.5888 H   0  0  0  0  0  0
    5.2580   29.2997    6.1099 H   0  0  0  0  0  0
    4.0873   25.5035    7.7576 H   0  0  0  0  0  0
    5.2532   26.4781    8.6222 H   0  0  0  0  0  0
    5.7441   28.2520    4.7939 H   0  0  0  0  0  0
    5.6765   26.0616    3.0503 H   0  0  0  0  0  0
    5.8942   27.7333    2.6127 H   0  0  0  0  0  0
    3.9567   27.0520    1.3760 H   0  0  0  0  0  0
    3.2580   27.9221    2.7258 H   0  0  0  0  0  0
    3.2694   26.1685    2.7329 H   0  0  0  0  0  0
  1  2  2  0  0  0
  1  6  1  0  0  0
  1 29  1  0  0  0
  2 17  1  0  0  0
  2  3  1  0  0  0
  3  4  2  0  0  0
  3  8  1  0  0  0
  4  5  1  0  0  0
  5  7  1  0  0  0
  5  6  2  0  0  0
  7 18  1  0  0  0
  7 30  1  0  0  0
  8 12  1  0  0  0
  8 10  2  0  0  0
  9 11  1  0  0  0
  9 10  1  0  0  0
  9 31  1  0  0  0
 10 32  1  0  0  0
 11 16  1  0  0  0
 11 12  2  0  0  0
 12 13  1  0  0  0
 13 14  2  0  0  0
 13 33  1  0  0  0
 14 15  1  0  0  0
 14 34  1  0  0  0
 15 16  2  0  0  0
 15 35  1  0  0  0
 16 36  1  0  0  0
 18 19  1  0  0  0
 18 23  1  0  0  0
 18 37  1  0  0  0
 19 20  1  0  0  0
 19 38  1  0  0  0
 19 39  1  0  0  0
 20 21  1  0  0  0
 20 40  1  0  0  0
 20 41  1  0  0  0
 21 22  1  0  0  0
 21 42  1  0  0  0
 21 43  1  0  0  0
 22 23  1  0  0  0
 22 24  1  0  0  0
 23 44  1  0  0  0
 23 45  1  0  0  0
 24 25  1  0  0  0
 24 26  2  0  0  0
 25 27  1  0  0  0
 25 46  1  0  0  0
 27 28  1  0  0  0
 27 47  1  0  0  0
 27 48  1  0  0  0
 28 49  1  0  0  0
 28 50  1  0  0  0
 28 51  1  0  0  0
M  END
> <s_m_entry_id>
33143

> <s_m_entry_name>
dock_pv.544

> <s_m_Source_Path>
/home/csk/Desktop/cluster/DUD-E-result/cdk2

> <s_m_Source_File>
dock_pv.maegz

> <i_m_Source_File_Index>
544

> <chembl_id>
CHEMBL392614

> <chembl_pref_name>
None

> <i_lp_mmshare_version>
53161

> <i_f3d_flags>
0

> <r_lp_tautomer_probability>
0.999999987636

> <s_lp_Force_Field>
OPLS_2005

> <r_lp_Energy>
29.760577

> <b_lp_Chiralities_Consistent>
1

> <s_lp_Variant>
CHEMBL301_lig493-1

> <s_i_glide_gridfile>
glide-grid_1h00

> <i_i_glide_lignum>
684

> <i_i_glide_rotatable_bonds>
6

> <r_i_docking_score>
-6.9278453312154

> <r_i_glide_ligand_efficiency>
-0.247423047543407

> <r_i_glide_ligand_efficiency_sa>
-0.751322096723658

> <r_i_glide_ligand_efficiency_ln>
-1.59915011282217

> <r_i_glide_gscore>
-6.9278453312154

> <r_i_glide_lipo>
-3.21208684289886

> <r_i_glide_hbond>
-0.144857744241512

> <r_i_glide_metal>
0

> <r_i_glide_rewards>
-1.61430918080148

> <r_i_glide_evdw>
-36.250358581543

> <r_i_glide_ecoul>
-4.54550361633301

> <r_i_glide_erotb>
0.61557398411359

> <r_i_glide_esite>
-0.0778220758600437

> <r_i_glide_emodel>
-53.6231572001725

> <r_i_glide_energy>
-40.795862197876

> <r_i_glide_einternal>
5.11288118362427

> <i_i_glide_confnum>
8

> <i_i_glide_posenum>
124

> <r_i_glide_eff_state_penalty>
0

> <s_user_duplicate_titles>
CHEMBL301_lig493,410900

> <s_m_subgroup_title>
dock_pv

> <s_m_subgroupid>
dock_pv

> <b_m_subgroup_collapsed>
1

$$$$
CHEMBL301_lig612
                    3D
 Schrodinger Suite 2021-1.
 40 42  0  0  1  0            999 V2000
   -0.0457   27.8132   11.8718 C   0  0  0  0  0  0
   -1.2560   28.4862   12.0182 C   0  0  0  0  0  0
   -1.6010   29.4908   11.1171 C   0  0  0  0  0  0
    0.8220   28.1451   10.8315 C   0  0  0  0  0  0
    0.5018   29.1656    9.9140 C   0  0  0  0  0  0
   -0.7292   29.8310   10.0770 C   0  0  0  0  0  0
   -1.1400   30.9285    9.1260 C   0  0  0  0  0  0
   -0.2206   31.1989    8.1764 N   0  0  0  0  0  0
    0.9849   30.6517    7.9084 C   0  0  0  0  0  0
    1.4378   29.5829    8.8138 C   0  0  0  0  0  0
    1.6156   31.1053    6.9540 O   0  0  0  0  0  0
   -2.2056   31.5441    9.1463 O   0  0  0  0  0  0
    2.6784   29.0435    8.6539 C   0  0  0  0  0  0
    3.6621   29.3381    7.7344 N   0  0  0  0  0  0
    4.9004   28.6046    7.5303 C   0  0  0  0  0  0
    4.7065   27.4148    6.6027 C   0  0  0  0  0  0
    4.5943   27.5918    5.2175 C   0  0  0  0  0  0
    4.4109   26.4918    4.3741 C   0  0  0  0  0  0
    4.3157   25.1997    4.9097 C   0  0  0  0  0  0
    4.4558   25.0262    6.2977 C   0  0  0  0  0  0
    4.6536   26.1241    7.1342 C   0  0  0  0  0  0
    4.2943   26.6899    3.0167 O   0  0  0  0  0  0
    4.0781   24.1652    4.0250 O   0  0  0  0  0  0
    3.8185   22.8571    4.5267 C   0  0  0  0  0  0
    0.2313   27.0391   12.5736 H   0  0  0  0  0  0
   -1.9256   28.2362   12.8290 H   0  0  0  0  0  0
   -2.5427   30.0074   11.2524 H   0  0  0  0  0  0
    1.7491   27.5972   10.7769 H   0  0  0  0  0  0
   -0.4825   31.9400    7.5467 H   0  0  0  0  0  0
    3.0334   28.2694    9.3161 H   0  0  0  0  0  0
    3.4538   30.0061    7.0021 H   0  0  0  0  0  0
    5.2641   28.2382    8.4919 H   0  0  0  0  0  0
    5.6580   29.2838    7.1465 H   0  0  0  0  0  0
    4.6527   28.5839    4.7962 H   0  0  0  0  0  0
    4.3945   24.0479    6.7459 H   0  0  0  0  0  0
    4.7440   25.9670    8.1999 H   0  0  0  0  0  0
    4.2281   25.8629    2.5180 H   0  0  0  0  0  0
    3.5966   22.1910    3.6927 H   0  0  0  0  0  0
    2.9529   22.8451    5.1951 H   0  0  0  0  0  0
    4.6850   22.4521    5.0542 H   0  0  0  0  0  0
  1  2  2  0  0  0
  1  4  1  0  0  0
  1 25  1  0  0  0
  2  3  1  0  0  0
  2 26  1  0  0  0
  3  6  2  0  0  0
  3 27  1  0  0  0
  4  5  2  0  0  0
  4 28  1  0  0  0
  5 10  1  0  0  0
  5  6  1  0  0  0
  6  7  1  0  0  0
  7 12  2  0  0  0
  7  8  1  0  0  0
  8  9  1  0  0  0
  8 29  1  0  0  0
  9 10  1  0  0  0
  9 11  2  0  0  0
 10 13  2  0  0  0
 13 14  1  0  0  0
 13 30  1  0  0  0
 14 15  1  0  0  0
 14 31  1  0  0  0
 15 16  1  0  0  0
 15 32  1  0  0  0
 15 33  1  0  0  0
 16 17  2  0  0  0
 16 21  1  0  0  0
 17 18  1  0  0  0
 17 34  1  0  0  0
 18 19  2  0  0  0
 18 22  1  0  0  0
 19 20  1  0  0  0
 19 23  1  0  0  0
 20 21  2  0  0  0
 20 35  1  0  0  0
 21 36  1  0  0  0
 22 37  1  0  0  0
 23 24  1  0  0  0
 24 38  1  0  0  0
 24 39  1  0  0  0
 24 40  1  0  0  0
M  END
> <s_m_entry_id>
33144

> <s_m_entry_name>
dock_pv.545

> <s_m_Source_Path>
/home/csk/Desktop/cluster/DUD-E-result/cdk2

> <s_m_Source_File>
dock_pv.maegz

> <i_m_Source_File_Index>
545

> <chembl_id>
CHEMBL489430

> <chembl_pref_name>
None

> <i_lp_mmshare_version>
53161

> <i_f3d_flags>
0

> <r_lp_tautomer_probability>
0.49999999999931

> <s_lp_Force_Field>
OPLS_2005

> <r_lp_Energy>
29.47751

> <b_lp_Chiralities_Consistent>
1

> <s_lp_Variant>
CHEMBL301_lig612-1

> <s_i_glide_gridfile>
glide-grid_1h00

> <i_i_glide_lignum>
853

> <i_i_glide_rotatable_bonds>
5

> <r_i_docking_score>
-6.9263906151429

> <r_i_glide_ligand_efficiency>
-0.288599608964288

> <r_i_glide_ligand_efficiency_sa>
-0.832465323157386

> <r_i_glide_ligand_efficiency_ln>
-1.65780310555886

> <r_i_glide_gscore>
-6.9263906151429

> <r_i_glide_lipo>
-2.28181660640638

> <r_i_glide_hbond>
-0.122193249000997

> <r_i_glide_metal>
0

> <r_i_glide_rewards>
-2.19435900724062

> <r_i_glide_evdw>
-41.2347145080566

> <r_i_glide_ecoul>
-5.33568048477173

> <r_i_glide_erotb>
0.534066045623691

> <r_i_glide_esite>
0

> <r_i_glide_emodel>
-63.6434706888188

> <r_i_glide_energy>
-46.5703949928284

> <r_i_glide_einternal>
5.91225290298462

> <i_i_glide_confnum>
19

> <i_i_glide_posenum>
328

> <r_i_glide_eff_state_penalty>
0

> <s_user_duplicate_titles>
CHEMBL301_lig612

> <s_m_subgroup_title>
dock_pv

> <s_m_subgroupid>
dock_pv

> <b_m_subgroup_collapsed>
1

$$$$
CHEMBL301_lig1352
                    3D
 Schrodinger Suite 2021-1.
 42 43  0  0  1  0            999 V2000
   -1.3838   27.0097   12.8662 C   0  0  0  0  0  0
   -1.3282   26.6812   11.3623 C   0  0  0  0  0  0
   -0.4761   27.6539   10.5136 C   0  0  2  0  0  0
    1.0106   27.5781   10.9031 C   0  0  0  0  0  0
   -1.1546   29.3479   10.4958 S   0  0  0  0  0  0
   -0.3443   30.3742    9.2929 C   0  0  0  0  0  0
    0.6900   29.8523    8.5762 N   0  0  0  0  0  0
    1.2960   30.6772    7.6779 C   0  0  0  0  0  0
    2.3772   30.2286    6.9141 N   0  0  0  0  0  0
    3.2662   29.1571    7.0588 C   0  0  0  0  0  0
    3.8831   28.6518    5.9132 C   0  0  0  0  0  0
    4.8365   27.6408    6.0065 C   0  0  0  0  0  0
    5.1924   27.1497    7.2620 C   0  0  0  0  0  0
    4.5919   27.6715    8.4058 C   0  0  0  0  0  0
    3.6343   28.6712    8.3089 C   0  0  0  0  0  0
    6.4072   25.8461    7.4490 S   0  0  2  0  0  0
    5.5380   24.5935    7.3737 N   0  0  0  0  0  0
    7.2862   26.1732    8.5759 O   0  0  0  0  0  0
    7.4064   25.7153    5.8613 C   0  0  0  0  0  0
    0.9425   31.9630    7.4318 N   0  0  0  0  0  0
   -0.0739   32.4663    8.1760 C   0  0  0  0  0  0
   -0.7655   31.7030    9.1157 C   0  0  0  0  0  0
   -2.1937   32.4964   10.1037 Br  0  0  0  0  0  0
   -2.0013   26.2857   13.3981 H   0  0  0  0  0  0
   -1.8148   27.9956   13.0449 H   0  0  0  0  0  0
   -0.3917   26.9933   13.3187 H   0  0  0  0  0  0
   -0.9540   25.6644   11.2335 H   0  0  0  0  0  0
   -2.3473   26.6627   10.9758 H   0  0  0  0  0  0
   -0.5493   27.3142    9.4794 H   0  0  0  0  0  0
    1.3252   26.5576   11.1236 H   0  0  0  0  0  0
    1.6437   27.9270   10.0955 H   0  0  0  0  0  0
    1.2281   28.1910   11.7772 H   0  0  0  0  0  0
    2.7282   30.9278    6.2749 H   0  0  0  0  0  0
    3.6398   29.0521    4.9459 H   0  0  0  0  0  0
    5.2987   27.2631    5.1071 H   0  0  0  0  0  0
    4.8720   27.3112    9.3760 H   0  0  0  0  0  0
    3.2130   29.0907    9.2072 H   0  0  0  0  0  0
    6.0848   23.7583    7.2396 H   0  0  0  0  0  0
    6.7422   25.5003    5.0260 H   0  0  0  0  0  0
    7.9332   26.6519    5.6968 H   0  0  0  0  0  0
    8.1310   24.9111    5.9741 H   0  0  0  0  0  0
   -0.3424   33.4966    7.9915 H   0  0  0  0  0  0
  1  2  1  0  0  0
  1 24  1  0  0  0
  1 25  1  0  0  0
  1 26  1  0  0  0
  2  3  1  0  0  0
  2 27  1  0  0  0
  2 28  1  0  0  0
  3  4  1  0  0  0
  3  5  1  0  0  0
  3 29  1  0  0  0
  4 30  1  0  0  0
  4 31  1  0  0  0
  4 32  1  0  0  0
  5  6  1  0  0  0
  6  7  2  0  0  0
  6 22  1  0  0  0
  7  8  1  0  0  0
  8  9  1  0  0  0
  8 20  2  0  0  0
  9 10  1  0  0  0
  9 33  1  0  0  0
 10 11  2  0  0  0
 10 15  1  0  0  0
 11 12  1  0  0  0
 11 34  1  0  0  0
 12 13  2  0  0  0
 12 35  1  0  0  0
 13 14  1  0  0  0
 13 16  1  0  0  0
 14 15  2  0  0  0
 14 36  1  0  0  0
 15 37  1  0  0  0
 16 17  2  0  0  0
 16 18  2  0  0  0
 16 19  1  0  0  0
 17 38  1  0  0  0
 19 39  1  0  0  0
 19 40  1  0  0  0
 19 41  1  0  0  0
 20 21  1  0  0  0
 21 22  2  0  0  0
 21 42  1  0  0  0
 22 23  1  0  0  0
M  END
> <s_m_entry_id>
33145

> <s_m_entry_name>
dock_pv.546

> <s_m_Source_Path>
/home/csk/Desktop/cluster/DUD-E-result/cdk2

> <s_m_Source_File>
dock_pv.maegz

> <i_m_Source_File_Index>
546

> <chembl_id>
CHEMBL3648100

> <chembl_pref_name>
None

> <i_lp_mmshare_version>
53161

> <i_f3d_flags>
0

> <r_lp_tautomer_probability>
0.999999987636

> <s_lp_Force_Field>
OPLS_2005

> <r_lp_Energy>
1.95212

> <b_lp_Chiralities_Consistent>
1

> <s_lp_Variant>
CHEMBL301_lig1352-1

> <s_i_glide_gridfile>
glide-grid_1h00

> <i_i_glide_lignum>
1797

> <i_i_glide_rotatable_bonds>
6

> <r_i_docking_score>
-6.9238045156985

> <r_i_glide_ligand_efficiency>
-0.301034978943413

> <r_i_glide_ligand_efficiency_sa>
-0.856103435502714

> <r_i_glide_ligand_efficiency_ln>
-1.67423871348418

> <r_i_glide_gscore>
-6.9238045156985

> <r_i_glide_lipo>
-2.63147443364158

> <r_i_glide_hbond>
-0.280472244214066

> <r_i_glide_metal>
0

> <r_i_glide_rewards>
-1.6013558291082

> <r_i_glide_evdw>
-39.9024810791016

> <r_i_glide_ecoul>
-5.82111120223999

> <r_i_glide_erotb>
0.457788725556423

> <r_i_glide_esite>
0

> <r_i_glide_emodel>
-63.4661678840456

> <r_i_glide_energy>
-45.7235922813416

> <r_i_glide_einternal>
2.93389439582825

> <i_i_glide_confnum>
16

> <i_i_glide_posenum>
359

> <r_i_glide_eff_state_penalty>
0

> <s_user_duplicate_titles>
CHEMBL301_lig1352

> <s_m_subgroup_title>
dock_pv

> <s_m_subgroupid>
dock_pv

> <b_m_subgroup_collapsed>
1

$$$$
CHEMBL301_lig1374
                    3D
 Schrodinger Suite 2021-1.
 48 50  0  0  1  0            999 V2000
   -2.5217   32.4783   10.8497 C   0  0  0  0  0  0
   -2.5833   31.8477    9.4506 C   0  0  0  0  0  0
   -3.7785   30.8913    9.2817 C   0  0  0  0  0  0
   -1.3138   31.1767    9.1481 N   0  0  0  0  0  0
   -0.3420   31.6545    8.2942 C   0  0  0  0  0  0
    0.7061   30.8850    8.1728 N   0  0  0  0  0  0
    0.4754   29.8520    9.0436 C   0  0  0  0  0  0
    1.2322   28.7266    9.4373 C   0  0  0  0  0  0
    2.5137   28.3912    8.9761 N   0  0  0  0  0  0
    3.2984   29.1757    8.0269 C   0  0  0  0  0  0
    4.1723   28.2520    7.1960 C   0  0  0  0  0  0
    5.0984   27.3813    7.7844 C   0  0  0  0  0  0
    5.8495   26.5267    6.9758 C   0  0  0  0  0  0
    5.6580   26.5787    5.5931 C   0  0  0  0  0  0
    4.7830   27.4297    4.9992 N   0  0  0  0  0  0
    4.0618   28.2520    5.8015 C   0  0  0  0  0  0
    0.7166   27.8503   10.3346 N   0  0  0  0  0  0
   -0.5188   28.0883   10.8359 C   0  0  0  0  0  0
   -0.9807   27.1007   11.7124 N   0  0  0  0  0  0
   -2.1995   27.2770   12.5016 C   0  0  0  0  0  0
   -2.5989   26.0337   13.3321 C   0  0  2  0  0  0
   -3.8931   26.2520   13.8784 O   0  0  0  0  0  0
   -1.6118   25.6755   14.4697 C   0  0  0  0  0  0
   -1.5417   26.6520   15.3760 F   0  0  0  0  0  0
   -1.9969   24.5699   15.1104 F   0  0  0  0  0  0
   -0.3757   25.4558   14.0209 F   0  0  0  0  0  0
   -1.3192   29.1515   10.5509 N   0  0  0  0  0  0
   -0.7907   29.9997    9.6633 C   0  0  0  0  0  0
   -3.4579   32.9798   11.0983 H   0  0  0  0  0  0
   -1.7260   33.2212   10.9171 H   0  0  0  0  0  0
   -2.3420   31.7209   11.6123 H   0  0  0  0  0  0
   -2.7068   32.6520    8.7246 H   0  0  0  0  0  0
   -4.7166   31.4037    9.4913 H   0  0  0  0  0  0
   -3.8359   30.5155    8.2614 H   0  0  0  0  0  0
   -3.7291   30.0387    9.9587 H   0  0  0  0  0  0
   -0.4910   32.5915    7.7760 H   0  0  0  0  0  0
    2.9405   27.5689    9.3771 H   0  0  0  0  0  0
    2.6810   29.7675    7.3554 H   0  0  0  0  0  0
    3.9392   29.8657    8.5760 H   0  0  0  0  0  0
    5.2269   27.3565    8.8579 H   0  0  0  0  0  0
    6.5636   25.8438    7.4113 H   0  0  0  0  0  0
    6.2255   25.9399    4.9323 H   0  0  0  0  0  0
    3.3720   28.9164    5.3036 H   0  0  0  0  0  0
   -0.2857   26.4382   12.0237 H   0  0  0  0  0  0
   -2.0436   28.1398   13.1514 H   0  0  0  0  0  0
   -3.0107   27.5613   11.8283 H   0  0  0  0  0  0
   -2.6877   25.1794   12.6596 H   0  0  0  0  0  0
   -3.9420   27.1797   14.1760 H   0  0  0  0  0  0
  1  2  1  0  0  0
  1 29  1  0  0  0
  1 30  1  0  0  0
  1 31  1  0  0  0
  2  3  1  0  0  0
  2  4  1  0  0  0
  2 32  1  0  0  0
  3 33  1  0  0  0
  3 34  1  0  0  0
  3 35  1  0  0  0
  4  5  1  0  0  0
  4 28  1  0  0  0
  5  6  2  0  0  0
  5 36  1  0  0  0
  6  7  1  0  0  0
  7  8  2  0  0  0
  7 28  1  0  0  0
  8  9  1  0  0  0
  8 17  1  0  0  0
  9 10  1  0  0  0
  9 37  1  0  0  0
 10 11  1  0  0  0
 10 38  1  0  0  0
 10 39  1  0  0  0
 11 12  2  0  0  0
 11 16  1  0  0  0
 12 13  1  0  0  0
 12 40  1  0  0  0
 13 14  2  0  0  0
 13 41  1  0  0  0
 14 15  1  0  0  0
 14 42  1  0  0  0
 15 16  2  0  0  0
 16 43  1  0  0  0
 17 18  2  0  0  0
 18 19  1  0  0  0
 18 27  1  0  0  0
 19 20  1  0  0  0
 19 44  1  0  0  0
 20 21  1  0  0  0
 20 45  1  0  0  0
 20 46  1  0  0  0
 21 22  1  0  0  0
 21 23  1  0  0  0
 21 47  1  0  0  0
 22 48  1  0  0  0
 23 24  1  0  0  0
 23 25  1  0  0  0
 23 26  1  0  0  0
 27 28  2  0  0  0
M  END
> <s_m_entry_id>
33146

> <s_m_entry_name>
dock_pv.547

> <s_m_Source_Path>
/home/csk/Desktop/cluster/DUD-E-result/cdk2

> <s_m_Source_File>
dock_pv.maegz

> <i_m_Source_File_Index>
547

> <chembl_id>
CHEMBL3655776

> <chembl_pref_name>
None

> <i_lp_mmshare_version>
53161

> <i_f3d_flags>
0

> <r_lp_tautomer_probability>
1

> <s_lp_Force_Field>
OPLS_2005

> <r_lp_Energy>
26.005231

> <b_lp_Chiralities_Consistent>
1

> <s_lp_Variant>
CHEMBL301_lig1374-1

> <s_i_glide_gridfile>
glide-grid_1h00

> <i_i_glide_lignum>
1839

> <i_i_glide_rotatable_bonds>
9

> <r_i_docking_score>
-6.91739473037164

> <r_i_glide_ligand_efficiency>
-0.247049811798987

> <r_i_glide_ligand_efficiency_sa>
-0.750188733179502

> <r_i_glide_ligand_efficiency_ln>
-1.59673780730446

> <r_i_glide_gscore>
-6.91739473037164

> <r_i_glide_lipo>
-2.28481859655592

> <r_i_glide_hbond>
-0.16

> <r_i_glide_metal>
0

> <r_i_glide_rewards>
-2.1689455375136

> <r_i_glide_evdw>
-42.1956214904785

> <r_i_glide_ecoul>
-5.66865539550781

> <r_i_glide_erotb>
0.750515741805582

> <r_i_glide_esite>
-0.0940669542576067

> <r_i_glide_emodel>
-64.7759471184838

> <r_i_glide_energy>
-47.8642768859863

> <r_i_glide_einternal>
8.71836376190186

> <i_i_glide_confnum>
66

> <i_i_glide_posenum>
120

> <r_i_glide_eff_state_penalty>
0

> <s_user_duplicate_titles>
CHEMBL301_lig1374

> <s_m_subgroup_title>
dock_pv

> <s_m_subgroupid>
dock_pv

> <b_m_subgroup_collapsed>
1

$$$$
CHEMBL301_lig689
                    3D
 Schrodinger Suite 2021-1.
 33 35  0  0  1  0            999 V2000
    0.6073   29.8522    8.5793 C   0  0  0  0  0  0
   -0.3710   30.8225    8.7260 C   0  0  0  0  0  0
    0.1202   31.8722    7.9929 N   0  0  0  0  0  0
    1.2782   31.6157    7.3752 N   0  0  0  0  0  0
    1.6200   30.4143    7.7762 C   0  0  0  0  0  0
    2.8437   29.8855    7.3966 N   0  0  0  0  0  0
    3.4936   28.8709    8.0004 C   0  0  0  0  0  0
    4.8647   28.5227    7.4127 C   0  0  0  0  0  0
    3.0681   28.2336    8.9647 O   0  0  0  0  0  0
   -1.6874   30.8610    9.4772 C   0  0  0  0  0  0
   -2.1493   32.1125   10.1901 C   0  0  0  0  0  0
   -2.8622   31.6411    8.9376 C   0  0  0  0  0  0
    4.7520   27.4668    6.3185 C   0  0  0  0  0  0
    4.6042   27.8563    4.9834 C   0  0  0  0  0  0
    4.4579   26.8935    3.9868 C   0  0  0  0  0  0
    4.4444   25.5430    4.3319 C   0  0  0  0  0  0
    4.5808   25.1468    5.6606 C   0  0  0  0  0  0
    4.7410   26.1093    6.6565 C   0  0  0  0  0  0
    0.6059   28.8702    9.0265 H   0  0  0  0  0  0
   -0.3527   32.7579    7.8793 H   0  0  0  0  0  0
    3.3697   30.4246    6.7190 H   0  0  0  0  0  0
    5.5159   28.1681    8.2155 H   0  0  0  0  0  0
    5.3242   29.4271    7.0111 H   0  0  0  0  0  0
   -1.9265   29.9239    9.9788 H   0  0  0  0  0  0
   -2.6605   32.0110   11.1487 H   0  0  0  0  0  0
   -1.5301   33.0089   10.1444 H   0  0  0  0  0  0
   -2.7547   32.2407    8.0336 H   0  0  0  0  0  0
   -3.8572   31.2025    9.0274 H   0  0  0  0  0  0
    4.6067   28.9047    4.7185 H   0  0  0  0  0  0
    4.3475   27.1862    2.9530 H   0  0  0  0  0  0
    4.3232   24.7982    3.5547 H   0  0  0  0  0  0
    4.5612   24.0979    5.9197 H   0  0  0  0  0  0
    4.8363   25.8056    7.6902 H   0  0  0  0  0  0
  1  5  1  0  0  0
  1  2  2  0  0  0
  1 19  1  0  0  0
  2 10  1  0  0  0
  2  3  1  0  0  0
  3  4  1  0  0  0
  3 20  1  0  0  0
  4  5  2  0  0  0
  5  6  1  0  0  0
  6  7  1  0  0  0
  6 21  1  0  0  0
  7  9  2  0  0  0
  7  8  1  0  0  0
  8 13  1  0  0  0
  8 22  1  0  0  0
  8 23  1  0  0  0
 10 11  1  0  0  0
 10 12  1  0  0  0
 10 24  1  0  0  0
 11 12  1  0  0  0
 11 25  1  0  0  0
 11 26  1  0  0  0
 12 27  1  0  0  0
 12 28  1  0  0  0
 13 14  2  0  0  0
 13 18  1  0  0  0
 14 15  1  0  0  0
 14 29  1  0  0  0
 15 16  2  0  0  0
 15 30  1  0  0  0
 16 17  1  0  0  0
 16 31  1  0  0  0
 17 18  2  0  0  0
 17 32  1  0  0  0
 18 33  1  0  0  0
M  END
> <s_m_entry_id>
33147

> <s_m_entry_name>
dock_pv.548

> <s_m_Source_Path>
/home/csk/Desktop/cluster/DUD-E-result/cdk2

> <s_m_Source_File>
dock_pv.maegz

> <i_m_Source_File_Index>
548

> <chembl_id>
CHEMBL114851

> <chembl_pref_name>
None

> <i_lp_mmshare_version>
53161

> <i_f3d_flags>
0

> <r_lp_tautomer_probability>
0.5

> <s_lp_Force_Field>
OPLS_2005

> <r_lp_Energy>
13.501608

> <b_lp_Chiralities_Consistent>
1

> <s_lp_Variant>
CHEMBL301_lig689-1

> <s_i_glide_gridfile>
glide-grid_1h00

> <i_i_glide_lignum>
962

> <i_i_glide_rotatable_bonds>
5

> <r_i_docking_score>
-6.91339284003397

> <r_i_glide_ligand_efficiency>
-0.384077380001887

> <r_i_glide_ligand_efficiency_sa>
-1.00656748738046

> <r_i_glide_ligand_efficiency_ln>
-1.77705198121544

> <r_i_glide_gscore>
-6.91339284003397

> <r_i_glide_lipo>
-2.53836790944143

> <r_i_glide_hbond>
-0.32

> <r_i_glide_metal>
0

> <r_i_glide_rewards>
-3.08003014249606

> <r_i_glide_evdw>
-31.5614261627197

> <r_i_glide_ecoul>
-3.91320943832397

> <r_i_glide_erotb>
1.19005793578811

> <r_i_glide_esite>
0

> <r_i_glide_emodel>
-47.5780155644513

> <r_i_glide_energy>
-35.4746356010437

> <r_i_glide_einternal>
4.50992393493652

> <i_i_glide_confnum>
2

> <i_i_glide_posenum>
268

> <r_i_glide_eff_state_penalty>
0

> <s_user_duplicate_titles>
CHEMBL301_lig689,186712

> <s_m_subgroup_title>
dock_pv

> <s_m_subgroupid>
dock_pv

> <b_m_subgroup_collapsed>
1

$$$$
CHEMBL301_lig198
                    3D
 Schrodinger Suite 2021-1.
 34 36  0  0  1  0            999 V2000
   -1.6576   29.5853   10.4584 C   0  0  0  0  0  0
   -2.3420   30.7741   10.1763 C   0  0  0  0  0  0
   -1.7956   31.7067    9.2881 C   0  0  0  0  0  0
   -0.4309   29.3215    9.8522 C   0  0  0  0  0  0
    0.1011   30.2430    8.9525 C   0  0  0  0  0  0
   -0.5716   31.4166    8.6835 C   0  0  0  0  0  0
    0.1694   32.1487    7.7843 N   0  0  0  0  0  0
    1.2580   31.4819    7.3760 C   0  0  0  0  0  0
    1.3168   30.2520    8.1760 C   0  0  0  0  0  0
    2.0580   31.8520    6.5226 O   0  0  0  0  0  0
    2.2442   29.3733    8.2012 N   0  0  0  0  0  0
    3.3332   29.4520    7.3300 N   0  0  0  0  0  0
    4.1750   28.3795    7.0477 C   0  0  0  0  0  0
    4.7598   27.6429    8.0774 C   0  0  0  0  0  0
    5.6862   26.6520    7.7760 C   0  0  0  0  0  0
    6.0110   26.3855    6.4484 C   0  0  0  0  0  0
    5.3551   27.0520    5.4123 C   0  0  0  0  0  0
    4.4580   28.0718    5.7167 C   0  0  0  0  0  0
    7.3487   25.2586    6.1013 S   0  0  0  0  0  0
    8.0996   25.8520    4.6447 N   0  0  0  0  0  0
    8.3256   25.4124    7.1844 O   0  0  0  0  0  0
    6.7403   23.9615    5.7943 O   0  0  0  0  0  0
   -2.4425   28.1676   11.7760 I   0  0  0  0  0  0
   -3.2890   30.9762   10.6559 H   0  0  0  0  0  0
   -2.3244   32.6262    9.0819 H   0  0  0  0  0  0
    0.0901   28.4020   10.0781 H   0  0  0  0  0  0
   -0.0755   33.0656    7.4364 H   0  0  0  0  0  0
    3.2547   30.2055    6.6507 H   0  0  0  0  0  0
    4.5364   27.8691    9.1102 H   0  0  0  0  0  0
    6.1804   26.1218    8.5760 H   0  0  0  0  0  0
    5.5996   26.8430    4.3807 H   0  0  0  0  0  0
    4.0017   28.6367    4.9176 H   0  0  0  0  0  0
    8.9341   26.4231    4.7991 H   0  0  0  0  0  0
    8.1751   25.1729    3.8845 H   0  0  0  0  0  0
  1  2  2  0  0  0
  1  4  1  0  0  0
  1 23  1  0  0  0
  2  3  1  0  0  0
  2 24  1  0  0  0
  3  6  2  0  0  0
  3 25  1  0  0  0
  4  5  2  0  0  0
  4 26  1  0  0  0
  5  9  1  0  0  0
  5  6  1  0  0  0
  6  7  1  0  0  0
  7  8  1  0  0  0
  7 27  1  0  0  0
  8  9  1  0  0  0
  8 10  2  0  0  0
  9 11  2  0  0  0
 11 12  1  0  0  0
 12 13  1  0  0  0
 12 28  1  0  0  0
 13 14  2  0  0  0
 13 18  1  0  0  0
 14 15  1  0  0  0
 14 29  1  0  0  0
 15 16  2  0  0  0
 15 30  1  0  0  0
 16 17  1  0  0  0
 16 19  1  0  0  0
 17 18  2  0  0  0
 17 31  1  0  0  0
 18 32  1  0  0  0
 19 20  1  0  0  0
 19 21  2  0  0  0
 19 22  2  0  0  0
 20 33  1  0  0  0
 20 34  1  0  0  0
M  END
> <s_m_entry_id>
33148

> <s_m_entry_name>
dock_pv.549

> <s_m_Source_Path>
/home/csk/Desktop/cluster/DUD-E-result/cdk2

> <s_m_Source_File>
dock_pv.maegz

> <i_m_Source_File_Index>
549

> <chembl_id>
CHEMBL273060

> <chembl_pref_name>
None

> <i_lp_mmshare_version>
53161

> <i_f3d_flags>
0

> <r_lp_tautomer_probability>
1

> <s_lp_Force_Field>
OPLS_2005

> <r_lp_Energy>
43.447618

> <b_lp_Chiralities_Consistent>
1

> <s_lp_Variant>
CHEMBL301_lig198-1

> <s_i_glide_gridfile>
glide-grid_1h00

> <i_i_glide_lignum>
340

> <i_i_glide_rotatable_bonds>
3

> <r_i_docking_score>
-6.91193643777018

> <r_i_glide_ligand_efficiency>
-0.300518975555225

> <r_i_glide_ligand_efficiency_sa>
-0.85463599050709

> <r_i_glide_ligand_efficiency_ln>
-1.67136890462734

> <r_i_glide_gscore>
-6.91193643777018

> <r_i_glide_lipo>
-2.07333502892853

> <r_i_glide_hbond>
-0.479380756163155

> <r_i_glide_metal>
0

> <r_i_glide_rewards>
-1.74795811639704

> <r_i_glide_evdw>
-36.3221778869629

> <r_i_glide_ecoul>
-6.46987009048462

> <r_i_glide_erotb>
0.204342961558096

> <r_i_glide_esite>
-0.0290160899187181

> <r_i_glide_emodel>
-57.4946592414539

> <r_i_glide_energy>
-42.7920479774475

> <r_i_glide_einternal>
5.2322826385498

> <i_i_glide_confnum>
1

> <i_i_glide_posenum>
27

> <r_i_glide_eff_state_penalty>
0

> <s_user_duplicate_titles>
CHEMBL301_lig198

> <s_m_subgroup_title>
dock_pv

> <s_m_subgroupid>
dock_pv

> <b_m_subgroup_collapsed>
1

$$$$
CHEMBL301_lig924
                    3D
 Schrodinger Suite 2021-1.
 46 49  0  0  1  0            999 V2000
   -0.1361   29.9401    9.1300 C   0  0  0  0  0  0
   -0.4818   29.0153   10.1096 C   0  0  0  0  0  0
    0.3992   28.0125   10.5280 C   0  0  0  0  0  0
    1.6799   27.9225    9.9682 C   0  0  0  0  0  0
    1.6329   30.6398    7.5566 N   0  0  0  0  0  0
    1.1348   29.8521    8.5533 C   0  0  0  0  0  0
    2.0574   28.8433    8.9761 C   0  0  0  0  0  0
    3.2086   29.0713    8.1745 C   0  0  0  0  0  0
    2.8580   30.1315    7.3769 N   0  0  0  0  0  0
    4.5489   28.3829    8.0655 C   0  0  0  0  0  0
   -0.0561   27.0118   11.5400 C   0  0  0  0  0  0
   -1.1549   27.4420   12.8236 S   0  0  0  0  0  0
   -1.1709   25.7547   13.2654 C   0  0  0  0  0  0
   -0.3719   25.0126   12.5385 N   0  0  0  0  0  0
    0.2823   25.7403   11.5479 N   0  0  0  0  0  0
   -1.9795   25.2540   14.2530 N   0  0  0  0  0  0
   -2.8136   25.9964   15.1992 C   0  0  0  0  0  0
   -4.2631   25.4833   15.3470 C   0  0  2  0  0  0
   -4.3459   23.9624   15.6362 C   0  0  0  0  0  0
   -5.5302   23.5207   16.5008 C   0  0  0  0  0  0
   -6.3429   22.4274   16.1468 C   0  0  0  0  0  0
   -7.4027   22.0486   16.9747 C   0  0  0  0  0  0
   -7.6551   22.7349   18.1600 C   0  0  0  0  0  0
   -6.8340   23.7951   18.5340 C   0  0  0  0  0  0
   -5.7765   24.1800   17.7148 C   0  0  0  0  0  0
   -5.0444   25.8508   14.1768 N   0  0  0  0  0  0
   -6.0936   21.5230   14.6923 Cl  0  0  0  0  0  0
   -0.8393   30.6992    8.8153 H   0  0  0  0  0  0
   -1.4728   29.0772   10.5335 H   0  0  0  0  0  0
    2.3677   27.1516   10.2888 H   0  0  0  0  0  0
    3.5001   30.5475    6.7084 H   0  0  0  0  0  0
    4.4391   27.3659    7.6842 H   0  0  0  0  0  0
    5.2327   28.9066    7.3952 H   0  0  0  0  0  0
    5.0445   28.3042    9.0322 H   0  0  0  0  0  0
   -1.9842   24.2552   14.4087 H   0  0  0  0  0  0
   -2.8311   27.0535   14.9470 H   0  0  0  0  0  0
   -2.3414   25.9504   16.1758 H   0  0  0  0  0  0
   -4.6889   26.0445   16.1781 H   0  0  0  0  0  0
   -3.4590   23.6413   16.1786 H   0  0  0  0  0  0
   -4.2947   23.4155   14.6955 H   0  0  0  0  0  0
   -8.0278   21.2104   16.7027 H   0  0  0  0  0  0
   -8.4689   22.4302   18.8018 H   0  0  0  0  0  0
   -7.0079   24.3140   19.4664 H   0  0  0  0  0  0
   -5.1497   24.9977   18.0400 H   0  0  0  0  0  0
   -4.7963   26.8098   13.9581 H   0  0  0  0  0  0
   -4.7245   25.3140   13.3788 H   0  0  0  0  0  0
  1  6  1  0  0  0
  1 28  1  0  0  0
  1  2  2  0  0  0
  2 29  1  0  0  0
  2  3  1  0  0  0
  3 11  1  0  0  0
  3  4  2  0  0  0
  4 30  1  0  0  0
  4  7  1  0  0  0
  5  9  1  0  0  0
  5  6  2  0  0  0
  6  7  1  0  0  0
  7  8  2  0  0  0
  8  9  1  0  0  0
  8 10  1  0  0  0
  9 31  1  0  0  0
 10 32  1  0  0  0
 10 33  1  0  0  0
 10 34  1  0  0  0
 11 12  1  0  0  0
 11 15  2  0  0  0
 12 13  1  0  0  0
 13 14  2  0  0  0
 13 16  1  0  0  0
 14 15  1  0  0  0
 16 17  1  0  0  0
 16 35  1  0  0  0
 17 18  1  0  0  0
 17 36  1  0  0  0
 17 37  1  0  0  0
 18 19  1  0  0  0
 18 26  1  0  0  0
 18 38  1  0  0  0
 19 20  1  0  0  0
 19 39  1  0  0  0
 19 40  1  0  0  0
 20 21  2  0  0  0
 20 25  1  0  0  0
 21 22  1  0  0  0
 21 27  1  0  0  0
 22 23  2  0  0  0
 22 41  1  0  0  0
 23 24  1  0  0  0
 23 42  1  0  0  0
 24 25  2  0  0  0
 24 43  1  0  0  0
 25 44  1  0  0  0
 26 45  1  0  0  0
 26 46  1  0  0  0
M  END
> <s_m_entry_id>
33149

> <s_m_entry_name>
dock_pv.550

> <s_m_Source_Path>
/home/csk/Desktop/cluster/DUD-E-result/cdk2

> <s_m_Source_File>
dock_pv.maegz

> <i_m_Source_File_Index>
550

> <chembl_id>
CHEMBL1080891

> <chembl_pref_name>
None

> <i_lp_mmshare_version>
53161

> <i_f3d_flags>
0

> <r_lp_tautomer_probability>
0.0196078431372549

> <s_lp_Force_Field>
OPLS_2005

> <r_lp_Energy>
34.730838

> <b_lp_Chiralities_Consistent>
1

> <s_lp_Variant>
CHEMBL301_lig924-2

> <s_i_glide_gridfile>
glide-grid_1h00

> <i_i_glide_lignum>
1304

> <i_i_glide_rotatable_bonds>
6

> <r_i_docking_score>
-6.90941960679045

> <r_i_glide_ligand_efficiency>
-0.255904429881128

> <r_i_glide_ligand_efficiency_sa>
-0.767713288799965

> <r_i_glide_ligand_efficiency_ln>
-1.608398973776

> <r_i_glide_gscore>
-6.90941960679045

> <r_i_glide_lipo>
-2.08945152610138

> <r_i_glide_hbond>
-0.465959618119855

> <r_i_glide_metal>
0

> <r_i_glide_rewards>
-1.56422913636363

> <r_i_glide_evdw>
-39.4883651733398

> <r_i_glide_ecoul>
-9.3521203994751

> <r_i_glide_erotb>
0.615506950141505

> <r_i_glide_esite>
-0.0280499577588343

> <r_i_glide_emodel>
-66.0674644186414

> <r_i_glide_energy>
-48.8404855728149

> <r_i_glide_einternal>
6.48543834686279

> <i_i_glide_confnum>
14

> <i_i_glide_posenum>
51

> <r_i_glide_eff_state_penalty>
0

> <s_user_duplicate_titles>
CHEMBL301_lig924,612802

> <s_m_subgroup_title>
dock_pv

> <s_m_subgroupid>
dock_pv

> <b_m_subgroup_collapsed>
1

$$$$
CHEMBL301_lig268
                    3D
 Schrodinger Suite 2021-1.
 49 52  0  0  1  0            999 V2000
    0.3238   30.2569    8.7759 C   0  0  0  0  0  0
    0.4778   29.0651    9.5099 C   0  0  0  0  0  0
   -0.5065   28.6271   10.4171 C   0  0  0  0  0  0
    1.3686   30.6521    7.7761 C   0  0  0  0  0  0
    2.6500   28.7646    8.6238 C   0  0  0  0  0  0
    2.5689   29.8525    7.8461 C   0  0  0  0  0  0
    1.6224   28.2915    9.3770 O   0  0  0  0  0  0
   -0.7857   31.0693    9.0552 C   0  0  0  0  0  0
   -1.6539   29.4220   10.5750 C   0  0  0  0  0  0
   -0.3137   27.3253   11.2327 C   0  0  2  0  0  0
   -1.7692   30.6400    9.9283 C   0  0  0  0  0  0
   -1.2897   26.1816   10.8526 C   0  0  2  0  0  0
   -1.1243   25.2363   13.1793 N   0  0  2  0  0  0
    4.1083   27.8086    8.9759 S   0  0  0  0  0  0
   -0.3496   27.5694   12.7603 C   0  0  0  0  0  0
   -1.0926   24.9316   11.7412 C   0  0  0  0  0  0
    1.2581   31.6323    7.0398 O   0  0  0  0  0  0
   -0.1442   26.2632   13.5498 C   0  0  0  0  0  0
   -0.9287   32.3278    8.5396 O   0  0  0  0  0  0
   -2.6935   29.0513   11.3759 O   0  0  0  0  0  0
   -1.1421   25.8183    9.4947 O   0  0  0  0  0  0
    4.4580   27.0156    7.4328 C   0  0  0  0  0  0
   -0.9195   24.0217   13.9623 C   0  0  0  0  0  0
    4.4581   25.6211    7.3853 C   0  0  0  0  0  0
    4.7106   27.7614    6.2789 C   0  0  0  0  0  0
    4.9180   27.1084    5.0667 C   0  0  0  0  0  0
    4.6646   24.9694    6.1721 C   0  0  0  0  0  0
    4.8869   25.7163    5.0165 C   0  0  0  0  0  0
    3.4467   30.2029    7.3324 H   0  0  0  0  0  0
    0.6955   26.9572   11.0405 H   0  0  0  0  0  0
   -2.6306   31.2681   10.1047 H   0  0  0  0  0  0
   -2.3143   26.5326   10.9770 H   0  0  0  0  0  0
   -1.2734   28.0293   13.1086 H   0  0  0  0  0  0
    0.4576   28.2475   13.0353 H   0  0  0  0  0  0
   -0.1416   24.4501   11.5039 H   0  0  0  0  0  0
   -1.8734   24.2052   11.5140 H   0  0  0  0  0  0
    0.8580   25.8765   13.3759 H   0  0  0  0  0  0
   -0.2216   26.4686   14.6185 H   0  0  0  0  0  0
   -0.2109   32.5357    7.9302 H   0  0  0  0  0  0
   -3.1760   29.8000   11.7532 H   0  0  0  0  0  0
   -0.2558   26.0626    9.2174 H   0  0  0  0  0  0
    0.0604   23.5805   13.7713 H   0  0  0  0  0  0
   -0.9944   24.2334   15.0295 H   0  0  0  0  0  0
   -1.6806   23.2771   13.7236 H   0  0  0  0  0  0
    4.2714   25.0476    8.2815 H   0  0  0  0  0  0
    4.7543   28.8389    6.3065 H   0  0  0  0  0  0
    5.1107   27.6807    4.1707 H   0  0  0  0  0  0
    4.6441   23.8907    6.1257 H   0  0  0  0  0  0
    5.0439   25.2122    4.0731 H   0  0  0  0  0  0
  1  2  2  0  0  0
  1  4  1  0  0  0
  1  8  1  0  0  0
  2  3  1  0  0  0
  2  7  1  0  0  0
  3 10  1  0  0  0
  3  9  2  0  0  0
  4  6  1  0  0  0
  4 17  2  0  0  0
  5  6  2  0  0  0
  5 14  1  0  0  0
  5  7  1  0  0  0
  6 29  1  0  0  0
  8 11  2  0  0  0
  8 19  1  0  0  0
  9 11  1  0  0  0
  9 20  1  0  0  0
 10 12  1  0  0  0
 10 15  1  0  0  0
 10 30  1  0  0  0
 11 31  1  0  0  0
 12 16  1  0  0  0
 12 21  1  0  0  0
 12 32  1  0  0  0
 13 18  1  0  0  0
 13 23  1  0  0  0
 13 16  1  0  0  0
 14 22  1  0  0  0
 15 18  1  0  0  0
 15 33  1  0  0  0
 15 34  1  0  0  0
 16 35  1  0  0  0
 16 36  1  0  0  0
 18 37  1  0  0  0
 18 38  1  0  0  0
 19 39  1  0  0  0
 20 40  1  0  0  0
 21 41  1  0  0  0
 22 24  2  0  0  0
 22 25  1  0  0  0
 23 42  1  0  0  0
 23 43  1  0  0  0
 23 44  1  0  0  0
 24 27  1  0  0  0
 24 45  1  0  0  0
 25 26  2  0  0  0
 25 46  1  0  0  0
 26 28  1  0  0  0
 26 47  1  0  0  0
 27 28  2  0  0  0
 27 48  1  0  0  0
 28 49  1  0  0  0
M  END
> <s_m_entry_id>
33150

> <s_m_entry_name>
dock_pv.551

> <s_m_Source_Path>
/home/csk/Desktop/cluster/DUD-E-result/cdk2

> <s_m_Source_File>
dock_pv.maegz

> <i_m_Source_File_Index>
551

> <chembl_id>
CHEMBL112050

> <chembl_pref_name>
None

> <i_lp_mmshare_version>
53161

> <i_f3d_flags>
0

> <r_lp_tautomer_probability>
1

> <s_lp_Force_Field>
OPLS_2005

> <r_lp_Energy>
33.391131

> <b_lp_Chiralities_Consistent>
1

> <s_lp_Variant>
CHEMBL301_lig268-1

> <s_i_glide_gridfile>
glide-grid_1h00

> <i_i_glide_lignum>
411

> <i_i_glide_rotatable_bonds>
6

> <r_i_docking_score>
-6.90395551760777

> <r_i_glide_ligand_efficiency>
-0.246569839914563

> <r_i_glide_ligand_efficiency_sa>
-0.748731255850068

> <r_i_glide_ligand_efficiency_ln>
-1.59363564240612

> <r_i_glide_gscore>
-6.90395551760777

> <r_i_glide_lipo>
-3.35154805504428

> <r_i_glide_hbond>
-0.16

> <r_i_glide_metal>
0

> <r_i_glide_rewards>
-0.802158893939393

> <r_i_glide_evdw>
-42.7152099609375

> <r_i_glide_ecoul>
-5.48587226867676

> <r_i_glide_erotb>
0.368392769724295

> <r_i_glide_esite>
0

> <r_i_glide_emodel>
-64.9607196532564

> <r_i_glide_energy>
-48.2010822296143

> <r_i_glide_einternal>
2.55040788650513

> <i_i_glide_confnum>
23

> <i_i_glide_posenum>
167

> <r_i_glide_eff_state_penalty>
0

> <s_user_duplicate_titles>
CHEMBL301_lig268

> <s_m_subgroup_title>
dock_pv

> <s_m_subgroupid>
dock_pv

> <b_m_subgroup_collapsed>
1

$$$$
CHEMBL301_lig179
                    3D
 Schrodinger Suite 2021-1.
 40 43  0  0  1  0            999 V2000
    0.8530   27.3430   10.7216 C   0  0  0  0  0  0
    1.8163   26.2036   10.9192 C   0  0  0  0  0  0
   -0.3896   27.6833   11.2697 C   0  0  0  0  0  0
    1.4076   28.1719    9.7763 C   0  0  0  0  0  0
    2.8580   26.5224   10.1237 N   0  0  0  0  0  0
    2.6364   27.6836    9.4028 C   0  0  0  0  0  0
   -0.4557   29.6936    9.8311 C   0  0  0  0  0  0
   -1.0283   28.8462   10.8070 C   0  0  0  0  0  0
    0.8164   29.3410    9.2636 C   0  0  0  0  0  0
   -1.0449   26.8975   12.3546 C   0  0  0  0  0  0
   -0.3420   26.3076   13.3765 N   0  0  0  0  0  0
    1.7374   25.2133   11.6457 O   0  0  0  0  0  0
    1.5726   30.0047    8.2367 C   0  0  0  0  0  0
    3.3836   28.3645    8.4494 C   0  0  0  0  0  0
   -1.1197   31.0060    9.3972 C   0  0  0  0  0  0
   -2.3864   26.6233   12.6026 C   0  0  0  0  0  0
   -1.1903   25.6586   14.2327 C   0  0  0  0  0  0
   -2.4804   25.8519   13.7671 C   0  0  0  0  0  0
    2.8338   29.5093    7.8610 C   0  0  0  0  0  0
    1.0980   31.1016    7.6027 F   0  0  0  0  0  0
   -2.3085   31.5291   10.2451 C   0  0  0  0  0  0
   -3.6508   30.9379    9.7766 C   0  0  0  0  0  0
   -2.3420   33.0640   10.2389 C   0  0  0  0  0  0
    3.7529   26.0440   10.1701 H   0  0  0  0  0  0
   -1.9786   29.0976   11.2534 H   0  0  0  0  0  0
    0.6678   26.3339   13.4559 H   0  0  0  0  0  0
    4.3565   28.0105    8.1398 H   0  0  0  0  0  0
   -0.3420   31.7680    9.4286 H   0  0  0  0  0  0
   -1.4083   30.9274    8.3478 H   0  0  0  0  0  0
   -3.2205   26.9530   12.0005 H   0  0  0  0  0  0
   -0.8024   25.1221   15.0854 H   0  0  0  0  0  0
   -3.3924   25.4835   14.2123 H   0  0  0  0  0  0
    3.3864   30.0224    7.0915 H   0  0  0  0  0  0
   -2.1669   31.2568   11.2921 H   0  0  0  0  0  0
   -3.8776   31.2203    8.7476 H   0  0  0  0  0  0
   -3.6546   29.8505    9.8228 H   0  0  0  0  0  0
   -4.4704   31.2912   10.4022 H   0  0  0  0  0  0
   -2.3423   33.4521    9.2218 H   0  0  0  0  0  0
   -3.2163   33.4513   10.7636 H   0  0  0  0  0  0
   -1.4633   33.4697   10.7383 H   0  0  0  0  0  0
  1  2  1  0  0  0
  1  3  2  0  0  0
  1  4  1  0  0  0
  2  5  1  0  0  0
  2 12  2  0  0  0
  3  8  1  0  0  0
  3 10  1  0  0  0
  4  6  1  0  0  0
  4  9  2  0  0  0
  5  6  1  0  0  0
  5 24  1  0  0  0
  6 14  2  0  0  0
  7  9  1  0  0  0
  7 15  1  0  0  0
  7  8  2  0  0  0
  8 25  1  0  0  0
  9 13  1  0  0  0
 10 11  1  0  0  0
 10 16  2  0  0  0
 11 17  1  0  0  0
 11 26  1  0  0  0
 13 19  2  0  0  0
 13 20  1  0  0  0
 14 19  1  0  0  0
 14 27  1  0  0  0
 15 21  1  0  0  0
 15 28  1  0  0  0
 15 29  1  0  0  0
 16 18  1  0  0  0
 16 30  1  0  0  0
 17 18  2  0  0  0
 17 31  1  0  0  0
 18 32  1  0  0  0
 19 33  1  0  0  0
 21 22  1  0  0  0
 21 23  1  0  0  0
 21 34  1  0  0  0
 22 35  1  0  0  0
 22 36  1  0  0  0
 22 37  1  0  0  0
 23 38  1  0  0  0
 23 39  1  0  0  0
 23 40  1  0  0  0
M  END
> <s_m_entry_id>
33151

> <s_m_entry_name>
dock_pv.552

> <s_m_Source_Path>
/home/csk/Desktop/cluster/DUD-E-result/cdk2

> <s_m_Source_File>
dock_pv.maegz

> <i_m_Source_File_Index>
552

> <chembl_id>
CHEMBL83443

> <chembl_pref_name>
None

> <i_lp_mmshare_version>
53161

> <i_f3d_flags>
0

> <r_lp_tautomer_probability>
1

> <s_lp_Force_Field>
OPLS_2005

> <r_lp_Energy>
54.857478

> <b_lp_Chiralities_Consistent>
1

> <s_lp_Variant>
CHEMBL301_lig179-1

> <s_i_glide_gridfile>
glide-grid_1h00

> <i_i_glide_lignum>
320

> <i_i_glide_rotatable_bonds>
3

> <r_i_docking_score>
-6.9010915483378

> <r_i_glide_ligand_efficiency>
-0.300047458623383

> <r_i_glide_ligand_efficiency_sa>
-0.853295059075583

> <r_i_glide_ligand_efficiency_ln>
-1.66874651202656

> <r_i_glide_gscore>
-6.9010915483378

> <r_i_glide_lipo>
-2.50897663534983

> <r_i_glide_hbond>
-0.275406986803489

> <r_i_glide_metal>
0

> <r_i_glide_rewards>
-2.04088600293917

> <r_i_glide_evdw>
-35.4364738464355

> <r_i_glide_ecoul>
-4.1555962562561

> <r_i_glide_erotb>
0.389153414481998

> <r_i_glide_esite>
-0.069812206967122

> <r_i_glide_emodel>
-52.6250983476204

> <r_i_glide_energy>
-39.5920701026917

> <r_i_glide_einternal>
7.53743124008179

> <i_i_glide_confnum>
9

> <i_i_glide_posenum>
367

> <r_i_glide_eff_state_penalty>
0

> <s_user_duplicate_titles>
CHEMBL301_lig179

> <s_m_subgroup_title>
dock_pv

> <s_m_subgroupid>
dock_pv

> <b_m_subgroup_collapsed>
1

$$$$
CHEMBL301_lig7
                    3D
 Schrodinger Suite 2021-1.
 53 55  0  0  1  0            999 V2000
    2.8561   27.3243    9.7962 N   0  0  0  0  0  0
    3.7745   27.8524    8.9759 C   0  0  0  0  0  0
    3.6716   28.9168    8.1734 N   0  0  0  0  0  0
    2.4905   29.5843    8.1630 C   0  0  0  0  0  0
    1.6890   28.0142    9.7686 C   0  0  0  0  0  0
    1.4443   29.1415    9.0046 C   0  0  0  0  0  0
    0.1954   29.5990    9.1940 N   0  0  0  0  0  0
   -0.3258   28.7567   10.0499 C   0  0  0  0  0  0
    0.4975   27.7425   10.3880 N   0  0  0  0  0  0
    2.3607   30.6521    7.2884 N   0  0  0  0  0  0
    0.2012   26.6080   11.3530 C   0  0  2  0  0  0
    1.1141   25.5683   11.1833 O   0  0  0  0  0  0
    0.6673   24.4631   11.9350 C   0  0  1  0  0  0
   -0.8375   24.4739   11.6720 C   0  0  2  0  0  0
   -1.1385   25.8910   11.1354 C   0  0  1  0  0  0
   -1.5419   24.1398   12.8572 O   0  0  0  0  0  0
   -2.1892   26.6037   11.7748 O   0  0  0  0  0  0
    1.4555   23.1921   11.5851 C   0  0  0  0  0  0
    1.3152   22.8179   10.2246 O   0  0  0  0  0  0
    2.4294   21.8521    9.5296 P   0  0  1  0  0  0
    1.5660   20.9980    8.4739 O   0  0  0  0  0  0
    3.2580   22.8629    8.5760 O   0  0  0  0  0  0
    3.2581   21.0513   10.4678 O   0  0  0  0  0  0
    1.7560   20.0050    7.1142 P   0  0  1  0  0  0
    2.6014   20.8946    5.9495 O   0  0  0  0  0  0
    2.8479   18.7920    7.6012 O   0  0  0  0  0  0
    0.4576   19.4469    6.5760 O   0  0  0  0  0  0
    3.4533   20.5438    4.6296 P   0  0  2  0  0  0
    3.6580   22.0343    3.8552 N   0  0  1  0  0  0
    2.8584   19.4519    3.8151 O   0  0  0  0  0  0
    4.9185   20.2193    5.2343 O   0  0  0  0  0  0
    4.6194   22.2047    2.7637 C   0  0  0  0  0  0
    4.0973   21.5655    1.5403 C   0  0  0  0  0  0
    3.6795   21.0519    0.5136 C   0  0  0  0  0  0
    4.7316   27.3511    8.9668 H   0  0  0  0  0  0
   -1.3265   28.8113   10.4556 H   0  0  0  0  0  0
    1.5353   31.2280    7.3489 H   0  0  0  0  0  0
    3.1778   30.9262    6.7501 H   0  0  0  0  0  0
    0.3251   27.0128   12.3618 H   0  0  0  0  0  0
    0.8580   24.7040   12.9760 H   0  0  0  0  0  0
   -1.0877   23.7545   10.8923 H   0  0  0  0  0  0
   -1.3116   25.8413   10.0577 H   0  0  0  0  0  0
   -2.4183   24.5331   12.7985 H   0  0  0  0  0  0
   -3.0346   26.2906   11.4372 H   0  0  0  0  0  0
    1.1342   22.3657   12.2209 H   0  0  0  0  0  0
    2.5026   23.3734   11.8224 H   0  0  0  0  0  0
    2.6666   23.3264    7.9332 H   0  0  0  0  0  0
    3.7304   18.9982    7.9584 H   0  0  0  0  0  0
    2.7987   22.5793    3.7367 H   0  0  0  0  0  0
    5.6343   20.1998    4.5722 H   0  0  0  0  0  0
    5.5807   21.7616    3.0224 H   0  0  0  0  0  0
    4.7788   23.2663    2.5760 H   0  0  0  0  0  0
    3.3247   20.6221   -0.3962 H   0  0  0  0  0  0
  1  2  2  0  0  0
  1  5  1  0  0  0
  2  3  1  0  0  0
  2 35  1  0  0  0
  3  4  2  0  0  0
  4  6  1  0  0  0
  4 10  1  0  0  0
  5  9  1  0  0  0
  5  6  2  0  0  0
  6  7  1  0  0  0
  7  8  2  0  0  0
  8  9  1  0  0  0
  8 36  1  0  0  0
  9 11  1  0  0  0
 10 37  1  0  0  0
 10 38  1  0  0  0
 11 12  1  0  0  0
 11 15  1  0  0  0
 11 39  1  0  0  0
 12 13  1  0  0  0
 13 18  1  0  0  0
 13 14  1  0  0  0
 13 40  1  0  0  0
 14 16  1  0  0  0
 14 15  1  0  0  0
 14 41  1  0  0  0
 15 17  1  0  0  0
 15 42  1  0  0  0
 16 43  1  0  0  0
 17 44  1  0  0  0
 18 19  1  0  0  0
 18 45  1  0  0  0
 18 46  1  0  0  0
 19 20  1  0  0  0
 20 21  1  0  0  0
 20 22  1  0  0  0
 20 23  2  0  0  0
 21 24  1  0  0  0
 22 47  1  0  0  0
 24 25  1  0  0  0
 24 26  1  0  0  0
 24 27  2  0  0  0
 25 28  1  0  0  0
 26 48  1  0  0  0
 28 29  1  0  0  0
 28 30  2  0  0  0
 28 31  1  0  0  0
 29 32  1  0  0  0
 29 49  1  0  0  0
 31 50  1  0  0  0
 32 33  1  0  0  0
 32 51  1  0  0  0
 32 52  1  0  0  0
 33 34  3  0  0  0
 34 53  1  0  0  0
M  END
> <s_m_entry_id>
33152

> <s_m_entry_name>
dock_pv.553

> <s_m_Source_Path>
/home/csk/Desktop/cluster/DUD-E-result/cdk2

> <s_m_Source_File>
dock_pv.maegz

> <i_m_Source_File_Index>
553

> <chembl_id>
CHEMBL557670

> <chembl_pref_name>
None

> <i_lp_mmshare_version>
53161

> <i_f3d_flags>
0

> <r_lp_tautomer_probability>
0.999997216410988

> <s_lp_Force_Field>
OPLS_2005

> <r_lp_Energy>
22.191341

> <b_lp_Chiralities_Consistent>
1

> <s_lp_Variant>
CHEMBL301_lig7-8

> <s_i_glide_gridfile>
glide-grid_1h00

> <i_i_glide_lignum>
15

> <i_i_glide_rotatable_bonds>
16

> <r_i_docking_score>
-6.89988144901488

> <r_i_glide_ligand_efficiency>
-0.202937689676908

> <r_i_glide_ligand_efficiency_sa>
-0.65743933362851

> <r_i_glide_ligand_efficiency_ln>
-1.52437734720656

> <r_i_glide_gscore>
-6.89988144901488

> <r_i_glide_lipo>
-0.909392892431978

> <r_i_glide_hbond>
-0.837409137295421

> <r_i_glide_metal>
0

> <r_i_glide_rewards>
-0.874296029564174

> <r_i_glide_evdw>
-36.2732582092285

> <r_i_glide_ecoul>
-20.5339202880859

> <r_i_glide_erotb>
0.768624783623472

> <r_i_glide_esite>
-0.153657219672463

> <r_i_glide_emodel>
-79.0596793459078

> <r_i_glide_energy>
-56.8071784973145

> <r_i_glide_einternal>
14.0975751876831

> <i_i_glide_confnum>
153

> <i_i_glide_posenum>
261

> <r_i_glide_eff_state_penalty>
0

> <s_user_duplicate_titles>
CHEMBL301_lig7

> <s_m_subgroup_title>
dock_pv

> <s_m_subgroupid>
dock_pv

> <b_m_subgroup_collapsed>
1

$$$$
CHEMBL301_lig1356
                    3D
 Schrodinger Suite 2021-1.
 57 59  0  0  1  0            999 V2000
   -0.8498   27.0752    9.8808 C   0  0  0  0  0  0
   -0.7009   28.3282   10.7731 C   0  0  1  0  0  0
   -1.2871   29.5026   10.1171 N   0  0  0  0  0  0
   -0.5497   30.3428    9.2648 C   0  0  0  0  0  0
    0.5375   29.8524    8.6024 N   0  0  0  0  0  0
    1.1944   30.6995    7.7663 C   0  0  0  0  0  0
    2.2873   30.2523    7.0134 N   0  0  0  0  0  0
    3.1587   29.1589    7.1354 C   0  0  0  0  0  0
    3.8320   28.7310    5.9884 C   0  0  0  0  0  0
    4.7938   27.7327    6.0599 C   0  0  0  0  0  0
    5.0687   27.1309    7.2856 C   0  0  0  0  0  0
    4.3674   27.5271    8.4280 C   0  0  0  0  0  0
    3.4218   28.5464    8.3598 C   0  0  0  0  0  0
    6.3173   25.8517    7.4305 S   0  0  2  0  0  0
    5.4482   24.5932    7.4779 N   0  0  0  0  0  0
    7.2571   26.2507    8.4863 O   0  0  0  0  0  0
    7.2490   25.6590    5.7738 C   0  0  0  0  0  0
    8.4311   24.6796    5.9295 C   0  0  0  0  0  0
    8.4057   23.8044    4.6738 C   0  0  0  0  0  0
    6.9240   23.7092    4.3172 C   0  0  0  0  0  0
    6.3843   25.1093    4.6141 C   0  0  0  0  0  0
    0.8581   31.9962    7.5535 N   0  0  0  0  0  0
   -0.1987   32.4780    8.2540 C   0  0  0  0  0  0
   -0.9421   31.6821    9.1256 C   0  0  0  0  0  0
   -2.3979   32.4397   10.0985 Br  0  0  0  0  0  0
   -1.2637   28.1203   12.2238 C   0  0  0  0  0  0
   -0.6236   26.9162   12.9430 C   0  0  0  0  0  0
   -1.0916   29.3851   13.0895 C   0  0  0  0  0  0
   -2.6538   27.8514   12.1755 O   0  0  0  0  0  0
   -0.0956   26.3263   10.1222 H   0  0  0  0  0  0
   -1.8242   26.6019    9.9997 H   0  0  0  0  0  0
   -0.7425   27.3208    8.8255 H   0  0  0  0  0  0
    0.3698   28.5161   10.8792 H   0  0  0  0  0  0
   -2.0619   29.9292   10.6063 H   0  0  0  0  0  0
    2.6709   30.9731    6.4192 H   0  0  0  0  0  0
    3.6568   29.2141    5.0401 H   0  0  0  0  0  0
    5.3281   27.4611    5.1642 H   0  0  0  0  0  0
    4.5544   27.0516    9.3756 H   0  0  0  0  0  0
    2.9150   28.8624    9.2593 H   0  0  0  0  0  0
    5.9811   23.7609    7.2796 H   0  0  0  0  0  0
    7.6233   26.6515    5.5354 H   0  0  0  0  0  0
    9.3853   25.1966    6.0416 H   0  0  0  0  0  0
    8.2930   24.0338    6.7979 H   0  0  0  0  0  0
    8.9556   24.2900    3.8648 H   0  0  0  0  0  0
    8.8579   22.8254    4.8373 H   0  0  0  0  0  0
    6.7629   23.4167    3.2786 H   0  0  0  0  0  0
    6.4276   22.9712    4.9497 H   0  0  0  0  0  0
    5.3158   25.0919    4.8284 H   0  0  0  0  0  0
    6.5195   25.7365    3.7316 H   0  0  0  0  0  0
   -0.4393   33.5225    8.1154 H   0  0  0  0  0  0
    0.4579   27.0239   13.0018 H   0  0  0  0  0  0
   -0.8337   25.9774   12.4292 H   0  0  0  0  0  0
   -0.9982   26.8102   13.9614 H   0  0  0  0  0  0
   -0.0378   29.6257   13.2249 H   0  0  0  0  0  0
   -1.5610   30.2571   12.6386 H   0  0  0  0  0  0
   -1.5401   29.2654   14.0764 H   0  0  0  0  0  0
   -3.0753   28.2596   12.9489 H   0  0  0  0  0  0
  1  2  1  0  0  0
  1 30  1  0  0  0
  1 31  1  0  0  0
  1 32  1  0  0  0
  2  3  1  0  0  0
  2 26  1  0  0  0
  2 33  1  0  0  0
  3  4  1  0  0  0
  3 34  1  0  0  0
  4  5  2  0  0  0
  4 24  1  0  0  0
  5  6  1  0  0  0
  6  7  1  0  0  0
  6 22  2  0  0  0
  7  8  1  0  0  0
  7 35  1  0  0  0
  8  9  2  0  0  0
  8 13  1  0  0  0
  9 10  1  0  0  0
  9 36  1  0  0  0
 10 11  2  0  0  0
 10 37  1  0  0  0
 11 12  1  0  0  0
 11 14  1  0  0  0
 12 13  2  0  0  0
 12 38  1  0  0  0
 13 39  1  0  0  0
 14 15  2  0  0  0
 14 16  2  0  0  0
 14 17  1  0  0  0
 15 40  1  0  0  0
 17 18  1  0  0  0
 17 21  1  0  0  0
 17 41  1  0  0  0
 18 19  1  0  0  0
 18 42  1  0  0  0
 18 43  1  0  0  0
 19 20  1  0  0  0
 19 44  1  0  0  0
 19 45  1  0  0  0
 20 21  1  0  0  0
 20 46  1  0  0  0
 20 47  1  0  0  0
 21 48  1  0  0  0
 21 49  1  0  0  0
 22 23  1  0  0  0
 23 24  2  0  0  0
 23 50  1  0  0  0
 24 25  1  0  0  0
 26 27  1  0  0  0
 26 28  1  0  0  0
 26 29  1  0  0  0
 27 51  1  0  0  0
 27 52  1  0  0  0
 27 53  1  0  0  0
 28 54  1  0  0  0
 28 55  1  0  0  0
 28 56  1  0  0  0
 29 57  1  0  0  0
M  END
> <s_m_entry_id>
33153

> <s_m_entry_name>
dock_pv.554

> <s_m_Source_Path>
/home/csk/Desktop/cluster/DUD-E-result/cdk2

> <s_m_Source_File>
dock_pv.maegz

> <i_m_Source_File_Index>
554

> <chembl_id>
CHEMBL3648078

> <chembl_pref_name>
None

> <i_lp_mmshare_version>
53161

> <i_f3d_flags>
0

> <r_lp_tautomer_probability>
0.999999624730965

> <s_lp_Force_Field>
OPLS_2005

> <r_lp_Energy>
24.591493

> <b_lp_Chiralities_Consistent>
1

> <s_lp_Variant>
CHEMBL301_lig1356-1

> <s_i_glide_gridfile>
glide-grid_1h00

> <i_i_glide_lignum>
1810

> <i_i_glide_rotatable_bonds>
8

> <r_i_docking_score>
-6.89985419182806

> <r_i_glide_ligand_efficiency>
-0.237926006614761

> <r_i_glide_ligand_efficiency_sa>
-0.730984072570292

> <r_i_glide_ligand_efficiency_ln>
-1.57989164472273

> <r_i_glide_gscore>
-6.89985419182806

> <r_i_glide_lipo>
-2.7475383614911

> <r_i_glide_hbond>
-0.398567664217981

> <r_i_glide_metal>
0

> <r_i_glide_rewards>
-1.02587132621679

> <r_i_glide_evdw>
-40.2363929748535

> <r_i_glide_ecoul>
-8.84264850616455

> <r_i_glide_erotb>
0.610340084765167

> <r_i_glide_esite>
0

> <r_i_glide_emodel>
-66.752104585195

> <r_i_glide_energy>
-49.0790414810181

> <r_i_glide_einternal>
5.36230707168579

> <i_i_glide_confnum>
71

> <i_i_glide_posenum>
83

> <r_i_glide_eff_state_penalty>
0

> <s_user_duplicate_titles>
CHEMBL301_lig1356

> <s_m_subgroup_title>
dock_pv

> <s_m_subgroupid>
dock_pv

> <b_m_subgroup_collapsed>
1

$$$$
CHEMBL301_lig279
                    3D
 Schrodinger Suite 2021-1.
 44 46  0  0  1  0            999 V2000
   -1.6741   25.9417   14.1000 S   0  0  0  0  0  0
    2.5241   28.5310    8.9800 C   0  0  0  0  0  0
    2.6624   29.8522    7.2843 N   0  0  0  0  0  0
    1.4672   29.4507    8.9759 C   0  0  0  0  0  0
    3.2627   28.7513    7.8315 C   0  0  0  0  0  0
    1.5738   30.2602    7.9474 N   0  0  0  0  0  0
   -1.0057   26.9973   12.8189 C   0  0  0  0  0  0
    0.4175   29.5920    9.8460 N   0  0  0  0  0  0
   -1.1207   24.5963   13.9175 O   0  0  0  0  0  0
   -1.5406   26.6515   15.3759 O   0  0  0  0  0  0
    4.3728   27.9752    7.2247 C   0  0  0  0  0  0
   -3.3780   25.8604   13.7513 N   0  0  0  0  0  0
    6.3121   26.2516    6.1297 C   0  0  0  0  0  0
    7.3060   25.3918    5.5819 N   0  0  0  0  0  0
    4.4533   27.7998    5.8436 C   0  0  0  0  0  0
    5.2661   27.3117    8.0568 C   0  0  0  0  0  0
    5.3977   26.9315    5.3055 C   0  0  0  0  0  0
    6.2182   26.4526    7.5170 C   0  0  0  0  0  0
   -1.1410   28.3785   12.9432 C   0  0  0  0  0  0
   -0.3758   26.4542   11.6967 C   0  0  0  0  0  0
   -0.0257   28.6879   10.8240 C   0  0  0  0  0  0
   -0.6644   29.2170   11.9436 C   0  0  0  0  0  0
    0.1112   27.2998   10.6999 C   0  0  0  0  0  0
    8.5101   25.1007    6.3612 C   0  0  0  0  0  0
    7.4513   25.2819    4.1288 C   0  0  0  0  0  0
    2.6984   27.7508    9.7053 H   0  0  0  0  0  0
    3.0010   30.3262    6.4567 H   0  0  0  0  0  0
    0.0360   30.5163    9.9718 H   0  0  0  0  0  0
   -3.5892   25.4126   12.8531 H   0  0  0  0  0  0
   -3.8126   26.7879   13.8258 H   0  0  0  0  0  0
    3.7563   28.2966    5.1853 H   0  0  0  0  0  0
    5.2111   27.4515    9.1262 H   0  0  0  0  0  0
    5.4156   26.8187    4.2334 H   0  0  0  0  0  0
    6.8763   25.9514    8.2079 H   0  0  0  0  0  0
   -1.6179   28.8098   13.8097 H   0  0  0  0  0  0
   -0.2702   25.3844   11.5879 H   0  0  0  0  0  0
   -0.7957   30.2813   12.0523 H   0  0  0  0  0  0
    0.5730   26.8686    9.8247 H   0  0  0  0  0  0
    8.2700   24.6461    7.3202 H   0  0  0  0  0  0
    9.0585   26.0225    6.5610 H   0  0  0  0  0  0
    9.1835   24.4236    5.8340 H   0  0  0  0  0  0
    6.5021   25.0368    3.6506 H   0  0  0  0  0  0
    7.7969   26.2289    3.7121 H   0  0  0  0  0  0
    8.1672   24.5084    3.8483 H   0  0  0  0  0  0
  1  7  1  0  0  0
  1  9  2  0  0  0
  1 10  2  0  0  0
  1 12  1  0  0  0
  2  4  1  0  0  0
  2  5  2  0  0  0
  2 26  1  0  0  0
  3  5  1  0  0  0
  3 27  1  0  0  0
  3  6  1  0  0  0
  4  6  2  0  0  0
  4  8  1  0  0  0
  5 11  1  0  0  0
  7 19  1  0  0  0
  7 20  2  0  0  0
  8 21  1  0  0  0
  8 28  1  0  0  0
 11 15  2  0  0  0
 11 16  1  0  0  0
 12 29  1  0  0  0
 12 30  1  0  0  0
 13 18  1  0  0  0
 13 14  1  0  0  0
 13 17  2  0  0  0
 14 24  1  0  0  0
 14 25  1  0  0  0
 15 17  1  0  0  0
 15 31  1  0  0  0
 16 18  2  0  0  0
 16 32  1  0  0  0
 17 33  1  0  0  0
 18 34  1  0  0  0
 19 22  2  0  0  0
 19 35  1  0  0  0
 20 23  1  0  0  0
 20 36  1  0  0  0
 21 23  2  0  0  0
 21 22  1  0  0  0
 22 37  1  0  0  0
 23 38  1  0  0  0
 24 39  1  0  0  0
 24 40  1  0  0  0
 24 41  1  0  0  0
 25 42  1  0  0  0
 25 43  1  0  0  0
 25 44  1  0  0  0
M  END
> <s_m_entry_id>
33154

> <s_m_entry_name>
dock_pv.555

> <s_m_Source_Path>
/home/csk/Desktop/cluster/DUD-E-result/cdk2

> <s_m_Source_File>
dock_pv.maegz

> <i_m_Source_File_Index>
555

> <chembl_id>
CHEMBL323326

> <chembl_pref_name>
None

> <i_lp_mmshare_version>
53161

> <i_f3d_flags>
0

> <r_lp_tautomer_probability>
0.842599999161192

> <s_lp_Force_Field>
OPLS_2005

> <r_lp_Energy>
20.212389

> <b_lp_Chiralities_Consistent>
1

> <s_lp_Variant>
CHEMBL301_lig279-1

> <s_i_glide_gridfile>
glide-grid_1h00

> <i_i_glide_lignum>
440

> <i_i_glide_rotatable_bonds>
5

> <r_i_docking_score>
-6.89752042691627

> <r_i_glide_ligand_efficiency>
-0.275900817076651

> <r_i_glide_ligand_efficiency_sa>
-0.806738882253952

> <r_i_glide_ligand_efficiency_ln>
-1.63491904318652

> <r_i_glide_gscore>
-6.89752042691627

> <r_i_glide_lipo>
-2.61347134901325

> <r_i_glide_hbond>
-0.496651279334084

> <r_i_glide_metal>
0

> <r_i_glide_rewards>
-0.935851467619848

> <r_i_glide_evdw>
-38.0152015686035

> <r_i_glide_ecoul>
-8.32099342346191

> <r_i_glide_erotb>
0.44954109564391

> <r_i_glide_esite>
-0.152178334643535

> <r_i_glide_emodel>
-61.5031360777609

> <r_i_glide_energy>
-46.3361949920654

> <r_i_glide_einternal>
4.82518577575684

> <i_i_glide_confnum>
1

> <i_i_glide_posenum>
371

> <r_i_glide_eff_state_penalty>
0

> <s_user_duplicate_titles>
CHEMBL301_lig279

> <s_m_subgroup_title>
dock_pv

> <s_m_subgroupid>
dock_pv

> <b_m_subgroup_collapsed>
1

$$$$
CHEMBL301_lig8
                    3D
 Schrodinger Suite 2021-1.
 60 63  0  0  1  0            999 V2000
    4.0627   24.6522    7.2548 N   0  0  0  0  0  0
    4.4894   25.8930    6.9969 C   0  0  0  0  0  0
    5.6952   26.3151    6.5999 N   0  0  0  0  0  0
    6.6643   25.3852    6.4196 C   0  0  0  0  0  0
    5.0490   23.7441    7.0625 C   0  0  0  0  0  0
    6.3449   24.0226    6.6577 C   0  0  0  0  0  0
    7.0675   22.8917    6.5763 N   0  0  0  0  0  0
    6.2309   21.9442    6.9329 C   0  0  0  0  0  0
    4.9912   22.3884    7.2333 N   0  0  0  0  0  0
    7.9110   25.8510    6.0124 N   0  0  0  0  0  0
    3.7596   21.6241    7.6946 C   0  0  2  0  0  0
    3.6572   21.5665    9.0823 O   0  0  0  0  0  0
    2.6192   20.6521    9.3960 C   0  0  1  0  0  0
    2.8768   19.5293    8.3771 C   0  0  2  0  0  0
    3.5092   20.2165    7.1442 C   0  0  1  0  0  0
    1.7047   18.7783    8.0974 O   0  0  0  0  0  0
    2.7123   20.3056    5.9657 O   0  0  0  0  0  0
    2.7202   20.2408   10.8824 C   0  0  0  0  0  0
    2.1035   21.1926   11.7441 O   0  0  0  0  0  0
    0.5181   21.0387   12.1109 P   0  0  2  0  0  0
    0.2878   22.0758   13.3326 O   0  0  0  0  0  0
    0.4584   19.5886   12.8310 O   0  0  0  0  0  0
   -0.4173   21.2127   10.9694 O   0  0  0  0  0  0
   -1.0051   22.7189   14.2440 P   0  0  1  0  0  0
   -1.3659   24.2656   13.6176 O   0  0  0  0  0  0
   -2.3385   21.7146   13.8636 O   0  0  0  0  0  0
   -0.7098   22.7364   15.7294 O   0  0  0  0  0  0
   -1.4728   25.8011   14.1224 P   0  0  2  0  0  0
   -1.7797   26.6821   12.7088 N   0  0  0  0  0  0
   -0.3415   26.2507   14.9739 O   0  0  0  0  0  0
   -2.9100   25.8581   14.8663 O   0  0  0  0  0  0
   -0.8695   27.2277   11.7788 C   0  0  0  0  0  0
    0.4554   26.7983   11.6894 C   0  0  0  0  0  0
    1.3148   27.3826   10.7621 C   0  0  0  0  0  0
    0.8685   28.4106    9.9164 C   0  0  0  0  0  0
   -0.4629   28.8180   10.0138 C   0  0  0  0  0  0
   -1.3294   28.2320   10.9311 C   0  0  0  0  0  0
    1.6760   29.0616    8.9760 N   0  0  0  0  0  0
    2.8613   28.7794    8.7959 N   0  3  0  0  0  0
    3.9722   28.6614    8.5775 N   0  5  0  0  0  0
    3.7526   26.6641    7.1247 H   0  0  0  0  0  0
    6.4738   20.8948    6.9978 H   0  0  0  0  0  0
    8.5997   25.1844    5.6950 H   0  0  0  0  0  0
    7.9820   26.8349    5.7757 H   0  0  0  0  0  0
    2.9213   22.2519    7.3967 H   0  0  0  0  0  0
    1.6548   21.1254    9.1951 H   0  0  0  0  0  0
    3.6299   18.8595    8.7971 H   0  0  0  0  0  0
    4.4648   19.7456    6.9132 H   0  0  0  0  0  0
    1.3287   18.4566    8.9205 H   0  0  0  0  0  0
    3.1845   20.8161    5.3025 H   0  0  0  0  0  0
    2.2804   19.2519   11.0375 H   0  0  0  0  0  0
    3.7701   20.1556   11.1680 H   0  0  0  0  0  0
   -0.3134   19.0250   12.5777 H   0  0  0  0  0  0
   -2.2863   20.7388   13.9084 H   0  0  0  0  0  0
   -2.7601   26.8654   12.5031 H   0  0  0  0  0  0
   -3.2728   26.7648   14.9480 H   0  0  0  0  0  0
    0.8333   26.0264   12.3420 H   0  0  0  0  0  0
    2.3403   27.0412   10.7244 H   0  0  0  0  0  0
   -0.8262   29.6068    9.3727 H   0  0  0  0  0  0
   -2.3485   28.5844   10.9933 H   0  0  0  0  0  0
  1  2  2  0  0  0
  1  5  1  0  0  0
  2  3  1  0  0  0
  2 41  1  0  0  0
  3  4  2  0  0  0
  4  6  1  0  0  0
  4 10  1  0  0  0
  5  9  1  0  0  0
  5  6  2  0  0  0
  6  7  1  0  0  0
  7  8  2  0  0  0
  8  9  1  0  0  0
  8 42  1  0  0  0
  9 11  1  0  0  0
 10 43  1  0  0  0
 10 44  1  0  0  0
 11 12  1  0  0  0
 11 15  1  0  0  0
 11 45  1  0  0  0
 12 13  1  0  0  0
 13 14  1  0  0  0
 13 18  1  0  0  0
 13 46  1  0  0  0
 14 15  1  0  0  0
 14 16  1  0  0  0
 14 47  1  0  0  0
 15 17  1  0  0  0
 15 48  1  0  0  0
 16 49  1  0  0  0
 17 50  1  0  0  0
 18 19  1  0  0  0
 18 51  1  0  0  0
 18 52  1  0  0  0
 19 20  1  0  0  0
 20 21  1  0  0  0
 20 22  1  0  0  0
 20 23  2  0  0  0
 21 24  1  0  0  0
 22 53  1  0  0  0
 24 25  1  0  0  0
 24 26  1  0  0  0
 24 27  2  0  0  0
 25 28  1  0  0  0
 26 54  1  0  0  0
 28 29  1  0  0  0
 28 30  2  0  0  0
 28 31  1  0  0  0
 29 32  1  0  0  0
 29 55  1  0  0  0
 31 56  1  0  0  0
 32 33  2  0  0  0
 32 37  1  0  0  0
 33 34  1  0  0  0
 33 57  1  0  0  0
 34 35  2  0  0  0
 34 58  1  0  0  0
 35 36  1  0  0  0
 35 38  1  0  0  0
 36 37  2  0  0  0
 36 59  1  0  0  0
 37 60  1  0  0  0
 38 39  2  0  0  0
 39 40  2  0  0  0
M  CHG  2  39   1  40  -1
M  END
> <s_m_entry_id>
33155

> <s_m_entry_name>
dock_pv.556

> <s_m_Source_Path>
/home/csk/Desktop/cluster/DUD-E-result/cdk2

> <s_m_Source_File>
dock_pv.maegz

> <i_m_Source_File_Index>
556

> <chembl_id>
CHEMBL558335

> <chembl_pref_name>
None

> <i_lp_mmshare_version>
53161

> <i_f3d_flags>
0

> <r_lp_tautomer_probability>
0.999997216410988

> <s_lp_Force_Field>
OPLS_2005

> <r_lp_Energy>
34.193666

> <b_lp_Chiralities_Consistent>
1

> <s_lp_Variant>
CHEMBL301_lig8-7

> <s_i_glide_gridfile>
glide-grid_1h00

> <i_i_glide_lignum>
22

> <i_i_glide_rotatable_bonds>
16

> <r_i_docking_score>
-6.88985688331517

> <r_i_glide_ligand_efficiency>
-0.172246422082879

> <r_i_glide_ligand_efficiency_sa>
-0.589074476601349

> <r_i_glide_ligand_efficiency_ln>
-1.46940371377433

> <r_i_glide_gscore>
-6.88985688331517

> <r_i_glide_lipo>
-0.80084277692385

> <r_i_glide_hbond>
-0.565387825336407

> <r_i_glide_metal>
0

> <r_i_glide_rewards>
-0.231552361191999

> <r_i_glide_evdw>
-46.9108581542969

> <r_i_glide_ecoul>
-21.6976718902588

> <r_i_glide_erotb>
0.463759683740915

> <r_i_glide_esite>
-0.155639912350169

> <r_i_glide_emodel>
-91.656894618831

> <r_i_glide_energy>
-68.6085300445557

> <r_i_glide_einternal>
20.3674144744873

> <i_i_glide_confnum>
8

> <i_i_glide_posenum>
17

> <r_i_glide_eff_state_penalty>
0

> <s_user_duplicate_titles>
CHEMBL301_lig8

> <s_m_subgroup_title>
dock_pv

> <s_m_subgroupid>
dock_pv

> <b_m_subgroup_collapsed>
1

$$$$
CHEMBL301_lig933
                    3D
 Schrodinger Suite 2021-1.
 56 60  0  0  1  0            999 V2000
   -1.1183   28.8468   12.5739 C   0  0  0  0  0  0
   -0.2747   29.1826   11.5196 C   0  0  0  0  0  0
    0.4510   28.2208   10.8116 C   0  0  0  0  0  0
    0.3367   26.8669   11.1438 C   0  0  0  0  0  0
   -1.9414   26.8367   13.8604 N   0  0  0  0  0  0
   -1.2025   27.4933   12.9074 C   0  0  0  0  0  0
   -0.4801   26.4836   12.2221 C   0  0  0  0  0  0
   -0.8491   25.2554   12.8878 C   0  0  0  0  0  0
   -1.7176   25.5134   13.8440 N   0  0  0  0  0  0
   -0.4098   23.8432   12.6018 C   0  0  0  0  0  0
    1.3514   28.6521    9.7041 C   0  0  0  0  0  0
    2.8584   27.8394    9.3759 S   0  0  0  0  0  0
    3.1342   29.0215    8.1256 C   0  0  0  0  0  0
    2.1686   29.8959    8.0118 N   0  0  0  0  0  0
    1.1436   29.6917    8.9287 N   0  0  0  0  0  0
    4.2657   29.0314    7.3546 N   0  0  0  0  0  0
    5.1286   27.8876    7.0696 C   0  0  0  0  0  0
    4.7349   27.0972    5.7989 C   0  0  2  0  0  0
    5.3485   25.6784    5.7443 C   0  0  0  0  0  0
    6.8715   25.6337    5.7608 C   0  0  0  0  0  0
    7.5606   25.4661    6.9651 C   0  0  0  0  0  0
    8.9548   25.4551    6.9759 C   0  0  0  0  0  0
    9.6679   25.6212    5.7917 C   0  0  0  0  0  0
    8.9896   25.7752    4.5770 C   0  0  0  0  0  0
    7.5902   25.7713    4.5696 C   0  0  0  0  0  0
    5.0936   27.8518    4.6100 N   0  0  0  0  0  0
   -1.1895   22.7669   13.0536 C   0  0  0  0  0  0
   -0.8519   21.4553   12.7367 C   0  0  0  0  0  0
    0.2767   21.2022   11.9631 C   0  0  0  0  0  0
    1.0773   22.2546   11.5222 C   0  0  0  0  0  0
    0.7365   23.5666   11.8425 C   0  0  0  0  0  0
    9.7631   25.9575    3.2747 C   0  0  0  0  0  0
    9.1403   25.3553    2.2567 F   0  0  0  0  0  0
    9.8487   27.2643    3.0116 F   0  0  0  0  0  0
   10.9942   25.4498    3.3759 F   0  0  0  0  0  0
   -1.6804   29.6024   13.1001 H   0  0  0  0  0  0
   -0.1801   30.2269   11.2527 H   0  0  0  0  0  0
    0.8737   26.1356   10.5631 H   0  0  0  0  0  0
   -2.6260   27.2530   14.4826 H   0  0  0  0  0  0
    4.4124   29.8087    6.7184 H   0  0  0  0  0  0
    5.1369   27.2178    7.9306 H   0  0  0  0  0  0
    6.1492   28.2426    6.9780 H   0  0  0  0  0  0
    3.6581   26.9750    5.7766 H   0  0  0  0  0  0
    4.9866   25.1539    4.8555 H   0  0  0  0  0  0
    4.9709   25.0906    6.5826 H   0  0  0  0  0  0
    7.0189   25.3606    7.8954 H   0  0  0  0  0  0
    9.4872   25.3400    7.9063 H   0  0  0  0  0  0
   10.7480   25.6388    5.8243 H   0  0  0  0  0  0
    7.0570   25.8997    3.6380 H   0  0  0  0  0  0
    4.6976   28.7798    4.6782 H   0  0  0  0  0  0
    6.1024   27.9836    4.6175 H   0  0  0  0  0  0
   -2.0808   22.9437   13.6392 H   0  0  0  0  0  0
   -1.4733   20.6415   13.0792 H   0  0  0  0  0  0
    0.5286   20.1818   11.7104 H   0  0  0  0  0  0
    1.9531   22.0496   10.9245 H   0  0  0  0  0  0
    1.3867   24.3593   11.5063 H   0  0  0  0  0  0
  1  2  2  0  0  0
  1  6  1  0  0  0
  1 36  1  0  0  0
  2  3  1  0  0  0
  2 37  1  0  0  0
  3 11  1  0  0  0
  3  4  2  0  0  0
  4  7  1  0  0  0
  4 38  1  0  0  0
  5  6  1  0  0  0
  5  9  1  0  0  0
  5 39  1  0  0  0
  6  7  2  0  0  0
  7  8  1  0  0  0
  8  9  2  0  0  0
  8 10  1  0  0  0
 10 27  2  0  0  0
 10 31  1  0  0  0
 11 12  1  0  0  0
 11 15  2  0  0  0
 12 13  1  0  0  0
 13 14  2  0  0  0
 13 16  1  0  0  0
 14 15  1  0  0  0
 16 17  1  0  0  0
 16 40  1  0  0  0
 17 18  1  0  0  0
 17 41  1  0  0  0
 17 42  1  0  0  0
 18 19  1  0  0  0
 18 26  1  0  0  0
 18 43  1  0  0  0
 19 20  1  0  0  0
 19 44  1  0  0  0
 19 45  1  0  0  0
 20 21  2  0  0  0
 20 25  1  0  0  0
 21 22  1  0  0  0
 21 46  1  0  0  0
 22 23  2  0  0  0
 22 47  1  0  0  0
 23 24  1  0  0  0
 23 48  1  0  0  0
 24 25  2  0  0  0
 24 32  1  0  0  0
 25 49  1  0  0  0
 26 50  1  0  0  0
 26 51  1  0  0  0
 27 28  1  0  0  0
 27 52  1  0  0  0
 28 29  2  0  0  0
 28 53  1  0  0  0
 29 30  1  0  0  0
 29 54  1  0  0  0
 30 31  2  0  0  0
 30 55  1  0  0  0
 31 56  1  0  0  0
 32 33  1  0  0  0
 32 34  1  0  0  0
 32 35  1  0  0  0
M  END
> <s_m_entry_id>
33156

> <s_m_entry_name>
dock_pv.557

> <s_m_Source_Path>
/home/csk/Desktop/cluster/DUD-E-result/cdk2

> <s_m_Source_File>
dock_pv.maegz

> <i_m_Source_File_Index>
557

> <chembl_id>
CHEMBL1081438

> <chembl_pref_name>
None

> <i_lp_mmshare_version>
53161

> <i_f3d_flags>
0

> <r_lp_tautomer_probability>
0.980392156862745

> <s_lp_Force_Field>
OPLS_2005

> <r_lp_Energy>
25.078294

> <b_lp_Chiralities_Consistent>
1

> <s_lp_Variant>
CHEMBL301_lig933-1

> <s_i_glide_gridfile>
glide-grid_1h00

> <i_i_glide_lignum>
1321

> <i_i_glide_rotatable_bonds>
8

> <r_i_docking_score>
-6.88805900029516

> <r_i_glide_ligand_efficiency>
-0.196801685722719

> <r_i_glide_ligand_efficiency_sa>
-0.643751363192989

> <r_i_glide_ligand_efficiency_ln>
-1.51208182279776

> <r_i_glide_gscore>
-6.88805900029516

> <r_i_glide_lipo>
-2.56026225457633

> <r_i_glide_hbond>
-0.644148498373898

> <r_i_glide_metal>
0

> <r_i_glide_rewards>
-0.864028909930085

> <r_i_glide_evdw>
-47.4840202331543

> <r_i_glide_ecoul>
-6.29344844818115

> <r_i_glide_erotb>
0.583295492471066

> <r_i_glide_esite>
-0.0846965510010238

> <r_i_glide_emodel>
-74.925291165419

> <r_i_glide_energy>
-53.7774686813354

> <r_i_glide_einternal>
4.45935726165771

> <i_i_glide_confnum>
16

> <i_i_glide_posenum>
276

> <r_i_glide_eff_state_penalty>
0

> <s_user_duplicate_titles>
CHEMBL301_lig933,612945

> <s_m_subgroup_title>
dock_pv

> <s_m_subgroupid>
dock_pv

> <b_m_subgroup_collapsed>
1

$$$$
CHEMBL301_lig1477
                    3D
 Schrodinger Suite 2021-1.
 59 62  0  0  1  0            999 V2000
    3.3565   21.0529    2.1862 C   0  0  0  0  0  0
    4.8812   21.2489    2.1868 C   0  0  0  0  0  0
    5.2461   22.4171    2.9118 O   0  0  0  0  0  0
    5.3963   22.4098    4.2635 C   0  0  0  0  0  0
    5.2933   21.4010    4.9617 O   0  0  0  0  0  0
    5.6617   23.6518    4.8221 N   0  0  0  0  0  0
    5.7603   24.9240    3.9382 S   0  0  1  0  0  0
    6.4587   25.0013    2.6529 O   0  0  0  0  0  0
    3.9608   25.4470    3.7760 C   0  0  0  0  0  0
    6.5191   26.2021    5.0993 C   0  0  0  0  0  0
    5.5967   26.6006    6.2377 C   0  0  0  0  0  0
    5.3364   25.6561    7.2209 C   0  0  0  0  0  0
    4.4576   25.9538    8.2418 C   0  0  0  0  0  0
    3.9063   27.2240    8.3594 C   0  0  0  0  0  0
    4.1178   28.1876    7.3659 C   0  0  0  0  0  0
    3.4638   29.4390    7.3570 N   0  0  0  0  0  0
    2.2506   29.8555    7.9281 C   0  0  0  0  0  0
    1.6725   30.9337    7.3410 N   0  0  0  0  0  0
    0.4580   31.3062    7.8156 C   0  0  0  0  0  0
   -0.1871   30.6347    8.8548 C   0  0  0  0  0  0
   -1.4087   31.0429    9.2700 F   0  0  0  0  0  0
    0.4994   29.5632    9.4540 C   0  0  0  0  0  0
    1.7142   29.1760    8.9760 N   0  0  0  0  0  0
    0.0100   28.8479   10.6789 C   0  0  0  0  0  0
   -0.6216   29.5879   11.6851 C   0  0  0  0  0  0
   -1.0872   28.9870   12.8459 C   0  0  0  0  0  0
   -0.9586   27.6169   13.0205 C   0  0  0  0  0  0
   -0.3185   26.8342   12.0621 C   0  0  0  0  0  0
   -0.1078   25.3425   12.2852 C   0  0  0  0  0  0
    0.2488   24.6388   10.9745 C   0  0  0  0  0  0
    1.3139   25.4609   10.2354 C   0  0  0  0  0  0
    0.7738   26.7367    9.8856 O   0  0  0  0  0  0
    0.1774   27.4629   10.8997 C   0  0  0  0  0  0
    4.9699   27.8569    6.2995 C   0  0  0  0  0  0
    3.0726   20.1907    1.5836 H   0  0  0  0  0  0
    2.8586   21.9312    1.7702 H   0  0  0  0  0  0
    2.9732   20.9030    3.1966 H   0  0  0  0  0  0
    5.3894   20.3665    2.5798 H   0  0  0  0  0  0
    5.2245   21.3746    1.1595 H   0  0  0  0  0  0
    3.5282   25.5567    4.7671 H   0  0  0  0  0  0
    3.9229   26.3864    3.2276 H   0  0  0  0  0  0
    3.4301   24.6749    3.2184 H   0  0  0  0  0  0
    7.4530   25.7873    5.4754 H   0  0  0  0  0  0
    6.7743   27.0520    4.4747 H   0  0  0  0  0  0
    5.7960   24.6794    7.1922 H   0  0  0  0  0  0
    4.2541   25.2095    8.9937 H   0  0  0  0  0  0
    3.2985   27.4129    9.2268 H   0  0  0  0  0  0
    3.8271   30.0975    6.6752 H   0  0  0  0  0  0
    0.0104   32.1838    7.3762 H   0  0  0  0  0  0
   -0.7486   30.6520   11.5802 H   0  0  0  0  0  0
   -1.5420   29.5906   13.6155 H   0  0  0  0  0  0
   -1.3321   27.1661   13.9280 H   0  0  0  0  0  0
    0.7255   25.2266   12.9763 H   0  0  0  0  0  0
   -0.9813   24.8836   12.7508 H   0  0  0  0  0  0
   -0.6392   24.5516   10.3463 H   0  0  0  0  0  0
    0.6038   23.6262   11.1657 H   0  0  0  0  0  0
    1.6326   24.9493    9.3276 H   0  0  0  0  0  0
    2.1970   25.5908   10.8650 H   0  0  0  0  0  0
    5.1523   28.5803    5.5175 H   0  0  0  0  0  0
  1  2  1  0  0  0
  1 35  1  0  0  0
  1 36  1  0  0  0
  1 37  1  0  0  0
  2  3  1  0  0  0
  2 38  1  0  0  0
  2 39  1  0  0  0
  3  4  1  0  0  0
  4  5  2  0  0  0
  4  6  1  0  0  0
  6  7  2  0  0  0
  7  8  2  0  0  0
  7  9  1  0  0  0
  7 10  1  0  0  0
  9 40  1  0  0  0
  9 41  1  0  0  0
  9 42  1  0  0  0
 10 11  1  0  0  0
 10 43  1  0  0  0
 10 44  1  0  0  0
 11 12  2  0  0  0
 11 34  1  0  0  0
 12 13  1  0  0  0
 12 45  1  0  0  0
 13 14  2  0  0  0
 13 46  1  0  0  0
 14 15  1  0  0  0
 14 47  1  0  0  0
 15 16  1  0  0  0
 15 34  2  0  0  0
 16 17  1  0  0  0
 16 48  1  0  0  0
 17 18  2  0  0  0
 17 23  1  0  0  0
 18 19  1  0  0  0
 19 20  2  0  0  0
 19 49  1  0  0  0
 20 21  1  0  0  0
 20 22  1  0  0  0
 22 23  2  0  0  0
 22 24  1  0  0  0
 24 25  2  0  0  0
 24 33  1  0  0  0
 25 26  1  0  0  0
 25 50  1  0  0  0
 26 27  2  0  0  0
 26 51  1  0  0  0
 27 28  1  0  0  0
 27 52  1  0  0  0
 28 29  1  0  0  0
 28 33  2  0  0  0
 29 30  1  0  0  0
 29 53  1  0  0  0
 29 54  1  0  0  0
 30 31  1  0  0  0
 30 55  1  0  0  0
 30 56  1  0  0  0
 31 32  1  0  0  0
 31 57  1  0  0  0
 31 58  1  0  0  0
 32 33  1  0  0  0
 34 59  1  0  0  0
M  END
> <s_m_entry_id>
33157

> <s_m_entry_name>
dock_pv.558

> <s_m_Source_Path>
/home/csk/Desktop/cluster/DUD-E-result/cdk2

> <s_m_Source_File>
dock_pv.maegz

> <i_m_Source_File_Index>
558

> <chembl_id>
CHEMBL3949057

> <chembl_pref_name>
None

> <i_lp_mmshare_version>
53161

> <i_f3d_flags>
0

> <r_lp_tautomer_probability>
0.999999987636

> <s_lp_Force_Field>
OPLS_2005

> <r_lp_Energy>
18.985454

> <b_lp_Chiralities_Consistent>
1

> <s_lp_Variant>
CHEMBL301_lig1477-1

> <s_i_glide_gridfile>
glide-grid_1h00

> <i_i_glide_lignum>
1994

> <i_i_glide_rotatable_bonds>
8

> <r_i_docking_score>
-6.88593624030028

> <r_i_glide_ligand_efficiency>
-0.20252753647942

> <r_i_glide_ligand_efficiency_sa>
-0.656110596491158

> <r_i_glide_ligand_efficiency_ln>
-1.52129645945165

> <r_i_glide_gscore>
-6.88593624030028

> <r_i_glide_lipo>
-2.67386552774202

> <r_i_glide_hbond>
-0.32

> <r_i_glide_metal>
0

> <r_i_glide_rewards>
-1.78896458854308

> <r_i_glide_evdw>
-41.3596305847168

> <r_i_glide_ecoul>
-4.02300548553467

> <r_i_glide_erotb>
0.605499136694049

> <r_i_glide_esite>
-0.0371729086431923

> <r_i_glide_emodel>
-62.4430866063995

> <r_i_glide_energy>
-45.3826360702515

> <r_i_glide_einternal>
6.43562698364258

> <i_i_glide_confnum>
33

> <i_i_glide_posenum>
288

> <r_i_glide_eff_state_penalty>
0

> <s_user_duplicate_titles>
CHEMBL301_lig1477

> <s_m_subgroup_title>
dock_pv

> <s_m_subgroupid>
dock_pv

> <b_m_subgroup_collapsed>
1

$$$$
CHEMBL301_lig1334
                    3D
 Schrodinger Suite 2021-1.
 43 44  0  0  1  0            999 V2000
   -2.2485   27.4571   12.1357 C   0  0  0  0  0  0
   -0.9087   28.1961   12.3083 C   0  0  2  0  0  0
   -1.1419   29.3796   13.0457 O   0  0  0  0  0  0
   -0.1733   28.5276   10.9847 C   0  0  1  0  0  0
    0.1473   27.2534   10.1760 C   0  0  0  0  0  0
   -0.9587   29.4788   10.2468 O   0  0  0  0  0  0
   -0.3619   30.2982    9.3063 C   0  0  0  0  0  0
    0.7425   29.8517    8.6471 N   0  0  0  0  0  0
    1.3064   30.6827    7.7366 C   0  0  0  0  0  0
    2.3946   30.2410    6.9757 N   0  0  0  0  0  0
    3.2582   29.1414    7.0991 C   0  0  0  0  0  0
    3.5666   28.5852    8.3388 C   0  0  0  0  0  0
    4.4983   27.5590    8.4185 C   0  0  0  0  0  0
    5.1430   27.0913    7.2751 C   0  0  0  0  0  0
    4.8240   27.6307    6.0293 C   0  0  0  0  0  0
    3.8809   28.6520    5.9462 C   0  0  0  0  0  0
    6.3735   25.8000    7.4515 S   0  0  2  0  0  0
    5.5206   24.5357    7.3749 N   0  0  0  0  0  0
    7.2579   26.1336    8.5730 O   0  0  0  0  0  0
    7.3638   25.6962    5.8568 C   0  0  0  0  0  0
    0.8821   31.9438    7.4690 N   0  0  0  0  0  0
   -0.1887   32.3908    8.1760 C   0  0  0  0  0  0
   -0.8663   31.5854    9.0927 C   0  0  0  0  0  0
   -2.3725   32.2511   10.0503 Br  0  0  0  0  0  0
   -2.1214   26.5029   11.6250 H   0  0  0  0  0  0
   -2.9564   28.0505   11.5560 H   0  0  0  0  0  0
   -2.7095   27.2419   13.0995 H   0  0  0  0  0  0
   -0.2496   27.5757   12.9184 H   0  0  0  0  0  0
   -2.0697   29.6292   12.9448 H   0  0  0  0  0  0
    0.7750   28.9967   11.2609 H   0  0  0  0  0  0
    0.5631   26.4734   10.8143 H   0  0  0  0  0  0
   -0.7432   26.8549    9.6900 H   0  0  0  0  0  0
    0.8863   27.4401    9.3988 H   0  0  0  0  0  0
    2.7465   30.9407    6.3382 H   0  0  0  0  0  0
    3.1087   28.9541    9.2438 H   0  0  0  0  0  0
    4.7281   27.1320    9.3754 H   0  0  0  0  0  0
    5.3088   27.2851    5.1295 H   0  0  0  0  0  0
    3.6600   29.0853    4.9826 H   0  0  0  0  0  0
    6.0773   23.7090    7.2262 H   0  0  0  0  0  0
    6.6994   25.4587    5.0274 H   0  0  0  0  0  0
    7.8557   26.6519    5.6859 H   0  0  0  0  0  0
    8.1155   24.9162    5.9651 H   0  0  0  0  0  0
   -0.5088   33.4048    7.9780 H   0  0  0  0  0  0
  1  2  1  0  0  0
  1 25  1  0  0  0
  1 26  1  0  0  0
  1 27  1  0  0  0
  2  3  1  0  0  0
  2  4  1  0  0  0
  2 28  1  0  0  0
  3 29  1  0  0  0
  4  5  1  0  0  0
  4  6  1  0  0  0
  4 30  1  0  0  0
  5 31  1  0  0  0
  5 32  1  0  0  0
  5 33  1  0  0  0
  6  7  1  0  0  0
  7  8  2  0  0  0
  7 23  1  0  0  0
  8  9  1  0  0  0
  9 10  1  0  0  0
  9 21  2  0  0  0
 10 11  1  0  0  0
 10 34  1  0  0  0
 11 12  2  0  0  0
 11 16  1  0  0  0
 12 13  1  0  0  0
 12 35  1  0  0  0
 13 14  2  0  0  0
 13 36  1  0  0  0
 14 15  1  0  0  0
 14 17  1  0  0  0
 15 16  2  0  0  0
 15 37  1  0  0  0
 16 38  1  0  0  0
 17 18  2  0  0  0
 17 19  2  0  0  0
 17 20  1  0  0  0
 18 39  1  0  0  0
 20 40  1  0  0  0
 20 41  1  0  0  0
 20 42  1  0  0  0
 21 22  1  0  0  0
 22 23  2  0  0  0
 22 43  1  0  0  0
 23 24  1  0  0  0
M  END
> <s_m_entry_id>
33158

> <s_m_entry_name>
dock_pv.559

> <s_m_Source_Path>
/home/csk/Desktop/cluster/DUD-E-result/cdk2

> <s_m_Source_File>
dock_pv.maegz

> <i_m_Source_File_Index>
559

> <chembl_id>
CHEMBL3648073

> <chembl_pref_name>
None

> <i_lp_mmshare_version>
53161

> <i_f3d_flags>
0

> <r_lp_tautomer_probability>
0.999999917912647

> <s_lp_Force_Field>
OPLS_2005

> <r_lp_Energy>
3.499605

> <b_lp_Chiralities_Consistent>
1

> <s_lp_Variant>
CHEMBL301_lig1334-1

> <s_i_glide_gridfile>
glide-grid_1h00

> <i_i_glide_lignum>
1761

> <i_i_glide_rotatable_bonds>
7

> <r_i_docking_score>
-6.88372205306498

> <r_i_glide_ligand_efficiency>
-0.286821752211041

> <r_i_glide_ligand_efficiency_sa>
-0.827337096885942

> <r_i_glide_ligand_efficiency_ln>
-1.64759056072088

> <r_i_glide_gscore>
-6.88372205306498

> <r_i_glide_lipo>
-2.54266839844282

> <r_i_glide_hbond>
-0.268817478068737

> <r_i_glide_metal>
0

> <r_i_glide_rewards>
-1.48292866836299

> <r_i_glide_evdw>
-40.7854537963867

> <r_i_glide_ecoul>
-7.48291969299316

> <r_i_glide_erotb>
0.572403135577875

> <r_i_glide_esite>
0

> <r_i_glide_emodel>
-64.9502362629052

> <r_i_glide_energy>
-48.2683734893799

> <r_i_glide_einternal>
7.05261325836182

> <i_i_glide_confnum>
28

> <i_i_glide_posenum>
255

> <r_i_glide_eff_state_penalty>
0

> <s_user_duplicate_titles>
CHEMBL301_lig1334

> <s_m_subgroup_title>
dock_pv

> <s_m_subgroupid>
dock_pv

> <b_m_subgroup_collapsed>
1

$$$$
CHEMBL301_lig782
                    3D
 Schrodinger Suite 2021-1.
 54 59  0  0  1  0            999 V2000
   -0.2675   31.0115    8.5763 C   0  0  0  0  0  0
   -1.2091   31.6529    9.3698 C   0  0  0  0  0  0
   -1.6894   31.0487   10.5233 C   0  0  0  0  0  0
    0.2623   29.7623    8.9061 C   0  0  0  0  0  0
   -0.1681   29.1451   10.1047 C   0  0  0  0  0  0
   -1.1864   29.7899   10.8724 C   0  0  0  0  0  0
   -1.4748   28.8511   11.8491 C   0  0  0  0  0  0
   -0.7152   27.6907   11.6721 C   0  0  0  0  0  0
    0.1786   27.9261   10.6747 N   0  0  0  0  0  0
    0.6033   24.9319   11.2857 N   0  0  0  0  0  0
   -0.0444   23.0419   12.3172 C   0  0  0  0  0  0
    0.7559   23.5937   11.3510 C   0  0  0  0  0  0
   -0.7293   24.0652   12.8678 C   0  0  0  0  0  0
   -0.3586   25.2498   12.1686 C   0  0  0  0  0  0
   -0.9448   26.5265   12.4400 C   0  0  0  0  0  0
   -1.8686   26.5421   13.5340 C   0  0  0  0  0  0
   -2.2114   25.3989   14.2422 C   0  0  0  0  0  0
   -1.6685   24.1696   13.9098 C   0  0  0  0  0  0
    1.1968   27.1050   10.2486 C   0  0  0  0  0  0
    1.3527   25.7436   10.4908 C   0  0  0  0  0  0
    2.5730   25.2984    9.7286 C   0  0  0  0  0  0
    3.1307   26.4085    9.2204 N   0  0  0  0  0  0
    2.4554   27.5262    9.5261 C   0  0  0  0  0  0
    2.8574   28.6518    9.2550 O   0  0  0  0  0  0
    3.0468   24.1662    9.6187 O   0  0  0  0  0  0
    4.4590   26.4208    8.5758 C   0  0  0  0  0  0
    4.4808   26.4726    7.0353 C   0  0  0  0  0  0
    5.9107   26.4071    6.4576 C   0  0  0  0  0  0
    6.8570   24.9331    6.9754 S   0  0  0  0  0  0
    8.4126   25.0412    6.0614 C   0  0  0  0  0  0
    8.6804   26.2518    5.4521 N   0  0  0  0  0  0
    9.1722   24.0418    6.1695 N   0  0  0  0  0  0
   10.0409   26.7295    5.2523 C   0  0  0  0  0  0
    0.0628   31.4960    7.6696 H   0  0  0  0  0  0
   -1.5901   32.6194    9.0737 H   0  0  0  0  0  0
   -2.4553   31.5246   11.1189 H   0  0  0  0  0  0
    0.9415   29.3255    8.1974 H   0  0  0  0  0  0
   -2.2569   28.9983   12.5758 H   0  0  0  0  0  0
   -0.0951   21.9932   12.5775 H   0  0  0  0  0  0
    1.4222   23.0338   10.7185 H   0  0  0  0  0  0
   -2.3424   27.4519   13.8540 H   0  0  0  0  0  0
   -2.9256   25.4718   15.0488 H   0  0  0  0  0  0
   -1.9676   23.2893   14.4592 H   0  0  0  0  0  0
    5.0045   25.5324    8.8951 H   0  0  0  0  0  0
    5.0492   27.2480    8.9757 H   0  0  0  0  0  0
    4.0152   27.3979    6.6936 H   0  0  0  0  0  0
    3.9001   25.6414    6.6314 H   0  0  0  0  0  0
    6.4581   27.2973    6.7664 H   0  0  0  0  0  0
    5.8602   26.4294    5.3683 H   0  0  0  0  0  0
    7.9685   26.9681    5.3861 H   0  0  0  0  0  0
   10.0473   24.1894    5.6888 H   0  0  0  0  0  0
   10.0401   27.7747    4.9411 H   0  0  0  0  0  0
   10.5505   26.1481    4.4827 H   0  0  0  0  0  0
   10.6099   26.6514    6.1762 H   0  0  0  0  0  0
  1  2  2  0  0  0
  1  4  1  0  0  0
  1 34  1  0  0  0
  2  3  1  0  0  0
  2 35  1  0  0  0
  3  6  2  0  0  0
  3 36  1  0  0  0
  4  5  2  0  0  0
  4 37  1  0  0  0
  5  9  1  0  0  0
  5  6  1  0  0  0
  6  7  1  0  0  0
  7  8  2  0  0  0
  7 38  1  0  0  0
  8 15  1  0  0  0
  8  9  1  0  0  0
  9 19  1  0  0  0
 10 20  1  0  0  0
 10 14  1  0  0  0
 10 12  1  0  0  0
 11 13  1  0  0  0
 11 12  2  0  0  0
 11 39  1  0  0  0
 12 40  1  0  0  0
 13 18  1  0  0  0
 13 14  2  0  0  0
 14 15  1  0  0  0
 15 16  2  0  0  0
 16 17  1  0  0  0
 16 41  1  0  0  0
 17 18  2  0  0  0
 17 42  1  0  0  0
 18 43  1  0  0  0
 19 20  2  0  0  0
 19 23  1  0  0  0
 20 21  1  0  0  0
 21 22  1  0  0  0
 21 25  2  0  0  0
 22 23  1  0  0  0
 22 26  1  0  0  0
 23 24  2  0  0  0
 26 27  1  0  0  0
 26 44  1  0  0  0
 26 45  1  0  0  0
 27 28  1  0  0  0
 27 46  1  0  0  0
 27 47  1  0  0  0
 28 29  1  0  0  0
 28 48  1  0  0  0
 28 49  1  0  0  0
 29 30  1  0  0  0
 30 31  1  0  0  0
 30 32  2  0  0  0
 31 33  1  0  0  0
 31 50  1  0  0  0
 32 51  1  0  0  0
 33 52  1  0  0  0
 33 53  1  0  0  0
 33 54  1  0  0  0
M  END
> <s_m_entry_id>
33159

> <s_m_entry_name>
dock_pv.560

> <s_m_Source_Path>
/home/csk/Desktop/cluster/DUD-E-result/cdk2

> <s_m_Source_File>
dock_pv.maegz

> <i_m_Source_File_Index>
560

> <chembl_id>
CHEMBL488271

> <chembl_pref_name>
None

> <i_lp_mmshare_version>
53161

> <i_f3d_flags>
0

> <r_lp_tautomer_probability>
1

> <s_lp_Force_Field>
OPLS_2005

> <r_lp_Energy>
85.49119

> <b_lp_Chiralities_Consistent>
1

> <s_lp_Variant>
CHEMBL301_lig782-1

> <s_i_glide_gridfile>
glide-grid_1h00

> <i_i_glide_lignum>
1121

> <i_i_glide_rotatable_bonds>
6

> <r_i_docking_score>
-6.88250611943068

> <r_i_glide_ligand_efficiency>
-0.208560791497899

> <r_i_glide_ligand_efficiency_sa>
-0.668965897840933

> <r_i_glide_ligand_efficiency_ln>
-1.53063372525188

> <r_i_glide_gscore>
-6.88250611943068

> <r_i_glide_lipo>
-2.64622041657018

> <r_i_glide_hbond>
-0.262639806226726

> <r_i_glide_metal>
0

> <r_i_glide_rewards>
-1.02314163467488

> <r_i_glide_evdw>
-44.9368286132812

> <r_i_glide_ecoul>
-7.30465793609619

> <r_i_glide_erotb>
0.484068899342416

> <r_i_glide_esite>
-0.0920330402228213

> <r_i_glide_emodel>
-71.937022966734

> <r_i_glide_energy>
-52.2414865493774

> <r_i_glide_einternal>
5.21335124969482

> <i_i_glide_confnum>
2

> <i_i_glide_posenum>
103

> <r_i_glide_eff_state_penalty>
0

> <s_user_duplicate_titles>
CHEMBL301_lig782

> <s_m_subgroup_title>
dock_pv

> <s_m_subgroupid>
dock_pv

> <b_m_subgroup_collapsed>
1

$$$$
CHEMBL301_lig476
                    3D
 Schrodinger Suite 2021-1.
 37 39  0  0  1  0            999 V2000
    0.4481   22.2440   14.6281 O   0  0  0  0  0  0
   -0.9721   22.5873   14.4965 S   0  0  0  0  0  0
   -1.8386   22.6489   15.6814 O   0  0  0  0  0  0
   -1.6913   21.4527   13.3636 N   0  0  1  0  0  0
   -0.8887   20.9885   12.2191 C   0  0  0  0  0  0
   -1.0760   24.1690   13.6643 C   0  0  0  0  0  0
   -0.0732   24.5469   12.7689 C   0  0  0  0  0  0
   -0.1753   25.7515   12.0816 C   0  0  0  0  0  0
   -1.2873   26.5780   12.2751 C   0  0  0  0  0  0
   -2.2762   26.2082   13.1924 C   0  0  0  0  0  0
   -2.1741   25.0033   13.8832 C   0  0  0  0  0  0
   -1.4464   27.8371   11.4939 C   0  0  0  0  0  0
   -0.4341   28.2056   10.6679 O   0  0  0  0  0  0
   -2.4698   28.7641   11.3776 C   0  0  0  0  0  0
   -2.0491   29.7322   10.4712 C   0  0  0  0  0  0
   -0.7889   29.3546   10.0296 C   0  0  0  0  0  0
    0.1028   29.9348    9.0488 C   0  0  0  0  0  0
    1.3572   29.5612    8.7143 C   0  0  0  0  0  0
    2.3719   28.2530    9.3718 S   0  0  0  0  0  0
    3.6762   28.6506    8.2165 C   0  0  0  0  0  0
    4.7552   28.0074    8.1711 N   0  0  0  0  0  0
    3.2576   29.6935    7.4837 N   0  0  0  0  0  0
    2.0579   30.2510    7.6553 C   0  0  0  0  0  0
    1.6579   31.2007    6.9770 O   0  0  0  0  0  0
   -2.2932   20.7359   13.7802 H   0  0  0  0  0  0
   -0.3699   21.8220   11.7437 H   0  0  0  0  0  0
   -0.1608   20.2505   12.5618 H   0  0  0  0  0  0
   -1.5414   20.4933   11.4972 H   0  0  0  0  0  0
    0.7831   23.9082   12.5992 H   0  0  0  0  0  0
    0.6050   26.0342   11.3861 H   0  0  0  0  0  0
   -3.1347   26.8445   13.3632 H   0  0  0  0  0  0
   -2.9570   24.7166   14.5709 H   0  0  0  0  0  0
   -3.4142   28.7458   11.8977 H   0  0  0  0  0  0
   -2.6092   30.5987   10.1585 H   0  0  0  0  0  0
   -0.3498   30.7762    8.5391 H   0  0  0  0  0  0
    5.3871   28.3431    7.4595 H   0  0  0  0  0  0
    3.8661   30.1007    6.7841 H   0  0  0  0  0  0
  1  2  2  0  0  0
  2  3  2  0  0  0
  2  4  1  0  0  0
  2  6  1  0  0  0
  4  5  1  0  0  0
  4 25  1  0  0  0
  5 26  1  0  0  0
  5 27  1  0  0  0
  5 28  1  0  0  0
  6  7  1  0  0  0
  6 11  2  0  0  0
  7  8  2  0  0  0
  7 29  1  0  0  0
  8  9  1  0  0  0
  8 30  1  0  0  0
  9 10  2  0  0  0
  9 12  1  0  0  0
 10 11  1  0  0  0
 10 31  1  0  0  0
 11 32  1  0  0  0
 12 13  1  0  0  0
 12 14  2  0  0  0
 13 16  1  0  0  0
 14 15  1  0  0  0
 14 33  1  0  0  0
 15 16  2  0  0  0
 15 34  1  0  0  0
 16 17  1  0  0  0
 17 18  2  0  0  0
 17 35  1  0  0  0
 18 19  1  0  0  0
 18 23  1  0  0  0
 19 20  1  0  0  0
 20 21  2  0  0  0
 20 22  1  0  0  0
 21 36  1  0  0  0
 22 23  1  0  0  0
 22 37  1  0  0  0
 23 24  2  0  0  0
M  END
> <s_m_entry_id>
33160

> <s_m_entry_name>
dock_pv.561

> <s_m_Source_Path>
/home/csk/Desktop/cluster/DUD-E-result/cdk2

> <s_m_Source_File>
dock_pv.maegz

> <i_m_Source_File_Index>
561

> <chembl_id>
CHEMBL233553

> <chembl_pref_name>
None

> <i_lp_mmshare_version>
53161

> <i_f3d_flags>
0

> <r_lp_tautomer_probability>
1

> <s_lp_Force_Field>
OPLS_2005

> <r_lp_Energy>
6.618093

> <b_lp_Chiralities_Consistent>
1

> <s_lp_Variant>
CHEMBL301_lig476-1

> <s_i_glide_gridfile>
glide-grid_1h00

> <i_i_glide_lignum>
667

> <i_i_glide_rotatable_bonds>
4

> <r_i_docking_score>
-6.88115956923668

> <r_i_glide_ligand_efficiency>
-0.286714982051528

> <r_i_glide_ligand_efficiency_sa>
-0.827029118452911

> <r_i_glide_ligand_efficiency_ln>
-1.64697724075604

> <r_i_glide_gscore>
-6.88115956923668

> <r_i_glide_lipo>
-1.3190803822018

> <r_i_glide_hbond>
-0.32

> <r_i_glide_metal>
0

> <r_i_glide_rewards>
-2.47031694172888

> <r_i_glide_evdw>
-36.658576965332

> <r_i_glide_ecoul>
-8.26420116424561

> <r_i_glide_erotb>
0.436433191445635

> <r_i_glide_esite>
-0.135636413848179

> <r_i_glide_emodel>
-63.5334052763133

> <r_i_glide_energy>
-44.9227781295776

> <r_i_glide_einternal>
2.43887233734131

> <i_i_glide_confnum>
6

> <i_i_glide_posenum>
217

> <r_i_glide_eff_state_penalty>
0

> <s_user_duplicate_titles>
CHEMBL301_lig476,396939

> <s_m_subgroup_title>
dock_pv

> <s_m_subgroupid>
dock_pv

> <b_m_subgroup_collapsed>
1

$$$$
CHEMBL301_lig1202
                    3D
 Schrodinger Suite 2021-1.
 30 32  0  0  1  0            999 V2000
    0.9536   25.4225   11.1610 C   0  0  0  0  0  0
    0.5172   24.3850   11.9864 C   0  0  0  0  0  0
   -0.5353   24.5668   12.8848 C   0  0  0  0  0  0
   -1.1758   25.7991   13.0043 C   0  0  0  0  0  0
    0.3575   26.6865   11.3147 C   0  0  0  0  0  0
   -0.7320   26.8786   12.2266 C   0  0  0  0  0  0
   -1.1439   28.2375   12.1074 C   0  0  0  0  0  0
   -0.3135   28.8265   11.1867 C   0  0  0  0  0  0
    0.6140   27.9194   10.7057 N   0  0  0  0  0  0
    1.2038   23.1029   11.9167 C   0  0  0  0  0  0
    1.7616   22.0897   11.8587 N   0  0  0  0  0  0
    1.6592   28.2519    9.8044 C   0  0  0  0  0  0
    2.8629   27.5372    9.7812 C   0  0  0  0  0  0
    3.8328   27.9327    8.8625 C   0  0  0  0  0  0
    3.6434   28.9635    8.0085 N   0  0  0  0  0  0
    2.4583   29.6121    8.0993 C   0  0  0  0  0  0
    1.4584   29.3144    8.9758 N   0  0  0  0  0  0
    2.2992   30.6559    7.1875 N   0  0  0  0  0  0
    1.1362   31.5240    7.2073 C   0  0  0  0  0  0
    1.7365   25.2391   10.4415 H   0  0  0  0  0  0
   -0.8672   23.7441   13.5046 H   0  0  0  0  0  0
   -1.9992   25.9299   13.6916 H   0  0  0  0  0  0
   -1.9418   28.7404   12.6330 H   0  0  0  0  0  0
   -0.2902   29.8529   10.8419 H   0  0  0  0  0  0
    3.0929   26.7588   10.4848 H   0  0  0  0  0  0
    4.7961   27.4468    8.8193 H   0  0  0  0  0  0
    3.0989   30.8984    6.6087 H   0  0  0  0  0  0
    1.2567   32.2984    6.4526 H   0  0  0  0  0  0
    0.2369   30.9510    6.9814 H   0  0  0  0  0  0
    1.0082   32.0076    8.1752 H   0  0  0  0  0  0
  1  5  1  0  0  0
  1  2  2  0  0  0
  1 20  1  0  0  0
  2  3  1  0  0  0
  2 10  1  0  0  0
  3  4  2  0  0  0
  3 21  1  0  0  0
  4  6  1  0  0  0
  4 22  1  0  0  0
  5  6  2  0  0  0
  5  9  1  0  0  0
  6  7  1  0  0  0
  7  8  2  0  0  0
  7 23  1  0  0  0
  8  9  1  0  0  0
  8 24  1  0  0  0
  9 12  1  0  0  0
 10 11  3  0  0  0
 12 13  2  0  0  0
 12 17  1  0  0  0
 13 14  1  0  0  0
 13 25  1  0  0  0
 14 15  2  0  0  0
 14 26  1  0  0  0
 15 16  1  0  0  0
 16 17  2  0  0  0
 16 18  1  0  0  0
 18 19  1  0  0  0
 18 27  1  0  0  0
 19 28  1  0  0  0
 19 29  1  0  0  0
 19 30  1  0  0  0
M  END
> <s_m_entry_id>
33161

> <s_m_entry_name>
dock_pv.562

> <s_m_Source_Path>
/home/csk/Desktop/cluster/DUD-E-result/cdk2

> <s_m_Source_File>
dock_pv.maegz

> <i_m_Source_File_Index>
562

> <chembl_id>
CHEMBL2348182

> <chembl_pref_name>
None

> <i_lp_mmshare_version>
53161

> <i_f3d_flags>
0

> <r_lp_tautomer_probability>
1

> <s_lp_Force_Field>
OPLS_2005

> <r_lp_Energy>
1.773678

> <b_lp_Chiralities_Consistent>
1

> <s_lp_Variant>
CHEMBL301_lig1202-1

> <s_i_glide_gridfile>
glide-grid_1h00

> <i_i_glide_lignum>
1616

> <i_i_glide_rotatable_bonds>
2

> <r_i_docking_score>
-6.87762756799238

> <r_i_glide_ligand_efficiency>
-0.361980398315388

> <r_i_glide_ligand_efficiency_sa>
-0.965909090721788

> <r_i_glide_ligand_efficiency_ln>
-1.7436263063818

> <r_i_glide_gscore>
-6.87762756799238

> <r_i_glide_lipo>
-1.29611777387956

> <r_i_glide_hbond>
-0.32

> <r_i_glide_metal>
0

> <r_i_glide_rewards>
-3.32684006441284

> <r_i_glide_evdw>
-30.8153858184814

> <r_i_glide_ecoul>
-4.50204086303711

> <r_i_glide_erotb>
0.281405690679659

> <r_i_glide_esite>
0

> <r_i_glide_emodel>
-51.1885291317412

> <r_i_glide_energy>
-35.3174266815186

> <r_i_glide_einternal>
0.0395725443959236

> <i_i_glide_confnum>
2

> <i_i_glide_posenum>
271

> <r_i_glide_eff_state_penalty>
0

> <s_user_duplicate_titles>
CHEMBL301_lig1202

> <s_m_subgroup_title>
dock_pv

> <s_m_subgroupid>
dock_pv

> <b_m_subgroup_collapsed>
1

$$$$
CHEMBL301_lig955
                    3D
 Schrodinger Suite 2021-1.
 47 50  0  0  1  0            999 V2000
    4.9919   24.3409    5.4368 C   0  0  0  0  0  0
    4.3946   23.9481    4.2387 C   0  0  0  0  0  0
    3.7113   22.7389    4.1628 C   0  0  0  0  0  0
    3.6134   21.9108    5.2863 C   0  0  0  0  0  0
    4.1976   22.3192    6.4935 C   0  0  0  0  0  0
    4.8806   23.5325    6.5682 C   0  0  0  0  0  0
    0.4565   26.8891   11.3364 C   0  0  0  0  0  0
    0.5079   28.2121   10.8650 C   0  0  0  0  0  0
   -0.3015   29.1847   11.4658 C   0  0  0  0  0  0
   -1.1418   28.8519   12.5266 C   0  0  0  0  0  0
    1.4128   28.6211    9.7538 C   0  0  0  0  0  0
    2.8584   27.7199    9.3762 S   0  0  0  0  0  0
    3.2197   28.8721    8.1239 C   0  0  0  0  0  0
    2.3588   29.8514    8.0275 N   0  0  0  0  0  0
    1.3681   29.7200    8.8907 C   0  0  0  0  0  0
    4.3114   28.7521    7.3035 N   0  0  0  0  0  0
    5.1336   27.5685    7.0538 C   0  0  0  0  0  0
    4.9167   26.9073    5.6718 C   0  0  2  0  0  0
    5.7891   25.6364    5.4873 C   0  0  0  0  0  0
    5.2539   27.8530    4.6164 N   0  0  0  0  0  0
   -0.6151   24.9985   13.1657 S   0  0  0  0  0  0
   -0.3839   26.5608   12.3994 C   0  0  0  0  0  0
   -1.1729   27.5378   12.9897 C   0  0  0  0  0  0
   -1.9420   27.0520   14.0233 N   0  0  0  0  0  0
   -1.8278   25.7138   14.3408 C   0  0  0  0  0  0
    2.8825   20.5693    5.2048 C   0  0  0  0  0  0
    3.4940   19.6456    5.9492 F   0  0  0  0  0  0
    1.6325   20.7021    5.6522 F   0  0  0  0  0  0
    2.8289   20.1069    3.9529 F   0  0  0  0  0  0
   -2.4127   25.0922   15.2265 O   0  0  0  0  0  0
    4.4676   24.5746    3.3602 H   0  0  0  0  0  0
    3.2586   22.4554    3.2221 H   0  0  0  0  0  0
    4.1187   21.6979    7.3738 H   0  0  0  0  0  0
    5.3358   23.8342    7.5004 H   0  0  0  0  0  0
    1.0753   26.1276   10.8872 H   0  0  0  0  0  0
   -0.2764   30.2101   11.1252 H   0  0  0  0  0  0
   -1.7596   29.6147   12.9752 H   0  0  0  0  0  0
    0.5917   30.4699    8.8935 H   0  0  0  0  0  0
    4.5262   29.5262    6.6879 H   0  0  0  0  0  0
    4.9574   26.8232    7.8301 H   0  0  0  0  0  0
    6.1733   27.8523    7.1677 H   0  0  0  0  0  0
    3.8629   26.6510    5.5497 H   0  0  0  0  0  0
    6.5489   25.5655    6.2665 H   0  0  0  0  0  0
    6.3788   25.6739    4.5672 H   0  0  0  0  0  0
    4.7086   28.6943    4.7303 H   0  0  0  0  0  0
    6.2268   28.1373    4.7340 H   0  0  0  0  0  0
   -2.6328   27.6395   14.4829 H   0  0  0  0  0  0
  1 19  1  0  0  0
  1  6  1  0  0  0
  1  2  2  0  0  0
  2  3  1  0  0  0
  2 31  1  0  0  0
  3  4  2  0  0  0
  3 32  1  0  0  0
  4  5  1  0  0  0
  4 26  1  0  0  0
  5  6  2  0  0  0
  5 33  1  0  0  0
  6 34  1  0  0  0
  7  8  1  0  0  0
  7 22  2  0  0  0
  7 35  1  0  0  0
  8  9  2  0  0  0
  8 11  1  0  0  0
  9 10  1  0  0  0
  9 36  1  0  0  0
 10 23  2  0  0  0
 10 37  1  0  0  0
 11 15  2  0  0  0
 11 12  1  0  0  0
 12 13  1  0  0  0
 13 14  2  0  0  0
 13 16  1  0  0  0
 14 15  1  0  0  0
 15 38  1  0  0  0
 16 17  1  0  0  0
 16 39  1  0  0  0
 17 18  1  0  0  0
 17 40  1  0  0  0
 17 41  1  0  0  0
 18 19  1  0  0  0
 18 20  1  0  0  0
 18 42  1  0  0  0
 19 43  1  0  0  0
 19 44  1  0  0  0
 20 45  1  0  0  0
 20 46  1  0  0  0
 21 22  1  0  0  0
 21 25  1  0  0  0
 22 23  1  0  0  0
 23 24  1  0  0  0
 24 25  1  0  0  0
 24 47  1  0  0  0
 25 30  2  0  0  0
 26 27  1  0  0  0
 26 28  1  0  0  0
 26 29  1  0  0  0
M  END
> <s_m_entry_id>
33162

> <s_m_entry_name>
dock_pv.563

> <s_m_Source_Path>
/home/csk/Desktop/cluster/DUD-E-result/cdk2

> <s_m_Source_File>
dock_pv.maegz

> <i_m_Source_File_Index>
563

> <chembl_id>
CHEMBL1081853

> <chembl_pref_name>
None

> <i_lp_mmshare_version>
53161

> <i_f3d_flags>
0

> <r_lp_tautomer_probability>
1

> <s_lp_Force_Field>
OPLS_2005

> <r_lp_Energy>
21.381

> <b_lp_Chiralities_Consistent>
1

> <s_lp_Variant>
CHEMBL301_lig955-1

> <s_i_glide_gridfile>
glide-grid_1h00

> <i_i_glide_lignum>
1349

> <i_i_glide_rotatable_bonds>
7

> <r_i_docking_score>
-6.87349604974935

> <r_i_glide_ligand_efficiency>
-0.229116534991645

> <r_i_glide_ligand_efficiency_sa>
-0.711918344370429

> <r_i_glide_ligand_efficiency_ln>
-1.56173319524095

> <r_i_glide_gscore>
-6.87349604974935

> <r_i_glide_lipo>
-1.97055701454879

> <r_i_glide_hbond>
-0.679295505040387

> <r_i_glide_metal>
0

> <r_i_glide_rewards>
-0.98671851175578

> <r_i_glide_evdw>
-39.6685218811035

> <r_i_glide_ecoul>
-10.7367095947266

> <r_i_glide_erotb>
0.592735622384129

> <r_i_glide_esite>
-0.235728107524363

> <r_i_glide_emodel>
-69.6501001849311

> <r_i_glide_energy>
-50.4052314758301

> <r_i_glide_einternal>
7.14319896697998

> <i_i_glide_confnum>
32

> <i_i_glide_posenum>
266

> <r_i_glide_eff_state_penalty>
0

> <s_user_duplicate_titles>
CHEMBL301_lig955,613114

> <s_m_subgroup_title>
dock_pv

> <s_m_subgroupid>
dock_pv

> <b_m_subgroup_collapsed>
1

$$$$
CHEMBL301_lig494
                    3D
 Schrodinger Suite 2021-1.
 48 51  0  0  1  0            999 V2000
   -2.5060   31.4359    9.9277 C   0  0  0  0  0  0
   -1.2916   31.5393    9.2571 C   0  0  0  0  0  0
   -0.4785   30.3901    9.2284 C   0  0  0  0  0  0
   -0.8221   29.2760    9.9326 N   0  0  0  0  0  0
   -1.9933   29.2973   10.6141 C   0  0  0  0  0  0
   -2.8828   30.3115   10.5759 N   0  0  0  0  0  0
   -2.3416   28.2395   11.4620 N   0  0  0  0  0  0
    0.8092   30.2533    8.4799 C   0  0  0  0  0  0
    2.4580   30.5688    6.9762 N   0  0  0  0  0  0
    1.2627   31.0390    7.4326 C   0  0  0  0  0  0
    2.8686   29.4972    7.7259 C   0  0  0  0  0  0
    1.8553   29.2810    8.7064 C   0  0  0  0  0  0
    2.0337   28.2230    9.6129 C   0  0  0  0  0  0
    3.1572   27.4172    9.5026 C   0  0  0  0  0  0
    4.1380   27.6651    8.5491 C   0  0  0  0  0  0
    4.0252   28.7149    7.6412 C   0  0  0  0  0  0
   -0.8641   33.0572    8.5616 Cl  0  0  0  0  0  0
   -1.3831   27.2322   11.9038 C   0  0  1  0  0  0
   -0.5355   27.7467   13.0605 C   0  0  0  0  0  0
   -0.0606   26.4942   13.7858 C   0  0  0  0  0  0
   -1.1239   25.5205   13.5314 N   0  0  0  0  0  0
   -2.0607   25.9857   12.4902 C   0  0  0  0  0  0
   -0.9873   24.2422   13.9662 C   0  0  0  0  0  0
   -1.5420   23.3021   13.1802 N   0  0  0  0  0  0
   -0.3421   23.9494   14.9751 O   0  0  0  0  0  0
   -1.4012   21.8553   13.3511 C   0  0  0  0  0  0
   -0.0651   21.3218   12.8149 C   0  0  0  0  0  0
   -3.1793   32.2747    9.9921 H   0  0  0  0  0  0
   -3.1716   28.3711   12.0240 H   0  0  0  0  0  0
    3.0019   31.0213    6.2471 H   0  0  0  0  0  0
    0.8579   31.9252    6.9760 H   0  0  0  0  0  0
    1.3078   28.0098   10.3802 H   0  0  0  0  0  0
    3.2579   26.5873   10.1837 H   0  0  0  0  0  0
    5.0085   27.0261    8.5151 H   0  0  0  0  0  0
    4.7921   28.9025    6.9031 H   0  0  0  0  0  0
   -0.6943   26.9312   11.1113 H   0  0  0  0  0  0
   -1.1414   28.3568   13.7355 H   0  0  0  0  0  0
    0.3033   28.3657   12.7384 H   0  0  0  0  0  0
    0.1129   26.6522   14.8509 H   0  0  0  0  0  0
    0.8574   26.1411   13.3160 H   0  0  0  0  0  0
   -2.2861   25.3021   11.6713 H   0  0  0  0  0  0
   -2.9640   26.3376   12.9922 H   0  0  0  0  0  0
   -2.0547   23.6141   12.3707 H   0  0  0  0  0  0
   -2.2202   21.3618   12.8263 H   0  0  0  0  0  0
   -1.5170   21.5821   14.4018 H   0  0  0  0  0  0
   -0.0044   20.2409   12.9469 H   0  0  0  0  0  0
    0.7821   21.7623   13.3420 H   0  0  0  0  0  0
    0.0464   21.5256   11.7497 H   0  0  0  0  0  0
  1  2  2  0  0  0
  1  6  1  0  0  0
  1 28  1  0  0  0
  2 17  1  0  0  0
  2  3  1  0  0  0
  3  4  2  0  0  0
  3  8  1  0  0  0
  4  5  1  0  0  0
  5  7  1  0  0  0
  5  6  2  0  0  0
  7 18  1  0  0  0
  7 29  1  0  0  0
  8 12  1  0  0  0
  8 10  2  0  0  0
  9 11  1  0  0  0
  9 10  1  0  0  0
  9 30  1  0  0  0
 10 31  1  0  0  0
 11 16  1  0  0  0
 11 12  2  0  0  0
 12 13  1  0  0  0
 13 14  2  0  0  0
 13 32  1  0  0  0
 14 15  1  0  0  0
 14 33  1  0  0  0
 15 16  2  0  0  0
 15 34  1  0  0  0
 16 35  1  0  0  0
 18 19  1  0  0  0
 18 22  1  0  0  0
 18 36  1  0  0  0
 19 20  1  0  0  0
 19 37  1  0  0  0
 19 38  1  0  0  0
 20 21  1  0  0  0
 20 39  1  0  0  0
 20 40  1  0  0  0
 21 22  1  0  0  0
 21 23  1  0  0  0
 22 41  1  0  0  0
 22 42  1  0  0  0
 23 24  1  0  0  0
 23 25  2  0  0  0
 24 26  1  0  0  0
 24 43  1  0  0  0
 26 27  1  0  0  0
 26 44  1  0  0  0
 26 45  1  0  0  0
 27 46  1  0  0  0
 27 47  1  0  0  0
 27 48  1  0  0  0
M  END
> <s_m_entry_id>
33163

> <s_m_entry_name>
dock_pv.564

> <s_m_Source_Path>
/home/csk/Desktop/cluster/DUD-E-result/cdk2

> <s_m_Source_File>
dock_pv.maegz

> <i_m_Source_File_Index>
564

> <chembl_id>
CHEMBL246544

> <chembl_pref_name>
None

> <i_lp_mmshare_version>
53161

> <i_f3d_flags>
0

> <r_lp_tautomer_probability>
0.999999987636

> <s_lp_Force_Field>
OPLS_2005

> <r_lp_Energy>
34.156151

> <b_lp_Chiralities_Consistent>
1

> <s_lp_Variant>
CHEMBL301_lig494-2

> <s_i_glide_gridfile>
glide-grid_1h00

> <i_i_glide_lignum>
686

> <i_i_glide_rotatable_bonds>
6

> <r_i_docking_score>
-6.87270204938424

> <r_i_glide_ligand_efficiency>
-0.254544520347565

> <r_i_glide_ligand_efficiency_sa>
-0.763633560203757

> <r_i_glide_ligand_efficiency_ln>
-1.59985173174807

> <r_i_glide_gscore>
-6.87270204938424

> <r_i_glide_lipo>
-2.75538404008613

> <r_i_glide_hbond>
-0.232698702711513

> <r_i_glide_metal>
0

> <r_i_glide_rewards>
-1.60843631934959

> <r_i_glide_evdw>
-38.9987754821777

> <r_i_glide_ecoul>
-6.36796045303345

> <r_i_glide_erotb>
0.656465972321816

> <r_i_glide_esite>
-0.027516117494923

> <r_i_glide_emodel>
-61.7451271948939

> <r_i_glide_energy>
-45.3667359352112

> <r_i_glide_einternal>
5.76635408401489

> <i_i_glide_confnum>
39

> <i_i_glide_posenum>
328

> <r_i_glide_eff_state_penalty>
0

> <s_user_duplicate_titles>
CHEMBL301_lig494

> <s_m_subgroup_title>
dock_pv

> <s_m_subgroupid>
dock_pv

> <b_m_subgroup_collapsed>
1

$$$$
CHEMBL301_lig318
                    3D
 Schrodinger Suite 2021-1.
 59 62  0  0  1  0            999 V2000
   -1.2156   28.5943   11.0893 C   0  0  0  0  0  0
   -2.1897   29.5526   10.7671 C   0  0  0  0  0  0
   -1.9355   30.5368    9.8078 C   0  0  0  0  0  0
    0.0197   28.6244   10.4235 C   0  0  0  0  0  0
    0.2620   29.5953    9.4508 C   0  0  0  0  0  0
   -0.7024   30.5343    9.1593 C   0  0  0  0  0  0
   -0.2215   31.3657    8.1776 N   0  0  0  0  0  0
    1.0041   31.0101    7.7663 C   0  0  0  0  0  0
    1.3933   29.8519    8.5877 C   0  0  0  0  0  0
    1.6583   31.5629    6.8815 O   0  0  0  0  0  0
    2.4767   29.1672    8.5597 N   0  0  0  0  0  0
    3.5103   29.4520    7.6532 N   0  0  0  0  0  0
    4.1217   28.4069    6.9570 C   0  0  0  0  0  0
    4.0878   28.4267    5.5634 C   0  0  0  0  0  0
    4.5595   27.3414    4.8327 C   0  0  0  0  0  0
    5.0998   26.2436    5.5017 C   0  0  0  0  0  0
    5.1967   26.2436    6.8958 C   0  0  0  0  0  0
    4.7005   27.3234    7.6237 C   0  0  0  0  0  0
    5.6050   24.7945    4.5828 S   0  0  0  0  0  0
    6.0582   25.3421    2.9848 N   0  0  0  0  0  0
    6.8138   24.2788    5.2327 O   0  0  0  0  0  0
    4.4045   23.9659    4.4428 O   0  0  0  0  0  0
   -1.5106   27.5394   12.1200 C   0  0  0  0  0  0
   -0.4929   27.2455   12.9474 N   0  0  0  0  0  0
   -2.6223   27.0162   12.1838 O   0  0  0  0  0  0
   -0.5089   26.2485   14.0172 C   0  0  0  0  0  0
   -0.6980   24.7833   13.5913 C   0  0  0  0  0  0
   -1.6005   23.9659   14.2959 C   0  0  0  0  0  0
   -1.7356   22.6193   13.9588 C   0  0  0  0  0  0
   -1.0113   22.0809   12.9010 C   0  0  0  0  0  0
   -0.1376   22.8895   12.1791 C   0  0  0  0  0  0
    0.0379   24.2429   12.5160 C   0  0  0  0  0  0
   -2.3415   24.4489   15.3483 O   0  0  0  0  0  0
   -3.6158   24.9551   14.9676 C   0  0  0  0  0  0
    0.9263   25.0727   11.8535 O   0  0  0  0  0  0
    1.5841   24.6209   10.6744 C   0  0  0  0  0  0
   -3.1453   29.5452   11.2750 H   0  0  0  0  0  0
   -2.6932   31.2724    9.5810 H   0  0  0  0  0  0
    0.7777   27.8834   10.6409 H   0  0  0  0  0  0
   -0.7190   32.1548    7.7947 H   0  0  0  0  0  0
    3.2956   30.2641    7.0814 H   0  0  0  0  0  0
    3.6584   29.2698    5.0445 H   0  0  0  0  0  0
    4.4858   27.3495    3.7550 H   0  0  0  0  0  0
    5.6163   25.3950    7.4172 H   0  0  0  0  0  0
    4.7362   27.3050    8.7043 H   0  0  0  0  0  0
    7.0388   25.1842    2.7454 H   0  0  0  0  0  0
    5.3976   25.0523    2.2477 H   0  0  0  0  0  0
    0.3964   27.6923   12.7790 H   0  0  0  0  0  0
   -1.2471   26.5582   14.7578 H   0  0  0  0  0  0
    0.4528   26.3129   14.5271 H   0  0  0  0  0  0
   -2.4141   21.9896   14.5148 H   0  0  0  0  0  0
   -1.1273   21.0358   12.6440 H   0  0  0  0  0  0
    0.4134   22.4398   11.3678 H   0  0  0  0  0  0
   -4.1445   25.3080   15.8527 H   0  0  0  0  0  0
   -3.5322   25.7966   14.2806 H   0  0  0  0  0  0
   -4.2299   24.1853   14.4974 H   0  0  0  0  0  0
    2.1937   25.4306   10.2720 H   0  0  0  0  0  0
    0.8697   24.3324    9.9018 H   0  0  0  0  0  0
    2.2485   23.7815   10.8816 H   0  0  0  0  0  0
  1  4  1  0  0  0
  1 23  1  0  0  0
  1  2  2  0  0  0
  2  3  1  0  0  0
  2 37  1  0  0  0
  3  6  2  0  0  0
  3 38  1  0  0  0
  4  5  2  0  0  0
  4 39  1  0  0  0
  5  9  1  0  0  0
  5  6  1  0  0  0
  6  7  1  0  0  0
  7  8  1  0  0  0
  7 40  1  0  0  0
  8  9  1  0  0  0
  8 10  2  0  0  0
  9 11  2  0  0  0
 11 12  1  0  0  0
 12 13  1  0  0  0
 12 41  1  0  0  0
 13 18  1  0  0  0
 13 14  2  0  0  0
 14 15  1  0  0  0
 14 42  1  0  0  0
 15 16  2  0  0  0
 15 43  1  0  0  0
 16 19  1  0  0  0
 16 17  1  0  0  0
 17 18  2  0  0  0
 17 44  1  0  0  0
 18 45  1  0  0  0
 19 20  1  0  0  0
 19 21  2  0  0  0
 19 22  2  0  0  0
 20 46  1  0  0  0
 20 47  1  0  0  0
 23 24  1  0  0  0
 23 25  2  0  0  0
 24 26  1  0  0  0
 24 48  1  0  0  0
 26 27  1  0  0  0
 26 49  1  0  0  0
 26 50  1  0  0  0
 27 28  2  0  0  0
 27 32  1  0  0  0
 28 29  1  0  0  0
 28 33  1  0  0  0
 29 30  2  0  0  0
 29 51  1  0  0  0
 30 31  1  0  0  0
 30 52  1  0  0  0
 31 32  2  0  0  0
 31 53  1  0  0  0
 32 35  1  0  0  0
 33 34  1  0  0  0
 34 54  1  0  0  0
 34 55  1  0  0  0
 34 56  1  0  0  0
 35 36  1  0  0  0
 36 57  1  0  0  0
 36 58  1  0  0  0
 36 59  1  0  0  0
M  END
> <s_m_entry_id>
33164

> <s_m_entry_name>
dock_pv.565

> <s_m_Source_Path>
/home/csk/Desktop/cluster/DUD-E-result/cdk2

> <s_m_Source_File>
dock_pv.maegz

> <i_m_Source_File_Index>
565

> <chembl_id>
CHEMBL271136

> <chembl_pref_name>
None

> <i_lp_mmshare_version>
53161

> <i_f3d_flags>
0

> <r_lp_tautomer_probability>
1

> <s_lp_Force_Field>
OPLS_2005

> <r_lp_Energy>
59.412984

> <b_lp_Chiralities_Consistent>
1

> <s_lp_Variant>
CHEMBL301_lig318-1

> <s_i_glide_gridfile>
glide-grid_1h00

> <i_i_glide_lignum>
494

> <i_i_glide_rotatable_bonds>
9

> <r_i_docking_score>
-6.87218168702223

> <r_i_glide_ligand_efficiency>
-0.190893935750618

> <r_i_glide_ligand_efficiency_sa>
-0.630317887350786

> <r_i_glide_ligand_efficiency_ln>
-1.49932437921529

> <r_i_glide_gscore>
-6.87218168702223

> <r_i_glide_lipo>
-2.85935768937184

> <r_i_glide_hbond>
-0.369000834353408

> <r_i_glide_metal>
0

> <r_i_glide_rewards>
-0.384254691373474

> <r_i_glide_evdw>
-54.9026679992676

> <r_i_glide_ecoul>
-6.01350402832031

> <r_i_glide_erotb>
0.473308348292475

> <r_i_glide_esite>
-0.0857178160045584

> <r_i_glide_emodel>
-71.9780393072292

> <r_i_glide_energy>
-60.9161720275879

> <r_i_glide_einternal>
20.7318878173828

> <i_i_glide_confnum>
10

> <i_i_glide_posenum>
305

> <r_i_glide_eff_state_penalty>
0

> <s_user_duplicate_titles>
CHEMBL301_lig318,440596

> <s_m_subgroup_title>
dock_pv

> <s_m_subgroupid>
dock_pv

> <b_m_subgroup_collapsed>
1

$$$$
CHEMBL301_lig830
                    3D
 Schrodinger Suite 2021-1.
 52 54  0  0  1  0            999 V2000
   -2.3277   26.6277   11.8060 C   0  0  0  0  0  0
   -2.6854   27.8930   11.7760 N   0  0  0  0  0  0
   -1.5769   28.5256   11.4868 C   0  0  0  0  0  0
   -0.5151   27.7119   11.2420 O   0  0  0  0  0  0
   -1.0028   26.4618   11.4367 C   0  0  0  0  0  0
   -1.3809   30.0251   11.4362 C   0  0  0  0  0  0
   -1.9482   30.7810    9.8802 S   0  0  0  0  0  0
   -0.4406   30.7692    8.9762 C   0  0  0  0  0  0
    0.0639   31.7597    8.1440 C   0  0  0  0  0  0
    1.1709   31.4772    7.4731 N   0  0  0  0  0  0
    1.6602   30.3120    7.8167 C   0  0  0  0  0  0
    0.6881   29.4520    8.9760 S   0  0  0  0  0  0
    2.8606   29.8520    7.2906 N   0  0  0  0  0  0
    3.6561   28.8520    7.7418 C   0  0  0  0  0  0
    4.9647   28.5902    6.9421 C   0  0  2  0  0  0
    3.4523   28.2369    8.7890 O   0  0  0  0  0  0
   -0.0596   25.2710   11.2798 C   0  0  0  0  0  0
    1.1704   25.4719   12.1761 C   0  0  0  0  0  0
    0.4115   25.1332    9.8218 C   0  0  0  0  0  0
   -0.7934   23.9797   11.6951 C   0  0  0  0  0  0
    4.7124   28.5606    5.4083 C   0  0  0  0  0  0
    3.8847   27.3540    4.9472 C   0  0  0  0  0  0
    4.4620   26.0827    5.3877 N   0  0  1  0  0  0
    4.7471   26.0001    6.8233 C   0  0  2  0  0  0
    5.5997   27.2159    7.2728 C   0  0  0  0  0  0
    5.4704   24.6865    7.1311 C   0  0  0  0  0  0
   -3.0125   25.8520   12.1009 H   0  0  0  0  0  0
   -1.9375   30.5002   12.2420 H   0  0  0  0  0  0
   -0.3377   30.2854   11.6153 H   0  0  0  0  0  0
   -0.4058   32.7184    7.9797 H   0  0  0  0  0  0
    3.2796   30.4319    6.5733 H   0  0  0  0  0  0
    5.6106   29.4324    7.1894 H   0  0  0  0  0  0
    1.7671   24.5638   12.2686 H   0  0  0  0  0  0
    0.8580   25.7874   13.1730 H   0  0  0  0  0  0
    1.8212   26.2519   11.7760 H   0  0  0  0  0  0
   -0.4307   25.0520    9.1328 H   0  0  0  0  0  0
    1.0118   25.9975    9.5343 H   0  0  0  0  0  0
    1.0392   24.2525    9.6805 H   0  0  0  0  0  0
   -1.6950   23.8518   11.0981 H   0  0  0  0  0  0
   -0.1728   23.0932   11.5588 H   0  0  0  0  0  0
   -1.1024   24.0110   12.7410 H   0  0  0  0  0  0
    4.2840   29.4895    5.0457 H   0  0  0  0  0  0
    5.6579   28.5796    4.8674 H   0  0  0  0  0  0
    3.7812   27.3505    3.8614 H   0  0  0  0  0  0
    2.8914   27.4542    5.3760 H   0  0  0  0  0  0
    3.8730   25.3124    5.1028 H   0  0  0  0  0  0
    3.7950   25.9798    7.3556 H   0  0  0  0  0  0
    6.5368   27.1693    6.7164 H   0  0  0  0  0  0
    5.9635   27.1540    8.3001 H   0  0  0  0  0  0
    5.7588   24.6516    8.1770 H   0  0  0  0  0  0
    4.8347   23.8243    6.9268 H   0  0  0  0  0  0
    6.3811   24.5821    6.5394 H   0  0  0  0  0  0
  1  5  2  0  0  0
  1  2  1  0  0  0
  1 27  1  0  0  0
  2  3  2  0  0  0
  3  6  1  0  0  0
  3  4  1  0  0  0
  4  5  1  0  0  0
  5 17  1  0  0  0
  6  7  1  0  0  0
  6 28  1  0  0  0
  6 29  1  0  0  0
  7  8  1  0  0  0
  8  9  2  0  0  0
  8 12  1  0  0  0
  9 10  1  0  0  0
  9 30  1  0  0  0
 10 11  2  0  0  0
 11 13  1  0  0  0
 11 12  1  0  0  0
 13 14  1  0  0  0
 13 31  1  0  0  0
 14 15  1  0  0  0
 14 16  2  0  0  0
 15 21  1  0  0  0
 15 25  1  0  0  0
 15 32  1  0  0  0
 17 18  1  0  0  0
 17 19  1  0  0  0
 17 20  1  0  0  0
 18 33  1  0  0  0
 18 34  1  0  0  0
 18 35  1  0  0  0
 19 36  1  0  0  0
 19 37  1  0  0  0
 19 38  1  0  0  0
 20 39  1  0  0  0
 20 40  1  0  0  0
 20 41  1  0  0  0
 21 22  1  0  0  0
 21 42  1  0  0  0
 21 43  1  0  0  0
 22 23  1  0  0  0
 22 44  1  0  0  0
 22 45  1  0  0  0
 23 24  1  0  0  0
 23 46  1  0  0  0
 24 25  1  0  0  0
 24 26  1  0  0  0
 24 47  1  0  0  0
 25 48  1  0  0  0
 25 49  1  0  0  0
 26 50  1  0  0  0
 26 51  1  0  0  0
 26 52  1  0  0  0
M  END
> <s_m_entry_id>
33165

> <s_m_entry_name>
dock_pv.566

> <s_m_Source_Path>
/home/csk/Desktop/cluster/DUD-E-result/cdk2

> <s_m_Source_File>
dock_pv.maegz

> <i_m_Source_File_Index>
566

> <chembl_id>
CHEMBL455194

> <chembl_pref_name>
None

> <i_lp_mmshare_version>
53161

> <i_f3d_flags>
0

> <r_lp_tautomer_probability>
0.999000488399163

> <s_lp_Force_Field>
OPLS_2005

> <r_lp_Energy>
13.225023

> <b_lp_Chiralities_Consistent>
1

> <s_lp_Variant>
CHEMBL301_lig830-1

> <s_i_glide_gridfile>
glide-grid_1h00

> <i_i_glide_lignum>
1185

> <i_i_glide_rotatable_bonds>
7

> <r_i_docking_score>
-6.87116106920531

> <r_i_glide_ligand_efficiency>
-0.264275425738666

> <r_i_glide_ligand_efficiency_sa>
-0.78291490887721

> <r_i_glide_ligand_efficiency_ln>
-1.61366963098445

> <r_i_glide_gscore>
-6.87116106920531

> <r_i_glide_lipo>
-2.79528798522237

> <r_i_glide_hbond>
-0.3075194500761

> <r_i_glide_metal>
0

> <r_i_glide_rewards>
-2.10649968161342

> <r_i_glide_evdw>
-36.7670059204102

> <r_i_glide_ecoul>
-3.84563493728638

> <r_i_glide_erotb>
0.753341584320047

> <r_i_glide_esite>
0

> <r_i_glide_emodel>
-54.5531445441299

> <r_i_glide_energy>
-40.6126408576965

> <r_i_glide_einternal>
1.00819063186646

> <i_i_glide_confnum>
10

> <i_i_glide_posenum>
336

> <r_i_glide_eff_state_penalty>
0

> <s_user_duplicate_titles>
CHEMBL301_lig830

> <s_m_subgroup_title>
dock_pv

> <s_m_subgroupid>
dock_pv

> <b_m_subgroup_collapsed>
1

$$$$
CHEMBL301_lig51
                    3D
 Schrodinger Suite 2021-1.
 53 56  0  0  1  0            999 V2000
   -1.0687   24.8308   13.9871 O   0  0  0  0  0  0
   -1.6835   25.8805   13.7940 C   0  0  0  0  0  0
   -2.7440   26.2521   14.5319 N   0  0  0  0  0  0
   -3.3912   25.4404   15.5529 C   0  0  0  0  0  0
   -4.5923   24.7741   15.0276 C   0  0  0  0  0  0
   -5.5396   24.2523   14.6169 N   0  0  0  0  0  0
   -1.2713   26.8508   12.7147 C   0  0  0  0  0  0
   -2.2076   27.7131   12.1344 C   0  0  0  0  0  0
   -1.8188   28.6470   11.1855 C   0  0  0  0  0  0
   -0.4880   28.7322   10.7661 C   0  0  0  0  0  0
    0.4430   27.8411   11.3199 C   0  0  0  0  0  0
    0.0567   26.9073   12.2792 C   0  0  0  0  0  0
   -0.0939   29.7466    9.7441 C   0  0  0  0  0  0
   -0.7954   30.9506    9.5734 C   0  0  0  0  0  0
   -0.3533   31.8168    8.5753 C   0  0  0  0  0  0
    0.7037   31.5243    7.7760 N   0  0  0  0  0  0
    1.3423   30.3530    8.0189 C   0  0  0  0  0  0
    2.4355   30.1054    7.1865 N   0  0  0  0  0  0
    3.3509   29.0519    7.1178 C   0  0  0  0  0  0
    3.8998   28.4443    8.2468 C   0  0  0  0  0  0
    4.8718   27.4578    8.0933 C   0  0  0  0  0  0
    5.2913   27.0567    6.8168 C   0  0  0  0  0  0
    4.7096   27.6554    5.6972 C   0  0  0  0  0  0
    3.7573   28.6520    5.8496 C   0  0  0  0  0  0
    6.2963   26.1182    6.6214 N   0  0  0  0  0  0
    7.2867   25.7813    7.6525 C   0  0  0  0  0  0
    8.5989   25.2973    6.9973 C   0  0  0  0  0  0
    8.3320   24.1346    6.2234 O   0  0  0  0  0  0
    7.4032   24.3992    5.1779 C   0  0  0  0  0  0
    6.0768   24.9459    5.7557 C   0  0  0  0  0  0
    0.9925   29.4525    8.9757 N   0  0  0  0  0  0
   -3.1008   27.1975   14.4090 H   0  0  0  0  0  0
   -3.6801   26.0743   16.3914 H   0  0  0  0  0  0
   -2.7316   24.6652   15.9434 H   0  0  0  0  0  0
   -3.2496   27.6856   12.4163 H   0  0  0  0  0  0
   -2.5761   29.2982   10.7749 H   0  0  0  0  0  0
    1.4818   27.8753   11.0227 H   0  0  0  0  0  0
    0.8080   26.2514   12.6977 H   0  0  0  0  0  0
   -1.6402   31.2179   10.1907 H   0  0  0  0  0  0
   -0.8478   32.7612    8.3958 H   0  0  0  0  0  0
    2.6401   30.8542    6.5418 H   0  0  0  0  0  0
    3.6011   28.7486    9.2381 H   0  0  0  0  0  0
    5.3060   27.0197    8.9760 H   0  0  0  0  0  0
    5.0305   27.3865    4.7014 H   0  0  0  0  0  0
    3.3475   29.1251    4.9761 H   0  0  0  0  0  0
    7.5127   26.6518    8.2631 H   0  0  0  0  0  0
    6.8757   25.0338    8.3319 H   0  0  0  0  0  0
    9.3303   25.0521    7.7680 H   0  0  0  0  0  0
    9.0477   26.0822    6.3839 H   0  0  0  0  0  0
    7.2184   23.4734    4.6328 H   0  0  0  0  0  0
    7.8314   25.1012    4.4597 H   0  0  0  0  0  0
    5.5479   24.1729    6.3149 H   0  0  0  0  0  0
    5.4322   25.2068    4.9157 H   0  0  0  0  0  0
  1  2  2  0  0  0
  2  3  1  0  0  0
  2  7  1  0  0  0
  3  4  1  0  0  0
  3 32  1  0  0  0
  4  5  1  0  0  0
  4 33  1  0  0  0
  4 34  1  0  0  0
  5  6  3  0  0  0
  7  8  2  0  0  0
  7 12  1  0  0  0
  8  9  1  0  0  0
  8 35  1  0  0  0
  9 10  2  0  0  0
  9 36  1  0  0  0
 10 11  1  0  0  0
 10 13  1  0  0  0
 11 12  2  0  0  0
 11 37  1  0  0  0
 12 38  1  0  0  0
 13 14  2  0  0  0
 13 31  1  0  0  0
 14 15  1  0  0  0
 14 39  1  0  0  0
 15 16  2  0  0  0
 15 40  1  0  0  0
 16 17  1  0  0  0
 17 18  1  0  0  0
 17 31  2  0  0  0
 18 19  1  0  0  0
 18 41  1  0  0  0
 19 20  2  0  0  0
 19 24  1  0  0  0
 20 21  1  0  0  0
 20 42  1  0  0  0
 21 22  2  0  0  0
 21 43  1  0  0  0
 22 23  1  0  0  0
 22 25  1  0  0  0
 23 24  2  0  0  0
 23 44  1  0  0  0
 24 45  1  0  0  0
 25 26  1  0  0  0
 25 30  1  0  0  0
 26 27  1  0  0  0
 26 46  1  0  0  0
 26 47  1  0  0  0
 27 28  1  0  0  0
 27 48  1  0  0  0
 27 49  1  0  0  0
 28 29  1  0  0  0
 29 30  1  0  0  0
 29 50  1  0  0  0
 29 51  1  0  0  0
 30 52  1  0  0  0
 30 53  1  0  0  0
M  END
> <s_m_entry_id>
33166

> <s_m_entry_name>
dock_pv.567

> <s_m_Source_Path>
/home/csk/Desktop/cluster/DUD-E-result/cdk2

> <s_m_Source_File>
dock_pv.maegz

> <i_m_Source_File_Index>
567

> <chembl_id>
CHEMBL1078178

> <chembl_pref_name>
MOMELOTINIB

> <i_lp_mmshare_version>
53161

> <i_f3d_flags>
0

> <r_lp_tautomer_probability>
0.999999987636

> <s_lp_Force_Field>
OPLS_2005

> <r_lp_Energy>
21.899846

> <b_lp_Chiralities_Consistent>
1

> <s_lp_Variant>
CHEMBL301_lig51-1

> <s_i_glide_gridfile>
glide-grid_1h00

> <i_i_glide_lignum>
128

> <i_i_glide_rotatable_bonds>
7

> <r_i_docking_score>
-6.8706318044881

> <r_i_glide_ligand_efficiency>
-0.221633284015745

> <r_i_glide_ligand_efficiency_sa>
-0.696234509536075

> <r_i_glide_ligand_efficiency_ln>
-1.54953803148963

> <r_i_glide_gscore>
-6.8706318044881

> <r_i_glide_lipo>
-2.63641061323151

> <r_i_glide_hbond>
-0.313384197340862

> <r_i_glide_metal>
0

> <r_i_glide_rewards>
-1.22462319960434

> <r_i_glide_evdw>
-44.9561462402344

> <r_i_glide_ecoul>
-6.66530799865723

> <r_i_glide_erotb>
0.689419423516953

> <r_i_glide_esite>
-0.138029706018041

> <r_i_glide_emodel>
-73.5678703416838

> <r_i_glide_energy>
-51.6214542388916

> <r_i_glide_einternal>
2.4001030921936

> <i_i_glide_confnum>
17

> <i_i_glide_posenum>
396

> <r_i_glide_eff_state_penalty>
0

> <s_user_duplicate_titles>
CHEMBL301_lig51

> <s_m_subgroup_title>
dock_pv

> <s_m_subgroupid>
dock_pv

> <b_m_subgroup_collapsed>
1

$$$$
CHEMBL301_lig1319
                    3D
 Schrodinger Suite 2021-1.
 48 49  0  0  1  0            999 V2000
    0.1727   26.0773   11.2770 C   0  0  0  0  0  0
    0.0661   27.6049   11.1350 C   0  0  2  0  0  0
    0.4574   28.1971   12.3558 O   0  0  0  0  0  0
   -1.3355   28.1296   10.7006 C   0  0  1  0  0  0
   -2.4608   27.6469   11.6426 C   0  0  0  0  0  0
   -1.4255   29.5860   10.5599 N   0  0  0  0  0  0
   -0.7427   30.3782    9.6205 C   0  0  0  0  0  0
    0.2732   29.8576    8.8702 N   0  0  0  0  0  0
    0.9033   30.7043    8.0064 C   0  0  0  0  0  0
    2.0576   30.3159    7.3123 N   0  0  0  0  0  0
    2.9097   29.2074    7.4057 C   0  0  0  0  0  0
    3.6581   28.8677    6.2780 C   0  0  0  0  0  0
    4.4863   27.7551    6.2813 C   0  0  0  0  0  0
    4.5151   26.9270    7.4015 C   0  0  0  0  0  0
    3.7749   27.2639    8.5373 C   0  0  0  0  0  0
    3.0173   28.4299    8.5597 C   0  0  0  0  0  0
    5.4562   25.4033    7.3942 S   0  0  1  0  0  0
    6.7026   25.8016    8.1753 N   0  0  0  0  0  0
    4.5762   24.2948    7.7759 O   0  0  0  0  0  0
    6.1562   25.1237    5.6639 C   0  0  0  0  0  0
    5.0502   24.7271    4.6762 C   0  0  0  0  0  0
    5.5769   24.8665    3.3758 O   0  0  0  0  0  0
    0.5429   31.9901    7.7764 N   0  0  0  0  0  0
   -0.4696   32.4827    8.5309 C   0  0  0  0  0  0
   -1.1428   31.7150    9.4766 C   0  0  0  0  0  0
   -2.5429   32.5025   10.5100 Br  0  0  0  0  0  0
   -0.1364   25.5783   10.3582 H   0  0  0  0  0  0
   -0.4488   25.6979   12.0881 H   0  0  0  0  0  0
    1.1997   25.7727   11.4828 H   0  0  0  0  0  0
    0.7996   27.9087   10.3995 H   0  0  0  0  0  0
    1.3234   27.8526   12.6268 H   0  0  0  0  0  0
   -1.5417   27.7085    9.7152 H   0  0  0  0  0  0
   -2.5779   26.5638   11.6112 H   0  0  0  0  0  0
   -2.2642   27.9306   12.6770 H   0  0  0  0  0  0
   -3.4268   28.0778   11.3764 H   0  0  0  0  0  0
   -2.1209   30.0515   11.1285 H   0  0  0  0  0  0
    2.4016   31.0347    6.6940 H   0  0  0  0  0  0
    3.6006   29.4519    5.3761 H   0  0  0  0  0  0
    5.0568   27.5322    5.3931 H   0  0  0  0  0  0
    3.7419   26.5972    9.3761 H   0  0  0  0  0  0
    2.4779   28.6923    9.4497 H   0  0  0  0  0  0
    6.4734   25.9537    9.1546 H   0  0  0  0  0  0
    6.6948   26.0238    5.3668 H   0  0  0  0  0  0
    6.8835   24.3192    5.7582 H   0  0  0  0  0  0
    4.7089   23.7052    4.8507 H   0  0  0  0  0  0
    4.1779   25.3746    4.7676 H   0  0  0  0  0  0
    4.9055   24.6531    2.7106 H   0  0  0  0  0  0
   -0.7432   33.5104    8.3500 H   0  0  0  0  0  0
  1  2  1  0  0  0
  1 27  1  0  0  0
  1 28  1  0  0  0
  1 29  1  0  0  0
  2  3  1  0  0  0
  2  4  1  0  0  0
  2 30  1  0  0  0
  3 31  1  0  0  0
  4  5  1  0  0  0
  4  6  1  0  0  0
  4 32  1  0  0  0
  5 33  1  0  0  0
  5 34  1  0  0  0
  5 35  1  0  0  0
  6  7  1  0  0  0
  6 36  1  0  0  0
  7  8  2  0  0  0
  7 25  1  0  0  0
  8  9  1  0  0  0
  9 10  1  0  0  0
  9 23  2  0  0  0
 10 11  1  0  0  0
 10 37  1  0  0  0
 11 12  2  0  0  0
 11 16  1  0  0  0
 12 13  1  0  0  0
 12 38  1  0  0  0
 13 14  2  0  0  0
 13 39  1  0  0  0
 14 15  1  0  0  0
 14 17  1  0  0  0
 15 16  2  0  0  0
 15 40  1  0  0  0
 16 41  1  0  0  0
 17 18  2  0  0  0
 17 19  2  0  0  0
 17 20  1  0  0  0
 18 42  1  0  0  0
 20 21  1  0  0  0
 20 43  1  0  0  0
 20 44  1  0  0  0
 21 22  1  0  0  0
 21 45  1  0  0  0
 21 46  1  0  0  0
 22 47  1  0  0  0
 23 24  1  0  0  0
 24 25  2  0  0  0
 24 48  1  0  0  0
 25 26  1  0  0  0
M  END
> <s_m_entry_id>
33167

> <s_m_entry_name>
dock_pv.568

> <s_m_Source_Path>
/home/csk/Desktop/cluster/DUD-E-result/cdk2

> <s_m_Source_File>
dock_pv.maegz

> <i_m_Source_File_Index>
568

> <chembl_id>
CHEMBL3648110

> <chembl_pref_name>
None

> <i_lp_mmshare_version>
53161

> <i_f3d_flags>
0

> <r_lp_tautomer_probability>
0.999999624730965

> <s_lp_Force_Field>
OPLS_2005

> <r_lp_Energy>
2.321602

> <b_lp_Chiralities_Consistent>
1

> <s_lp_Variant>
CHEMBL301_lig1319-2

> <s_i_glide_gridfile>
glide-grid_1h00

> <i_i_glide_lignum>
1736

> <i_i_glide_rotatable_bonds>
10

> <r_i_docking_score>
-6.87039957669351

> <r_i_glide_ligand_efficiency>
-0.264246137565135

> <r_i_glide_ligand_efficiency_sa>
-0.782828142778369

> <r_i_glide_ligand_efficiency_ln>
-1.61349079696672

> <r_i_glide_gscore>
-6.87039957669351

> <r_i_glide_lipo>
-2.24760936560431

> <r_i_glide_hbond>
-0.569788939657248

> <r_i_glide_metal>
0

> <r_i_glide_rewards>
-1.10127000151142

> <r_i_glide_evdw>
-37.3672561645508

> <r_i_glide_ecoul>
-12.6245946884155

> <r_i_glide_erotb>
0.810320741569342

> <r_i_glide_esite>
0

> <r_i_glide_emodel>
-67.2417103806941

> <r_i_glide_energy>
-49.9918508529663

> <r_i_glide_einternal>
8.20137214660645

> <i_i_glide_confnum>
21

> <i_i_glide_posenum>
130

> <r_i_glide_eff_state_penalty>
0

> <s_user_duplicate_titles>
CHEMBL301_lig1319

> <s_m_subgroup_title>
dock_pv

> <s_m_subgroupid>
dock_pv

> <b_m_subgroup_collapsed>
1

$$$$
CHEMBL301_lig1419
                    3D
 Schrodinger Suite 2021-1.
 52 56  0  0  1  0            999 V2000
    4.1283   22.4314    3.3530 C   0  0  0  0  0  0
    4.2494   22.6221    4.8650 C   0  0  0  0  0  0
    4.1805   21.6098    5.5669 O   0  0  0  0  0  0
    4.5484   23.8505    5.3597 N   0  0  0  0  0  0
    4.7966   24.0136    6.8105 C   0  0  0  0  0  0
    6.1098   24.8204    6.9561 C   0  0  0  0  0  0
    6.0409   26.1796    6.2194 C   0  0  0  0  0  0
    5.7171   25.9076    4.7345 C   0  0  0  0  0  0
    4.4196   25.0855    4.5495 C   0  0  0  0  0  0
    5.1369   27.1602    6.8563 N   0  0  0  0  0  0
    4.9310   27.1122    8.1762 N   0  0  0  0  0  0
    4.0792   28.0750    8.4303 C   0  0  0  0  0  0
    3.7085   28.7976    7.2940 C   0  0  0  0  0  0
    4.4578   28.2109    6.2890 C   0  0  0  0  0  0
    2.8570   29.8568    7.1597 N   0  0  0  0  0  0
    1.7304   30.2119    7.9138 C   0  0  0  0  0  0
    1.3460   29.4466    8.9711 N   0  0  0  0  0  0
    0.1919   29.7600    9.6211 C   0  0  0  0  0  0
   -0.5511   30.8923    9.2264 C   0  0  0  0  0  0
   -0.0370   31.6598    8.1766 C   0  0  0  0  0  0
    1.0864   31.3250    7.4930 N   0  0  0  0  0  0
   -2.0432   31.3795    9.9549 Cl  0  0  0  0  0  0
   -0.1698   28.8174   10.7470 C   0  0  0  0  0  0
    0.3022   27.5210   10.9459 N   0  0  0  0  0  0
   -0.3475   27.0451   12.1078 C   0  0  0  0  0  0
   -1.1410   27.9903   12.6533 N   0  0  0  0  0  0
   -1.0139   29.0189   11.8496 C   0  0  0  0  0  0
   -0.1148   25.7246   12.5389 C   0  0  0  0  0  0
    0.7648   24.9178   11.8173 C   0  0  0  0  0  0
    1.4109   25.4036   10.6847 C   0  0  0  0  0  0
    1.1748   26.7070   10.2551 C   0  0  0  0  0  0
    3.2579   22.9567    2.9657 H   0  0  0  0  0  0
    4.0235   21.3764    3.1052 H   0  0  0  0  0  0
    5.0142   22.8075    2.8420 H   0  0  0  0  0  0
    3.9613   24.5680    7.2444 H   0  0  0  0  0  0
    4.8978   23.0653    7.3418 H   0  0  0  0  0  0
    6.3707   24.9670    8.0059 H   0  0  0  0  0  0
    6.9698   24.2487    6.6017 H   0  0  0  0  0  0
    7.0234   26.6517    6.2740 H   0  0  0  0  0  0
    6.5652   25.4081    4.2647 H   0  0  0  0  0  0
    5.6841   26.8374    4.1680 H   0  0  0  0  0  0
    4.2707   24.9076    3.4838 H   0  0  0  0  0  0
    3.5683   25.6520    4.9290 H   0  0  0  0  0  0
    3.7239   28.2516    9.4333 H   0  0  0  0  0  0
    4.5377   28.4354    5.2373 H   0  0  0  0  0  0
    3.0753   30.5474    6.4531 H   0  0  0  0  0  0
   -0.5294   32.5732    7.8700 H   0  0  0  0  0  0
   -1.5437   29.9299   12.0855 H   0  0  0  0  0  0
   -0.6105   25.3470   13.4200 H   0  0  0  0  0  0
    0.9536   23.9051   12.1416 H   0  0  0  0  0  0
    2.0951   24.7746   10.1346 H   0  0  0  0  0  0
    1.6589   27.0989    9.3793 H   0  0  0  0  0  0
  1  2  1  0  0  0
  1 32  1  0  0  0
  1 33  1  0  0  0
  1 34  1  0  0  0
  2  3  2  0  0  0
  2  4  1  0  0  0
  4  5  1  0  0  0
  4  9  1  0  0  0
  5  6  1  0  0  0
  5 35  1  0  0  0
  5 36  1  0  0  0
  6  7  1  0  0  0
  6 37  1  0  0  0
  6 38  1  0  0  0
  7  8  1  0  0  0
  7 10  1  0  0  0
  7 39  1  0  0  0
  8  9  1  0  0  0
  8 40  1  0  0  0
  8 41  1  0  0  0
  9 42  1  0  0  0
  9 43  1  0  0  0
 10 11  1  0  0  0
 10 14  1  0  0  0
 11 12  2  0  0  0
 12 13  1  0  0  0
 12 44  1  0  0  0
 13 14  2  0  0  0
 13 15  1  0  0  0
 14 45  1  0  0  0
 15 16  1  0  0  0
 15 46  1  0  0  0
 16 17  2  0  0  0
 16 21  1  0  0  0
 17 18  1  0  0  0
 18 19  2  0  0  0
 18 23  1  0  0  0
 19 20  1  0  0  0
 19 22  1  0  0  0
 20 21  2  0  0  0
 20 47  1  0  0  0
 23 24  1  0  0  0
 23 27  2  0  0  0
 24 25  1  0  0  0
 24 31  1  0  0  0
 25 26  2  0  0  0
 25 28  1  0  0  0
 26 27  1  0  0  0
 27 48  1  0  0  0
 28 29  2  0  0  0
 28 49  1  0  0  0
 29 30  1  0  0  0
 29 50  1  0  0  0
 30 31  2  0  0  0
 30 51  1  0  0  0
 31 52  1  0  0  0
M  END
> <s_m_entry_id>
33168

> <s_m_entry_name>
dock_pv.569

> <s_m_Source_Path>
/home/csk/Desktop/cluster/DUD-E-result/cdk2

> <s_m_Source_File>
dock_pv.maegz

> <i_m_Source_File_Index>
569

> <chembl_id>
CHEMBL3823659

> <chembl_pref_name>
None

> <i_lp_mmshare_version>
53161

> <i_f3d_flags>
0

> <r_lp_tautomer_probability>
0.999999987636

> <s_lp_Force_Field>
OPLS_2005

> <r_lp_Energy>
30.075887

> <b_lp_Chiralities_Consistent>
1

> <s_lp_Variant>
CHEMBL301_lig1419-1

> <s_i_glide_gridfile>
glide-grid_1h00

> <i_i_glide_lignum>
1931

> <i_i_glide_rotatable_bonds>
5

> <r_i_docking_score>
-6.86788573379751

> <r_i_glide_ligand_efficiency>
-0.221544701090242

> <r_i_glide_ligand_efficiency_sa>
-0.695956236848087

> <r_i_glide_ligand_efficiency_ln>
-1.54891870839194

> <r_i_glide_gscore>
-6.86788573379751

> <r_i_glide_lipo>
-2.35757167334228

> <r_i_glide_hbond>
-0.207273574778763

> <r_i_glide_metal>
0

> <r_i_glide_rewards>
-1.68128547476546

> <r_i_glide_evdw>
-49.3012733459473

> <r_i_glide_ecoul>
-3.76397919654846

> <r_i_glide_erotb>
0.417787828476321

> <r_i_glide_esite>
-0.00988229260770098

> <r_i_glide_emodel>
-73.8108192978598

> <r_i_glide_energy>
-53.0652525424957

> <r_i_glide_einternal>
2.92835426330566

> <i_i_glide_confnum>
35

> <i_i_glide_posenum>
270

> <r_i_glide_eff_state_penalty>
0

> <s_user_duplicate_titles>
CHEMBL301_lig1419

> <s_m_subgroup_title>
dock_pv

> <s_m_subgroupid>
dock_pv

> <b_m_subgroup_collapsed>
1

$$$$
CHEMBL301_lig1418
                    3D
 Schrodinger Suite 2021-1.
 58 62  0  0  1  0            999 V2000
   -1.4462   26.6387   11.5707 C   0  0  0  0  0  0
   -2.0468   27.9074   11.4189 N   0  0  0  0  0  0
   -1.8297   29.0125   10.5843 C   0  0  0  0  0  0
   -0.6670   29.1242    9.9057 N   0  0  0  0  0  0
   -0.4319   30.2798    9.2289 C   0  0  0  0  0  0
   -1.3522   31.3458    9.2705 C   0  0  0  0  0  0
   -2.5509   31.1112    9.9420 C   0  0  0  0  0  0
   -2.8112   29.9439   10.5762 N   0  0  0  0  0  0
    1.9384   29.3346    8.6266 C   0  0  0  0  0  0
    2.2770   28.2519    9.4607 C   0  0  0  0  0  0
    3.4350   27.5199    9.2051 C   0  0  0  0  0  0
    4.3037   27.8766    8.1770 C   0  0  0  0  0  0
    3.9968   28.9628    7.3650 C   0  0  0  0  0  0
    2.8312   29.6459    7.5930 N   0  0  0  0  0  0
    2.3797   30.6623    6.8419 N   0  0  0  0  0  0
    1.2551   31.0364    7.3912 C   0  0  0  0  0  0
    0.8495   30.2440    8.4643 C   0  0  0  0  0  0
   -1.0764   32.9045    8.5761 Cl  0  0  0  0  0  0
   -1.8201   25.8525   12.6746 C   0  0  0  0  0  0
   -1.2593   24.5748   12.8323 C   0  0  0  0  0  0
   -0.3585   24.0332   11.9046 C   0  0  0  0  0  0
    0.0240   24.8501   10.8307 C   0  0  0  0  0  0
   -0.5240   26.1212   10.6540 C   0  0  0  0  0  0
    0.1552   22.7421   12.0714 N   0  0  0  0  0  0
    1.2022   22.1722   11.1952 C   0  0  0  0  0  0
    1.7011   20.7368   11.5311 C   0  0  0  0  0  0
    1.6497   20.5419   12.9884 N   0  0  0  0  0  0
    0.3354   20.7363   13.6299 C   0  0  0  0  0  0
   -0.5713   21.6683   12.7784 C   0  0  0  0  0  0
   -2.7405   26.3844   13.5623 O   0  0  0  0  0  0
   -3.1764   25.6327   14.6866 C   0  0  0  0  0  0
    2.7424   20.2517   13.7428 C   0  0  0  0  0  0
    2.7286   20.2488   14.9764 O   0  0  0  0  0  0
    4.0356   19.8111   13.0511 C   0  0  0  0  0  0
   -2.8042   28.0593   12.0728 H   0  0  0  0  0  0
   -3.3170   31.8716   10.0055 H   0  0  0  0  0  0
    1.6379   27.9677   10.2823 H   0  0  0  0  0  0
    3.6581   26.6635    9.8236 H   0  0  0  0  0  0
    5.2072   27.3061    8.0114 H   0  0  0  0  0  0
    4.6144   29.2983    6.5431 H   0  0  0  0  0  0
    0.7061   31.8652    6.9763 H   0  0  0  0  0  0
   -1.5314   23.9959   13.6981 H   0  0  0  0  0  0
    0.7280   24.4978   10.0901 H   0  0  0  0  0  0
   -0.2354   26.6812    9.7811 H   0  0  0  0  0  0
    0.8581   22.1718   10.1624 H   0  0  0  0  0  0
    2.0593   22.8344   11.3212 H   0  0  0  0  0  0
    2.6518   20.5044   11.0495 H   0  0  0  0  0  0
    0.9846   20.0200   11.1237 H   0  0  0  0  0  0
   -0.1726   19.7885   13.8193 H   0  0  0  0  0  0
    0.4921   21.2636   14.5737 H   0  0  0  0  0  0
   -1.0227   21.0751   11.9804 H   0  0  0  0  0  0
   -1.4117   22.0150   13.3766 H   0  0  0  0  0  0
   -3.9039   26.2205   15.2457 H   0  0  0  0  0  0
   -3.6649   24.7060   14.3816 H   0  0  0  0  0  0
   -2.3495   25.4048   15.3602 H   0  0  0  0  0  0
    4.5330   20.6520   12.5739 H   0  0  0  0  0  0
    3.8316   19.0462   12.3029 H   0  0  0  0  0  0
    4.7245   19.3797   13.7765 H   0  0  0  0  0  0
  1  2  1  0  0  0
  1 19  2  0  0  0
  1 23  1  0  0  0
  2  3  1  0  0  0
  2 35  1  0  0  0
  3  4  1  0  0  0
  3  8  2  0  0  0
  4  5  2  0  0  0
  5  6  1  0  0  0
  5 17  1  0  0  0
  6  7  2  0  0  0
  6 18  1  0  0  0
  7  8  1  0  0  0
  7 36  1  0  0  0
  9 10  1  0  0  0
  9 14  1  0  0  0
  9 17  2  0  0  0
 10 11  2  0  0  0
 10 37  1  0  0  0
 11 12  1  0  0  0
 11 38  1  0  0  0
 12 13  2  0  0  0
 12 39  1  0  0  0
 13 14  1  0  0  0
 13 40  1  0  0  0
 14 15  1  0  0  0
 15 16  2  0  0  0
 16 17  1  0  0  0
 16 41  1  0  0  0
 19 20  1  0  0  0
 19 30  1  0  0  0
 20 21  2  0  0  0
 20 42  1  0  0  0
 21 22  1  0  0  0
 21 24  1  0  0  0
 22 23  2  0  0  0
 22 43  1  0  0  0
 23 44  1  0  0  0
 24 25  1  0  0  0
 24 29  1  0  0  0
 25 26  1  0  0  0
 25 45  1  0  0  0
 25 46  1  0  0  0
 26 27  1  0  0  0
 26 47  1  0  0  0
 26 48  1  0  0  0
 27 28  1  0  0  0
 27 32  1  0  0  0
 28 29  1  0  0  0
 28 49  1  0  0  0
 28 50  1  0  0  0
 29 51  1  0  0  0
 29 52  1  0  0  0
 30 31  1  0  0  0
 31 53  1  0  0  0
 31 54  1  0  0  0
 31 55  1  0  0  0
 32 33  2  0  0  0
 32 34  1  0  0  0
 34 56  1  0  0  0
 34 57  1  0  0  0
 34 58  1  0  0  0
M  END
> <s_m_entry_id>
33169

> <s_m_entry_name>
dock_pv.570

> <s_m_Source_Path>
/home/csk/Desktop/cluster/DUD-E-result/cdk2

> <s_m_Source_File>
dock_pv.maegz

> <i_m_Source_File_Index>
570

> <chembl_id>
CHEMBL3823297

> <chembl_pref_name>
None

> <i_lp_mmshare_version>
53161

> <i_f3d_flags>
0

> <r_lp_tautomer_probability>
0.999999987636

> <s_lp_Force_Field>
OPLS_2005

> <r_lp_Energy>
46.655132

> <b_lp_Chiralities_Consistent>
1

> <s_lp_Variant>
CHEMBL301_lig1418-1

> <s_i_glide_gridfile>
glide-grid_1h00

> <i_i_glide_lignum>
1930

> <i_i_glide_rotatable_bonds>
6

> <r_i_docking_score>
-6.86339904631464

> <r_i_glide_ligand_efficiency>
-0.201864677832783

> <r_i_glide_ligand_efficiency_sa>
-0.653963191799459

> <r_i_glide_ligand_efficiency_ln>
-1.51631736115334

> <r_i_glide_gscore>
-6.86339904631464

> <r_i_glide_lipo>
-3.15242697369523

> <r_i_glide_hbond>
-0.30829365795036

> <r_i_glide_metal>
0

> <r_i_glide_rewards>
-0.656936348792765

> <r_i_glide_evdw>
-46.2511787414551

> <r_i_glide_ecoul>
-4.69619274139404

> <r_i_glide_erotb>
0.35478102208216

> <r_i_glide_esite>
-0.0835352396765784

> <r_i_glide_emodel>
-68.8685286528219

> <r_i_glide_energy>
-50.9473714828491

> <r_i_glide_einternal>
3.12860870361328

> <i_i_glide_confnum>
26

> <i_i_glide_posenum>
166

> <r_i_glide_eff_state_penalty>
0

> <s_user_duplicate_titles>
CHEMBL301_lig1418

> <s_m_subgroup_title>
dock_pv

> <s_m_subgroupid>
dock_pv

> <b_m_subgroup_collapsed>
1

$$$$
CHEMBL301_lig1310
                    3D
 Schrodinger Suite 2021-1.
 27 30  0  0  1  0            999 V2000
    2.7982   27.4187    9.5031 N   0  0  0  0  0  0
    2.3542   28.6039    8.9758 C   0  0  0  0  0  0
    1.0464   29.1002    9.2596 C   0  0  0  0  0  0
    0.2222   28.3007   10.0747 C   0  0  0  0  0  0
   -1.0042   28.8883   10.2560 N   0  0  0  0  0  0
    0.2578   30.2429    8.9371 C   0  0  0  0  0  0
    0.4804   31.4083    8.1761 C   0  0  0  0  0  0
   -0.4561   32.4352    8.2210 C   0  0  0  0  0  0
   -1.6761   32.2600    8.8653 C   0  0  0  0  0  0
   -2.0032   31.0745    9.5111 C   0  0  0  0  0  0
   -1.0068   30.0976    9.5943 C   0  0  0  0  0  0
    3.3734   29.2395    8.0574 C   0  0  0  0  0  0
    4.5870   29.1651    8.2427 O   0  0  0  0  0  0
    2.8580   29.8520    6.9598 O   0  0  0  0  0  0
   -3.5771   30.8438   10.1758 Cl  0  0  0  0  0  0
    0.6760   27.0731   10.5764 C   0  0  0  0  0  0
    1.9889   26.6706   10.2604 C   0  0  0  0  0  0
    2.3021   25.4052   10.8232 C   0  0  0  0  0  0
    1.2451   24.8801   11.5445 C   0  0  0  0  0  0
   -0.1757   25.9023   11.5709 S   0  0  0  0  0  0
   -1.7624   28.5169   10.8098 H   0  0  0  0  0  0
    1.4112   31.5856    7.6662 H   0  0  0  0  0  0
   -0.2524   33.3709    7.7192 H   0  0  0  0  0  0
   -2.4064   33.0521    8.8397 H   0  0  0  0  0  0
    3.5729   30.3044    6.4899 H   0  0  0  0  0  0
    3.2583   24.9242   10.6959 H   0  0  0  0  0  0
    1.2239   23.9375   12.0703 H   0  0  0  0  0  0
  1  2  2  0  0  0
  1 17  1  0  0  0
  2  3  1  0  0  0
  2 12  1  0  0  0
  3  4  2  0  0  0
  3  6  1  0  0  0
  4 16  1  0  0  0
  4  5  1  0  0  0
  5 11  1  0  0  0
  5 21  1  0  0  0
  6  7  1  0  0  0
  6 11  2  0  0  0
  7  8  2  0  0  0
  7 22  1  0  0  0
  8  9  1  0  0  0
  8 23  1  0  0  0
  9 10  2  0  0  0
  9 24  1  0  0  0
 10 11  1  0  0  0
 10 15  1  0  0  0
 12 13  2  0  0  0
 12 14  1  0  0  0
 14 25  1  0  0  0
 16 17  2  0  0  0
 16 20  1  0  0  0
 17 18  1  0  0  0
 18 19  2  0  0  0
 18 26  1  0  0  0
 19 20  1  0  0  0
 19 27  1  0  0  0
M  END
> <s_m_entry_id>
33170

> <s_m_entry_name>
dock_pv.571

> <s_m_Source_Path>
/home/csk/Desktop/cluster/DUD-E-result/cdk2

> <s_m_Source_File>
dock_pv.maegz

> <i_m_Source_File_Index>
571

> <chembl_id>
CHEMBL3589774

> <chembl_pref_name>
None

> <i_lp_mmshare_version>
53161

> <i_f3d_flags>
0

> <r_lp_tautomer_probability>
1

> <s_lp_Force_Field>
OPLS_2005

> <r_lp_Energy>
42.346856

> <b_lp_Chiralities_Consistent>
1

> <s_lp_Variant>
CHEMBL301_lig1310-1

> <s_i_glide_gridfile>
glide-grid_1h00

> <i_i_glide_lignum>
1726

> <i_i_glide_rotatable_bonds>
2

> <r_i_docking_score>
-6.85787362936027

> <r_i_glide_ligand_efficiency>
-0.342893681468014

> <r_i_glide_ligand_efficiency_sa>
-0.930756648666426

> <r_i_glide_ligand_efficiency_ln>
-1.7162995816185

> <r_i_glide_gscore>
-6.85787362936027

> <r_i_glide_lipo>
-2.43790419112393

> <r_i_glide_hbond>
0

> <r_i_glide_metal>
0

> <r_i_glide_rewards>
-2.20660831801234

> <r_i_glide_evdw>
-32.3334579467773

> <r_i_glide_ecoul>
-3.97792148590088

> <r_i_glide_erotb>
0

> <r_i_glide_esite>
0

> <r_i_glide_emodel>
-51.2586953947555

> <r_i_glide_energy>
-36.3113794326782

> <r_i_glide_einternal>
0.912491202354431

> <i_i_glide_confnum>
1

> <i_i_glide_posenum>
4

> <r_i_glide_eff_state_penalty>
0

> <s_user_duplicate_titles>
CHEMBL301_lig1310

> <s_m_subgroup_title>
dock_pv

> <s_m_subgroupid>
dock_pv

> <b_m_subgroup_collapsed>
1

$$$$
CHEMBL301_lig760
                    3D
 Schrodinger Suite 2021-1.
 42 44  0  0  1  0            999 V2000
    3.0244   27.8838    8.9603 C   0  0  0  0  0  0
    4.3182   27.4707    8.5766 C   0  0  0  0  0  0
    4.9248   28.3026    7.7718 N   0  0  0  0  0  0
    4.0271   29.2649    7.5832 N   0  0  0  0  0  0
    2.8559   29.1038    8.2802 C   0  0  0  0  0  0
    1.7171   29.9679    8.0666 C   0  0  0  0  0  0
    1.6534   30.7002    7.0778 O   0  0  0  0  0  0
    0.7416   29.8684    8.9853 N   0  0  0  0  0  0
   -0.5639   30.5367    8.9461 C   0  0  0  0  0  0
    2.1016   27.2350    9.7791 N   0  0  0  0  0  0
    2.0584   25.9093   10.0466 C   0  0  0  0  0  0
    2.8574   25.0773    9.6107 O   0  0  0  0  0  0
    0.9129   25.4564   10.9237 C   0  0  0  0  0  0
   -0.3928   25.9462   10.7367 C   0  0  0  0  0  0
   -1.4423   25.4950   11.5339 C   0  0  0  0  0  0
   -1.2135   24.5422   12.5215 C   0  0  0  0  0  0
    0.0663   24.0346   12.7066 C   0  0  0  0  0  0
    1.1257   24.4853   11.9193 C   0  0  0  0  0  0
    2.3570   23.9709   12.1568 F   0  0  0  0  0  0
   -0.6707   26.8532    9.7753 F   0  0  0  0  0  0
   -1.5057   30.0563   10.0692 C   0  0  0  0  0  0
   -2.8397   30.8110   10.1220 C   0  0  0  0  0  0
   -2.5952   32.2426   10.2280 N   0  0  1  0  0  0
   -1.9422   32.7428    9.0273 C   0  0  0  0  0  0
   -0.5881   32.0802    8.7714 C   0  0  0  0  0  0
    4.8105   26.5668    8.9059 H   0  0  0  0  0  0
    4.2085   30.0461    6.9576 H   0  0  0  0  0  0
    1.0156   29.5216    9.8902 H   0  0  0  0  0  0
   -1.0599   30.1821    8.0418 H   0  0  0  0  0  0
    1.3128   27.7740   10.0935 H   0  0  0  0  0  0
   -2.4399   25.8789   11.3780 H   0  0  0  0  0  0
   -2.0287   24.1924   13.1367 H   0  0  0  0  0  0
    0.2457   23.2928   13.4700 H   0  0  0  0  0  0
   -1.0297   30.1677   11.0456 H   0  0  0  0  0  0
   -1.7322   28.9997    9.9444 H   0  0  0  0  0  0
   -3.4253   30.4757   10.9758 H   0  0  0  0  0  0
   -3.4318   30.6071    9.2279 H   0  0  0  0  0  0
   -3.4724   32.7300   10.3673 H   0  0  0  0  0  0
   -1.7947   33.8182    9.1715 H   0  0  0  0  0  0
   -2.6076   32.6401    8.1728 H   0  0  0  0  0  0
   -0.2448   32.3645    7.7772 H   0  0  0  0  0  0
    0.0579   32.5878    9.4709 H   0  0  0  0  0  0
  1  5  2  0  0  0
  1  2  1  0  0  0
  1 10  1  0  0  0
  2 26  1  0  0  0
  2  3  2  0  0  0
  3  4  1  0  0  0
  4 27  1  0  0  0
  4  5  1  0  0  0
  5  6  1  0  0  0
  6  7  2  0  0  0
  6  8  1  0  0  0
  8  9  1  0  0  0
  8 28  1  0  0  0
  9 21  1  0  0  0
  9 25  1  0  0  0
  9 29  1  0  0  0
 10 11  1  0  0  0
 10 30  1  0  0  0
 11 13  1  0  0  0
 11 12  2  0  0  0
 13 14  2  0  0  0
 13 18  1  0  0  0
 14 15  1  0  0  0
 14 20  1  0  0  0
 15 16  2  0  0  0
 15 31  1  0  0  0
 16 17  1  0  0  0
 16 32  1  0  0  0
 17 18  2  0  0  0
 17 33  1  0  0  0
 18 19  1  0  0  0
 21 22  1  0  0  0
 21 34  1  0  0  0
 21 35  1  0  0  0
 22 23  1  0  0  0
 22 36  1  0  0  0
 22 37  1  0  0  0
 23 24  1  0  0  0
 23 38  1  0  0  0
 24 25  1  0  0  0
 24 39  1  0  0  0
 24 40  1  0  0  0
 25 41  1  0  0  0
 25 42  1  0  0  0
M  END
> <s_m_entry_id>
33171

> <s_m_entry_name>
dock_pv.572

> <s_m_Source_Path>
/home/csk/Desktop/cluster/DUD-E-result/cdk2

> <s_m_Source_File>
dock_pv.maegz

> <i_m_Source_File_Index>
572

> <chembl_id>
CHEMBL457388

> <chembl_pref_name>
None

> <i_lp_mmshare_version>
53161

> <i_f3d_flags>
0

> <r_lp_tautomer_probability>
0.5

> <s_lp_Force_Field>
OPLS_2005

> <r_lp_Energy>
34.878374

> <b_lp_Chiralities_Consistent>
1

> <s_lp_Variant>
CHEMBL301_lig760-2

> <s_i_glide_gridfile>
glide-grid_1h00

> <i_i_glide_lignum>
1083

> <i_i_glide_rotatable_bonds>
6

> <r_i_docking_score>
-6.85426489514552

> <r_i_glide_ligand_efficiency>
-0.274170595805821

> <r_i_glide_ligand_efficiency_sa>
-0.801679684572441

> <r_i_glide_ligand_efficiency_ln>
-1.62466618589317

> <r_i_glide_gscore>
-6.85426489514552

> <r_i_glide_lipo>
-2.30952180197691

> <r_i_glide_hbond>
-0.32

> <r_i_glide_metal>
0

> <r_i_glide_rewards>
-2.46470506677294

> <r_i_glide_evdw>
-37.7541732788086

> <r_i_glide_ecoul>
-5.08575582504272

> <r_i_glide_erotb>
0.936492609615928

> <r_i_glide_esite>
-0.0459585983147625

> <r_i_glide_emodel>
-58.7201835363268

> <r_i_glide_energy>
-42.8399291038513

> <r_i_glide_einternal>
4.41746044158936

> <i_i_glide_confnum>
28

> <i_i_glide_posenum>
297

> <r_i_glide_eff_state_penalty>
0

> <s_user_duplicate_titles>
CHEMBL301_lig760,512386

> <s_m_subgroup_title>
dock_pv

> <s_m_subgroupid>
dock_pv

> <b_m_subgroup_collapsed>
1

$$$$
CHEMBL301_lig184
                    3D
 Schrodinger Suite 2021-1.
 48 52  0  0  1  0            999 V2000
    0.9991   29.4041    8.9735 C   0  0  0  0  0  0
    5.0591   27.0475    7.7803 C   0  0  0  0  0  0
    1.1517   30.4653    7.9809 C   0  0  0  0  0  0
    3.2093   28.0820    8.5855 C   0  0  0  0  0  0
    1.9084   28.4106    9.1690 C   0  0  0  0  0  0
    3.8447   26.8428    8.4560 C   0  0  0  0  0  0
   -0.3295   29.6228    9.5940 C   0  0  0  0  0  0
    0.0625   31.2298    8.0829 N   0  0  0  0  0  0
    5.1572   28.3995    7.5202 C   0  0  0  0  0  0
   -0.8445   30.7494    8.9772 C   0  0  0  0  0  0
    4.0450   29.0135    8.0226 N   0  0  0  0  0  0
    5.9910   25.9616    7.4575 C   0  0  0  0  0  0
   -1.1055   28.9617   10.5756 C   0  0  0  0  0  0
    5.4723   24.6945    7.5979 O   0  0  0  0  0  0
    2.0577   30.6909    7.1843 O   0  0  0  0  0  0
    7.1687   26.0512    7.1205 O   0  0  0  0  0  0
   -0.8562   25.1343   12.7495 N   0  0  1  0  0  0
   -0.6107   27.7359   11.3616 C   0  0  0  0  0  0
    3.3878   25.4324    8.7837 C   0  0  0  0  0  0
    4.0579   24.4994    7.7488 C   0  0  0  0  0  0
   -2.1077   31.2545    9.2545 C   0  0  0  0  0  0
   -2.3982   29.4522   10.8289 C   0  0  0  0  0  0
   -2.8948   30.5820   10.1760 C   0  0  0  0  0  0
   -0.6082   26.3521   13.5228 C   0  0  0  0  0  0
   -0.3166   25.1975   11.3911 C   0  0  0  0  0  0
   -1.1476   27.6079   12.8092 C   0  0  0  0  0  0
   -0.8615   26.4128   10.6110 C   0  0  0  0  0  0
    1.6450   27.6401    9.8711 H   0  0  0  0  0  0
   -0.0685   32.0584    7.5241 H   0  0  0  0  0  0
    5.9035   28.9736    6.9955 H   0  0  0  0  0  0
    3.8202   29.9942    7.9115 H   0  0  0  0  0  0
   -0.4811   24.3317   13.2336 H   0  0  0  0  0  0
    0.4582   27.9003   11.4861 H   0  0  0  0  0  0
    2.3048   25.3293    8.7332 H   0  0  0  0  0  0
    3.6573   25.1422    9.7963 H   0  0  0  0  0  0
    3.8719   23.4614    8.0209 H   0  0  0  0  0  0
    3.5907   24.6435    6.7723 H   0  0  0  0  0  0
   -2.4897   32.1364    8.7610 H   0  0  0  0  0  0
   -3.0492   28.9819   11.5484 H   0  0  0  0  0  0
   -3.8832   30.9473   10.4146 H   0  0  0  0  0  0
    0.4615   26.4509   13.7012 H   0  0  0  0  0  0
   -1.0847   26.2448   14.4979 H   0  0  0  0  0  0
    0.7748   25.2436   11.4453 H   0  0  0  0  0  0
   -0.5747   24.2729   10.8717 H   0  0  0  0  0  0
   -0.8293   28.4763   13.3861 H   0  0  0  0  0  0
   -2.2352   27.5643   12.8684 H   0  0  0  0  0  0
   -1.9229   26.2585   10.4052 H   0  0  0  0  0  0
   -0.3506   26.4282    9.6484 H   0  0  0  0  0  0
  1  3  1  0  0  0
  1  5  2  0  0  0
  1  7  1  0  0  0
  2  6  1  0  0  0
  2 12  1  0  0  0
  2  9  2  0  0  0
  3  8  1  0  0  0
  3 15  2  0  0  0
  4  5  1  0  0  0
  4  6  2  0  0  0
  4 11  1  0  0  0
  5 28  1  0  0  0
  6 19  1  0  0  0
  7 10  2  0  0  0
  7 13  1  0  0  0
  8 10  1  0  0  0
  8 29  1  0  0  0
  9 11  1  0  0  0
  9 30  1  0  0  0
 10 21  1  0  0  0
 11 31  1  0  0  0
 12 16  2  0  0  0
 12 14  1  0  0  0
 13 18  1  0  0  0
 13 22  2  0  0  0
 14 20  1  0  0  0
 17 25  1  0  0  0
 17 24  1  0  0  0
 17 32  1  0  0  0
 18 26  1  0  0  0
 18 27  1  0  0  0
 18 33  1  0  0  0
 19 20  1  0  0  0
 19 34  1  0  0  0
 19 35  1  0  0  0
 20 36  1  0  0  0
 20 37  1  0  0  0
 21 23  2  0  0  0
 21 38  1  0  0  0
 22 23  1  0  0  0
 22 39  1  0  0  0
 23 40  1  0  0  0
 24 26  1  0  0  0
 24 41  1  0  0  0
 24 42  1  0  0  0
 25 27  1  0  0  0
 25 43  1  0  0  0
 25 44  1  0  0  0
 26 45  1  0  0  0
 26 46  1  0  0  0
 27 47  1  0  0  0
 27 48  1  0  0  0
M  END
> <s_m_entry_id>
33172

> <s_m_entry_name>
dock_pv.573

> <s_m_Source_Path>
/home/csk/Desktop/cluster/DUD-E-result/cdk2

> <s_m_Source_File>
dock_pv.maegz

> <i_m_Source_File_Index>
573

> <chembl_id>
CHEMBL58224

> <chembl_pref_name>
None

> <i_lp_mmshare_version>
53161

> <i_f3d_flags>
0

> <r_lp_tautomer_probability>
1

> <s_lp_Force_Field>
OPLS_2005

> <r_lp_Energy>
53.193727

> <b_lp_Chiralities_Consistent>
1

> <s_lp_Variant>
CHEMBL301_lig184-1

> <s_i_glide_gridfile>
glide-grid_1h00

> <i_i_glide_lignum>
325

> <i_i_glide_rotatable_bonds>
2

> <r_i_docking_score>
-6.85140544409703

> <r_i_glide_ligand_efficiency>
-0.253755757188779

> <r_i_glide_ligand_efficiency_sa>
-0.761267270729999

> <r_i_glide_ligand_efficiency_ln>
-1.59489423313919

> <r_i_glide_gscore>
-6.85140544409703

> <r_i_glide_lipo>
-2.87941615881129

> <r_i_glide_hbond>
0

> <r_i_glide_metal>
0

> <r_i_glide_rewards>
-1.73684638703037

> <r_i_glide_evdw>
-40.9063110351562

> <r_i_glide_ecoul>
-2.2353847026825

> <r_i_glide_erotb>
0.145480358904815

> <r_i_glide_esite>
0

> <r_i_glide_emodel>
-59.0329787824469

> <r_i_glide_energy>
-43.1416957378387

> <r_i_glide_einternal>
1.80887138843536

> <i_i_glide_confnum>
2

> <i_i_glide_posenum>
74

> <r_i_glide_eff_state_penalty>
0

> <s_user_duplicate_titles>
CHEMBL301_lig184,91414

> <s_m_subgroup_title>
dock_pv

> <s_m_subgroupid>
dock_pv

> <b_m_subgroup_collapsed>
1

$$$$
CHEMBL301_lig272
                    3D
 Schrodinger Suite 2021-1.
 45 47  0  0  1  0            999 V2000
   -0.1501   30.5424    8.8386 C   0  0  0  0  0  0
    0.0572   29.3287    9.5185 C   0  0  0  0  0  0
   -0.9164   28.7729   10.3649 C   0  0  0  0  0  0
    0.9085   31.0520    7.9126 C   0  0  0  0  0  0
    2.0688   30.1980    7.8129 C   0  0  0  0  0  0
    2.2089   29.1003    8.5760 C   0  0  0  0  0  0
   -1.3197   31.2638    9.1088 C   0  0  0  0  0  0
   -2.0968   29.5047   10.5645 C   0  0  0  0  0  0
    1.2570   28.6484    9.4206 O   0  0  0  0  0  0
   -0.6400   27.4322   11.0931 C   0  0  1  0  0  0
   -2.2824   30.7395    9.9578 C   0  0  0  0  0  0
   -0.2233   27.5923   12.5768 C   0  0  2  0  0  0
   -0.9436   25.1875   12.9964 N   0  0  1  0  0  0
   -1.7055   26.3298   10.9175 C   0  0  0  0  0  0
    0.0602   26.2305   13.2642 C   0  0  0  0  0  0
    0.8578   32.1550    7.3759 O   0  0  0  0  0  0
    3.5805   27.9641    8.6708 S   0  0  0  0  0  0
   -1.2311   25.0154   11.5685 C   0  0  0  0  0  0
   -1.5453   32.5046    8.5769 O   0  0  0  0  0  0
   -3.0947   29.0518   11.3760 O   0  0  0  0  0  0
   -1.1420   28.3351   13.3508 O   0  0  0  0  0  0
   -0.5442   23.9195   13.5988 C   0  0  0  0  0  0
    4.7983   28.5969    7.4781 C   0  0  0  0  0  0
    4.4559   28.3583    6.0006 C   0  0  0  0  0  0
    2.8580   30.4948    7.1483 H   0  0  0  0  0  0
    0.2307   26.9942   10.6043 H   0  0  0  0  0  0
   -3.1830   31.3054   10.1486 H   0  0  0  0  0  0
    0.6935   28.1840   12.5781 H   0  0  0  0  0  0
   -2.6763   26.5907   11.3377 H   0  0  0  0  0  0
   -1.8503   26.1252    9.8564 H   0  0  0  0  0  0
    1.0277   25.8578   12.9226 H   0  0  0  0  0  0
    0.1556   26.3677   14.3423 H   0  0  0  0  0  0
   -0.3436   24.6320   11.0609 H   0  0  0  0  0  0
   -1.9955   24.2516   11.4470 H   0  0  0  0  0  0
   -0.7965   32.7832    8.0343 H   0  0  0  0  0  0
   -3.5153   29.7665   11.8890 H   0  0  0  0  0  0
   -2.0109   28.2900   12.9324 H   0  0  0  0  0  0
    0.3795   23.5391   13.1593 H   0  0  0  0  0  0
   -0.3862   24.0354   14.6720 H   0  0  0  0  0  0
   -1.3205   23.1654   13.4624 H   0  0  0  0  0  0
    5.7438   28.1036    7.7008 H   0  0  0  0  0  0
    4.9662   29.6571    7.6703 H   0  0  0  0  0  0
    5.2405   28.7512    5.3533 H   0  0  0  0  0  0
    3.5224   28.8407    5.7136 H   0  0  0  0  0  0
    4.3566   27.2935    5.7896 H   0  0  0  0  0  0
  1  2  2  0  0  0
  1  4  1  0  0  0
  1  7  1  0  0  0
  2  3  1  0  0  0
  2  9  1  0  0  0
  3 10  1  0  0  0
  3  8  2  0  0  0
  4  5  1  0  0  0
  4 16  2  0  0  0
  5  6  2  0  0  0
  5 25  1  0  0  0
  6 17  1  0  0  0
  6  9  1  0  0  0
  7 11  2  0  0  0
  7 19  1  0  0  0
  8 11  1  0  0  0
  8 20  1  0  0  0
 10 12  1  0  0  0
 10 14  1  0  0  0
 10 26  1  0  0  0
 11 27  1  0  0  0
 12 15  1  0  0  0
 12 21  1  0  0  0
 12 28  1  0  0  0
 13 18  1  0  0  0
 13 22  1  0  0  0
 13 15  1  0  0  0
 14 18  1  0  0  0
 14 29  1  0  0  0
 14 30  1  0  0  0
 15 31  1  0  0  0
 15 32  1  0  0  0
 17 23  1  0  0  0
 18 33  1  0  0  0
 18 34  1  0  0  0
 19 35  1  0  0  0
 20 36  1  0  0  0
 21 37  1  0  0  0
 22 38  1  0  0  0
 22 39  1  0  0  0
 22 40  1  0  0  0
 23 24  1  0  0  0
 23 41  1  0  0  0
 23 42  1  0  0  0
 24 43  1  0  0  0
 24 44  1  0  0  0
 24 45  1  0  0  0
M  END
> <s_m_entry_id>
33173

> <s_m_entry_name>
dock_pv.574

> <s_m_Source_Path>
/home/csk/Desktop/cluster/DUD-E-result/cdk2

> <s_m_Source_File>
dock_pv.maegz

> <i_m_Source_File_Index>
574

> <chembl_id>
CHEMBL326843

> <chembl_pref_name>
None

> <i_lp_mmshare_version>
53161

> <i_f3d_flags>
0

> <r_lp_tautomer_probability>
1

> <s_lp_Force_Field>
OPLS_2005

> <r_lp_Energy>
36.49637

> <b_lp_Chiralities_Consistent>
1

> <s_lp_Variant>
CHEMBL301_lig272-2

> <s_i_glide_gridfile>
glide-grid_1h00

> <i_i_glide_lignum>
426

> <i_i_glide_rotatable_bonds>
6

> <r_i_docking_score>
-6.84718074228123

> <r_i_glide_ligand_efficiency>
-0.285299197595051

> <r_i_glide_ligand_efficiency_sa>
-0.822945289409234

> <r_i_glide_ligand_efficiency_ln>
-1.63884454827883

> <r_i_glide_gscore>
-6.84718074228123

> <r_i_glide_lipo>
-3.11552119659379

> <r_i_glide_hbond>
0

> <r_i_glide_metal>
0

> <r_i_glide_rewards>
-1.20472343939394

> <r_i_glide_evdw>
-34.1617660522461

> <r_i_glide_ecoul>
-7.51819801330566

> <r_i_glide_erotb>
0.30888189831465

> <r_i_glide_esite>
0

> <r_i_glide_emodel>
-59.1276257475693

> <r_i_glide_energy>
-41.6799640655518

> <r_i_glide_einternal>
2.68332433700562

> <i_i_glide_confnum>
3

> <i_i_glide_posenum>
394

> <r_i_glide_eff_state_penalty>
0

> <s_user_duplicate_titles>
CHEMBL301_lig272

> <s_m_subgroup_title>
dock_pv

> <s_m_subgroupid>
dock_pv

> <b_m_subgroup_collapsed>
1

$$$$
CHEMBL301_lig13
                    3D
 Schrodinger Suite 2021-1.
 58 60  0  0  1  0            999 V2000
   -0.9321   23.9175   14.1160 N   0  0  0  0  0  0
   -1.7185   24.8406   14.6831 C   0  0  0  0  0  0
   -2.0533   26.0564   14.2415 N   0  0  0  0  0  0
   -1.5623   26.4516   13.0375 C   0  0  0  0  0  0
   -0.4604   24.3396   12.9164 C   0  0  0  0  0  0
   -0.7220   25.5616   12.3224 C   0  0  0  0  0  0
   -0.1144   25.6512   11.1257 N   0  0  0  0  0  0
    0.4991   24.5002   10.9855 C   0  0  0  0  0  0
    0.3308   23.6641   12.0314 N   0  0  0  0  0  0
   -1.9418   27.7061   12.5759 N   0  0  0  0  0  0
    0.7747   22.2248   12.2021 C   0  0  2  0  0  0
    2.0080   21.9988   11.5788 O   0  0  0  0  0  0
    2.0994   20.6672   11.0692 C   0  0  1  0  0  0
    0.7603   20.0096   11.4194 C   0  0  2  0  0  0
   -0.1710   21.2092   11.5681 C   0  0  1  0  0  0
    0.8579   19.1810   12.5679 O   0  0  0  0  0  0
   -1.3188   21.0520   12.3835 O   0  0  0  0  0  0
    2.3954   20.7531    9.5634 C   0  0  0  0  0  0
    3.7770   21.0109    9.4064 O   0  0  0  0  0  0
    4.3938   21.4520    7.9672 P   0  0  1  0  0  0
    3.3776   20.8278    6.8886 O   0  0  0  0  0  0
    4.0567   23.0349    7.8917 O   0  0  0  0  0  0
    5.8273   21.1148    7.7721 O   0  0  0  0  0  0
    3.1619   20.9688    5.2264 P   0  0  2  0  0  0
    3.6577   22.5457    4.8998 O   0  0  0  0  0  0
    1.4916   21.0520    4.9760 O   0  0  0  0  0  0
    3.8316   19.8912    4.4085 O   0  0  0  0  0  0
    4.7702   23.3175    4.0336 P   0  0  1  0  0  0
    4.1328   24.8048    3.8569 O   0  0  0  0  0  0
    6.1492   23.2494    4.5850 O   0  0  0  0  0  0
    4.5728   22.6520    2.5760 O   0  0  0  0  0  0
    4.9291   25.8780    3.3784 C   0  0  0  0  0  0
    5.4387   26.7154    4.5641 C   0  0  0  0  0  0
    4.2872   27.2779    5.4176 C   0  0  0  0  0  0
    4.7060   28.0292    6.6118 C   0  0  0  0  0  0
    5.0077   28.6519    7.6175 C   0  0  0  0  0  0
   -2.1430   24.5627   15.6359 H   0  0  0  0  0  0
    1.0805   24.1963   10.1259 H   0  0  0  0  0  0
   -1.5935   28.0411   11.6908 H   0  0  0  0  0  0
   -2.5857   28.2517   13.1463 H   0  0  0  0  0  0
    0.8981   22.0398   13.2727 H   0  0  0  0  0  0
    2.9168   20.1338   11.5595 H   0  0  0  0  0  0
    0.4089   19.3772   10.6020 H   0  0  0  0  0  0
   -0.4475   21.5689   10.5762 H   0  0  0  0  0  0
    0.0218   18.6905   12.6606 H   0  0  0  0  0  0
   -1.5834   20.1155   12.3786 H   0  0  0  0  0  0
    1.7917   21.5294    9.0880 H   0  0  0  0  0  0
    2.1724   19.8052    9.0706 H   0  0  0  0  0  0
    3.1125   23.2555    7.7388 H   0  0  0  0  0  0
    1.1617   21.6723    4.2804 H   0  0  0  0  0  0
    4.4579   23.3236    1.8546 H   0  0  0  0  0  0
    4.3113   26.4975    2.7267 H   0  0  0  0  0  0
    5.7604   25.5213    2.7663 H   0  0  0  0  0  0
    6.0578   27.5316    4.1880 H   0  0  0  0  0  0
    6.0967   26.0982    5.1790 H   0  0  0  0  0  0
    3.6580   26.4599    5.7667 H   0  0  0  0  0  0
    3.6581   27.9382    4.8205 H   0  0  0  0  0  0
    5.2579   29.2053    8.4937 H   0  0  0  0  0  0
  1  2  2  0  0  0
  1  5  1  0  0  0
  2  3  1  0  0  0
  2 37  1  0  0  0
  3  4  2  0  0  0
  4  6  1  0  0  0
  4 10  1  0  0  0
  5  9  1  0  0  0
  5  6  2  0  0  0
  6  7  1  0  0  0
  7  8  2  0  0  0
  8  9  1  0  0  0
  8 38  1  0  0  0
  9 11  1  0  0  0
 10 39  1  0  0  0
 10 40  1  0  0  0
 11 12  1  0  0  0
 11 15  1  0  0  0
 11 41  1  0  0  0
 12 13  1  0  0  0
 13 18  1  0  0  0
 13 14  1  0  0  0
 13 42  1  0  0  0
 14 15  1  0  0  0
 14 16  1  0  0  0
 14 43  1  0  0  0
 15 17  1  0  0  0
 15 44  1  0  0  0
 16 45  1  0  0  0
 17 46  1  0  0  0
 18 19  1  0  0  0
 18 47  1  0  0  0
 18 48  1  0  0  0
 19 20  1  0  0  0
 20 21  1  0  0  0
 20 22  1  0  0  0
 20 23  2  0  0  0
 21 24  1  0  0  0
 22 49  1  0  0  0
 24 25  1  0  0  0
 24 26  1  0  0  0
 24 27  2  0  0  0
 25 28  1  0  0  0
 26 50  1  0  0  0
 28 29  1  0  0  0
 28 30  2  0  0  0
 28 31  1  0  0  0
 29 32  1  0  0  0
 31 51  1  0  0  0
 32 33  1  0  0  0
 32 52  1  0  0  0
 32 53  1  0  0  0
 33 34  1  0  0  0
 33 54  1  0  0  0
 33 55  1  0  0  0
 34 35  1  0  0  0
 34 56  1  0  0  0
 34 57  1  0  0  0
 35 36  3  0  0  0
 36 58  1  0  0  0
M  END
> <s_m_entry_id>
33174

> <s_m_entry_name>
dock_pv.575

> <s_m_Source_Path>
/home/csk/Desktop/cluster/DUD-E-result/cdk2

> <s_m_Source_File>
dock_pv.maegz

> <i_m_Source_File_Index>
575

> <chembl_id>
CHEMBL564508

> <chembl_pref_name>
None

> <i_lp_mmshare_version>
53161

> <i_f3d_flags>
0

> <r_lp_tautomer_probability>
0.999997216410988

> <s_lp_Force_Field>
OPLS_2005

> <r_lp_Energy>
24.416358

> <b_lp_Chiralities_Consistent>
1

> <s_lp_Variant>
CHEMBL301_lig13-6

> <s_i_glide_gridfile>
glide-grid_1h00

> <i_i_glide_lignum>
61

> <i_i_glide_rotatable_bonds>
18

> <r_i_docking_score>
-6.84662688942089

> <r_i_glide_ligand_efficiency>
-0.190184080261691

> <r_i_glide_ligand_efficiency_sa>
-0.627973996171923

> <r_i_glide_ligand_efficiency_ln>
-1.49374901278952

> <r_i_glide_gscore>
-6.84662688942089

> <r_i_glide_lipo>
-0.940423102298559

> <r_i_glide_hbond>
-0.165094749666094

> <r_i_glide_metal>
0

> <r_i_glide_rewards>
-0.499425031799388

> <r_i_glide_evdw>
-36.4561653137207

> <r_i_glide_ecoul>
-30.3450393676758

> <r_i_glide_erotb>
0.732139657484648

> <r_i_glide_esite>
-0.151015397455463

> <r_i_glide_emodel>
-94.9036140889407

> <r_i_glide_energy>
-66.8012046813965

> <r_i_glide_einternal>
20.2155723571777

> <i_i_glide_confnum>
2

> <i_i_glide_posenum>
306

> <r_i_glide_eff_state_penalty>
0

> <s_user_duplicate_titles>
CHEMBL301_lig13

> <s_m_subgroup_title>
dock_pv

> <s_m_subgroupid>
dock_pv

> <b_m_subgroup_collapsed>
1

$$$$
CHEMBL301_lig1387
                    3D
 Schrodinger Suite 2021-1.
 54 56  0  0  1  0            999 V2000
   -0.7956   27.0143    9.5743 C   0  0  0  0  0  0
   -0.3277   28.0307   10.6323 C   0  0  1  0  0  0
   -0.8697   29.3724   10.3522 N   0  0  0  0  0  0
   -0.3092   30.2372    9.3913 C   0  0  0  0  0  0
    0.7589   29.8053    8.6670 N   0  0  0  0  0  0
    1.3010   30.6523    7.7608 C   0  0  0  0  0  0
    2.3796   30.2254    6.9758 N   0  0  0  0  0  0
    3.2583   29.1360    7.0964 C   0  0  0  0  0  0
    3.8843   28.6519    5.9425 C   0  0  0  0  0  0
    4.8318   27.6328    6.0221 C   0  0  0  0  0  0
    5.1577   27.0955    7.2678 C   0  0  0  0  0  0
    4.5253   27.5693    8.4150 C   0  0  0  0  0  0
    3.5862   28.5892    8.3369 C   0  0  0  0  0  0
    6.3816   25.7924    7.4451 S   0  0  2  0  0  0
    5.5091   24.5371    7.3755 N   0  0  0  0  0  0
    7.2580   26.1225    8.5744 O   0  0  0  0  0  0
    7.3824   25.6725    5.8442 C   0  0  0  0  0  0
    8.4708   24.5933    5.9580 C   0  0  0  0  0  0
    9.8043   24.8226    5.2932 C   0  0  0  0  0  0
    9.6925   24.8366    6.8070 C   0  0  0  0  0  0
    0.8580   31.9092    7.5149 N   0  0  0  0  0  0
   -0.2100   32.3314    8.2428 C   0  0  0  0  0  0
   -0.8382   31.5206    9.1935 C   0  0  0  0  0  0
   -2.3359   32.1848   10.1727 Br  0  0  0  0  0  0
   -0.5842   27.5355   12.0917 C   0  0  0  0  0  0
   -2.0794   27.5137   12.4723 C   0  0  0  0  0  0
    0.0620   26.1631   12.3865 C   0  0  0  0  0  0
    0.0573   28.4279   12.9757 O   0  0  0  0  0  0
   -0.1691   26.1241    9.5874 H   0  0  0  0  0  0
   -1.8148   26.6728    9.7410 H   0  0  0  0  0  0
   -0.7449   27.4490    8.5762 H   0  0  0  0  0  0
    0.7581   28.0962   10.5266 H   0  0  0  0  0  0
   -1.5643   29.7441   10.9852 H   0  0  0  0  0  0
    2.7178   30.9302    6.3387 H   0  0  0  0  0  0
    3.6583   29.0800    4.9769 H   0  0  0  0  0  0
    5.3129   27.2835    5.1215 H   0  0  0  0  0  0
    4.7645   27.1520    9.3755 H   0  0  0  0  0  0
    3.1365   28.9591    9.2460 H   0  0  0  0  0  0
    6.0584   23.7046    7.2368 H   0  0  0  0  0  0
    6.6903   25.4569    5.0314 H   0  0  0  0  0  0
    7.8194   26.6519    5.6706 H   0  0  0  0  0  0
    8.0635   23.5824    5.9207 H   0  0  0  0  0  0
   10.2907   23.9798    4.8012 H   0  0  0  0  0  0
    9.9783   25.7621    4.7684 H   0  0  0  0  0  0
    9.7865   25.7871    7.3340 H   0  0  0  0  0  0
   10.1025   24.0046    7.3762 H   0  0  0  0  0  0
   -0.5539   33.3390    8.0525 H   0  0  0  0  0  0
   -2.6288   26.7538   11.9161 H   0  0  0  0  0  0
   -2.5587   28.4730   12.2753 H   0  0  0  0  0  0
   -2.2199   27.2977   13.5318 H   0  0  0  0  0  0
   -0.4294   25.3624   11.8325 H   0  0  0  0  0  0
    1.1199   26.1496   12.1190 H   0  0  0  0  0  0
   -0.0089   25.9040   13.4436 H   0  0  0  0  0  0
    1.0028   28.2287   12.9759 H   0  0  0  0  0  0
  1  2  1  0  0  0
  1 29  1  0  0  0
  1 30  1  0  0  0
  1 31  1  0  0  0
  2  3  1  0  0  0
  2 25  1  0  0  0
  2 32  1  0  0  0
  3  4  1  0  0  0
  3 33  1  0  0  0
  4  5  2  0  0  0
  4 23  1  0  0  0
  5  6  1  0  0  0
  6  7  1  0  0  0
  6 21  2  0  0  0
  7  8  1  0  0  0
  7 34  1  0  0  0
  8  9  2  0  0  0
  8 13  1  0  0  0
  9 10  1  0  0  0
  9 35  1  0  0  0
 10 11  2  0  0  0
 10 36  1  0  0  0
 11 12  1  0  0  0
 11 14  1  0  0  0
 12 13  2  0  0  0
 12 37  1  0  0  0
 13 38  1  0  0  0
 14 15  2  0  0  0
 14 16  2  0  0  0
 14 17  1  0  0  0
 15 39  1  0  0  0
 17 18  1  0  0  0
 17 40  1  0  0  0
 17 41  1  0  0  0
 18 19  1  0  0  0
 18 20  1  0  0  0
 18 42  1  0  0  0
 19 20  1  0  0  0
 19 43  1  0  0  0
 19 44  1  0  0  0
 20 45  1  0  0  0
 20 46  1  0  0  0
 21 22  1  0  0  0
 22 23  2  0  0  0
 22 47  1  0  0  0
 23 24  1  0  0  0
 25 26  1  0  0  0
 25 27  1  0  0  0
 25 28  1  0  0  0
 26 48  1  0  0  0
 26 49  1  0  0  0
 26 50  1  0  0  0
 27 51  1  0  0  0
 27 52  1  0  0  0
 27 53  1  0  0  0
 28 54  1  0  0  0
M  END
> <s_m_entry_id>
33176

> <s_m_entry_name>
dock_pv.577

> <s_m_Source_Path>
/home/csk/Desktop/cluster/DUD-E-result/cdk2

> <s_m_Source_File>
dock_pv.maegz

> <i_m_Source_File_Index>
577

> <chembl_id>
CHEMBL3648076

> <chembl_pref_name>
None

> <i_lp_mmshare_version>
53161

> <i_f3d_flags>
0

> <r_lp_tautomer_probability>
0.999999624730965

> <s_lp_Force_Field>
OPLS_2005

> <r_lp_Energy>
11.286901

> <b_lp_Chiralities_Consistent>
1

> <s_lp_Variant>
CHEMBL301_lig1387-1

> <s_i_glide_gridfile>
glide-grid_1h00

> <i_i_glide_lignum>
1872

> <i_i_glide_rotatable_bonds>
9

> <r_i_docking_score>
-6.83893675344626

> <r_i_glide_ligand_efficiency>
-0.244247741194509

> <r_i_glide_ligand_efficiency_sa>
-0.741679996492979

> <r_i_glide_ligand_efficiency_ln>
-1.57862740260378

> <r_i_glide_gscore>
-6.83893675344626

> <r_i_glide_lipo>
-2.5568826376426

> <r_i_glide_hbond>
-0.544605456699361

> <r_i_glide_metal>
0

> <r_i_glide_rewards>
-1.12025514530249

> <r_i_glide_evdw>
-40.0382614135742

> <r_i_glide_ecoul>
-9.00951862335205

> <r_i_glide_erotb>
0.73614735037971

> <r_i_glide_esite>
0

> <r_i_glide_emodel>
-66.5183678712128

> <r_i_glide_energy>
-49.0477800369263

> <r_i_glide_einternal>
4.28744077682495

> <i_i_glide_confnum>
196

> <i_i_glide_posenum>
304

> <r_i_glide_eff_state_penalty>
0

> <s_user_duplicate_titles>
CHEMBL301_lig1387

> <s_m_subgroup_title>
dock_pv

> <s_m_subgroupid>
dock_pv

> <b_m_subgroup_collapsed>
1

$$$$
CHEMBL301_lig11
                    3D
 Schrodinger Suite 2021-1.
 68 70  0  0  1  0            999 V2000
    5.5991   24.7652    7.0541 N   0  0  0  0  0  0
    6.3534   25.6104    7.7753 C   0  0  0  0  0  0
    7.6687   25.8521    7.6918 N   0  0  0  0  0  0
    8.3767   25.1778    6.7504 C   0  0  0  0  0  0
    6.3405   24.0828    6.1481 C   0  0  0  0  0  0
    7.7019   24.2279    5.9505 C   0  0  0  0  0  0
    8.1452   23.4000    4.9931 N   0  0  0  0  0  0
    7.0752   22.7523    4.6119 C   0  0  0  0  0  0
    5.9394   23.1428    5.2361 N   0  0  0  0  0  0
    9.7342   25.4522    6.6173 N   0  0  0  0  0  0
    4.5164   22.6234    5.0931 C   0  0  2  0  0  0
    4.0835   22.0128    6.2691 O   0  0  0  0  0  0
    2.9287   21.2369    5.9989 C   0  0  1  0  0  0
    3.3432   20.5750    4.6902 C   0  0  2  0  0  0
    4.2484   21.5998    3.9744 C   0  0  1  0  0  0
    2.2162   20.2517    3.9049 O   0  0  0  0  0  0
    3.6580   22.2533    2.8561 O   0  0  0  0  0  0
    2.5864   20.3168    7.1929 C   0  0  0  0  0  0
    1.8693   21.0136    8.2154 O   0  0  0  0  0  0
    2.6639   21.8396    9.3763 P   0  0  2  0  0  0
    1.5191   22.5487   10.2684 O   0  0  0  0  0  0
    3.2581   23.1083    8.5763 O   0  0  0  0  0  0
    3.6578   21.0520   10.1532 O   0  0  0  0  0  0
    1.2841   24.0826   10.9912 P   0  0  1  0  0  0
    0.6024   23.8929   12.5360 O   0  0  0  0  0  0
    2.8580   24.6462   11.3383 O   0  0  0  0  0  0
    0.5185   25.0523   10.1236 O   0  0  0  0  0  0
   -0.5900   24.5479   13.4021 P   0  0  2  0  0  0
   -0.3418   26.2023   13.1739 N   0  0  1  0  0  0
   -0.6954   24.0697   14.8056 O   0  0  0  0  0  0
   -1.8858   24.2521   12.4879 O   0  0  0  0  0  0
   -1.2598   27.2047   13.6886 C   0  0  0  0  0  0
   -1.0232   28.5943   13.0788 C   0  0  0  0  0  0
   -1.5156   28.7135   11.6245 C   0  0  0  0  0  0
   -1.4196   30.1530   11.0918 C   0  0  0  0  0  0
   -2.0050   30.3211    9.6740 C   0  0  0  0  0  0
   -2.3270   31.7846    9.2940 C   0  0  0  0  0  0
   -1.1861   32.6550    9.4649 N   0  0  0  0  0  0
   -0.3435   32.6184    8.5689 N   0  3  0  0  0  0
    0.4589   32.4542    7.7764 N   0  5  0  0  0  0
    5.8259   26.1708    8.5338 H   0  0  0  0  0  0
    7.0714   21.9897    3.8481 H   0  0  0  0  0  0
   10.2123   25.0960    5.8029 H   0  0  0  0  0  0
   10.1258   26.2187    7.1449 H   0  0  0  0  0  0
    3.8974   23.5173    4.9620 H   0  0  0  0  0  0
    2.0591   21.8557    5.7917 H   0  0  0  0  0  0
    3.9223   19.6768    4.9114 H   0  0  0  0  0  0
    5.1656   21.0991    3.6708 H   0  0  0  0  0  0
    1.9799   21.0751    3.4455 H   0  0  0  0  0  0
    4.2796   22.8532    2.4230 H   0  0  0  0  0  0
    3.4820   19.8359    7.5952 H   0  0  0  0  0  0
    1.9262   19.5221    6.8466 H   0  0  0  0  0  0
    2.6232   23.4522    7.9003 H   0  0  0  0  0  0
    3.0833   25.5952   11.3949 H   0  0  0  0  0  0
    0.6224   26.5260   13.0784 H   0  0  0  0  0  0
   -2.6156   24.8968   12.5720 H   0  0  0  0  0  0
   -1.1433   27.2334   14.7711 H   0  0  0  0  0  0
   -2.2853   26.8867   13.5057 H   0  0  0  0  0  0
    0.0340   28.8565   13.1363 H   0  0  0  0  0  0
   -1.5420   29.3321   13.6934 H   0  0  0  0  0  0
   -2.5566   28.3855   11.5761 H   0  0  0  0  0  0
   -0.9490   28.0385   10.9808 H   0  0  0  0  0  0
   -0.3777   30.4814   11.1014 H   0  0  0  0  0  0
   -1.9434   30.8195   11.7753 H   0  0  0  0  0  0
   -2.9288   29.7485    9.5935 H   0  0  0  0  0  0
   -1.3156   29.8876    8.9500 H   0  0  0  0  0  0
   -3.1332   32.1500    9.9339 H   0  0  0  0  0  0
   -2.7185   31.8393    8.2745 H   0  0  0  0  0  0
  1  2  2  0  0  0
  1  5  1  0  0  0
  2  3  1  0  0  0
  2 41  1  0  0  0
  3  4  2  0  0  0
  4  6  1  0  0  0
  4 10  1  0  0  0
  5  9  1  0  0  0
  5  6  2  0  0  0
  6  7  1  0  0  0
  7  8  2  0  0  0
  8  9  1  0  0  0
  8 42  1  0  0  0
  9 11  1  0  0  0
 10 43  1  0  0  0
 10 44  1  0  0  0
 11 12  1  0  0  0
 11 15  1  0  0  0
 11 45  1  0  0  0
 12 13  1  0  0  0
 13 14  1  0  0  0
 13 18  1  0  0  0
 13 46  1  0  0  0
 14 15  1  0  0  0
 14 16  1  0  0  0
 14 47  1  0  0  0
 15 17  1  0  0  0
 15 48  1  0  0  0
 16 49  1  0  0  0
 17 50  1  0  0  0
 18 19  1  0  0  0
 18 51  1  0  0  0
 18 52  1  0  0  0
 19 20  1  0  0  0
 20 21  1  0  0  0
 20 22  1  0  0  0
 20 23  2  0  0  0
 21 24  1  0  0  0
 22 53  1  0  0  0
 24 25  1  0  0  0
 24 26  1  0  0  0
 24 27  2  0  0  0
 25 28  1  0  0  0
 26 54  1  0  0  0
 28 29  1  0  0  0
 28 30  2  0  0  0
 28 31  1  0  0  0
 29 32  1  0  0  0
 29 55  1  0  0  0
 31 56  1  0  0  0
 32 33  1  0  0  0
 32 57  1  0  0  0
 32 58  1  0  0  0
 33 34  1  0  0  0
 33 59  1  0  0  0
 33 60  1  0  0  0
 34 35  1  0  0  0
 34 61  1  0  0  0
 34 62  1  0  0  0
 35 36  1  0  0  0
 35 63  1  0  0  0
 35 64  1  0  0  0
 36 37  1  0  0  0
 36 65  1  0  0  0
 36 66  1  0  0  0
 37 38  1  0  0  0
 37 67  1  0  0  0
 37 68  1  0  0  0
 38 39  2  0  0  0
 39 40  2  0  0  0
M  CHG  2  39   1  40  -1
M  END
> <s_m_entry_id>
33177

> <s_m_entry_name>
dock_pv.578

> <s_m_Source_Path>
/home/csk/Desktop/cluster/DUD-E-result/cdk2

> <s_m_Source_File>
dock_pv.maegz

> <i_m_Source_File_Index>
578

> <chembl_id>
CHEMBL550942

> <chembl_pref_name>
None

> <i_lp_mmshare_version>
53161

> <i_f3d_flags>
0

> <r_lp_tautomer_probability>
0.999997216410988

> <s_lp_Force_Field>
OPLS_2005

> <r_lp_Energy>
26.726478

> <b_lp_Chiralities_Consistent>
1

> <s_lp_Variant>
CHEMBL301_lig11-7

> <s_i_glide_gridfile>
glide-grid_1h00

> <i_i_glide_lignum>
46

> <i_i_glide_rotatable_bonds>
21

> <r_i_docking_score>
-6.83704796917958

> <r_i_glide_ligand_efficiency>
-0.170926199229489

> <r_i_glide_ligand_efficiency_sa>
-0.584559377959802

> <r_i_glide_ligand_efficiency_ln>
-1.45814112648618

> <r_i_glide_gscore>
-6.83704796917958

> <r_i_glide_lipo>
-0.691053202298624

> <r_i_glide_hbond>
-0.225192128391642

> <r_i_glide_metal>
0

> <r_i_glide_rewards>
-0.335548280318087

> <r_i_glide_evdw>
-44.476375579834

> <r_i_glide_ecoul>
-27.2535629272461

> <r_i_glide_erotb>
0.709520437685188

> <r_i_glide_esite>
-0.0709560168647148

> <r_i_glide_emodel>
-95.9488166880528

> <r_i_glide_energy>
-71.7299385070801

> <r_i_glide_einternal>
15.3176679611206

> <i_i_glide_confnum>
6

> <i_i_glide_posenum>
15

> <r_i_glide_eff_state_penalty>
0

> <s_user_duplicate_titles>
CHEMBL301_lig11

> <s_m_subgroup_title>
dock_pv

> <s_m_subgroupid>
dock_pv

> <b_m_subgroup_collapsed>
1

$$$$
CHEMBL301_lig1404
                    3D
 Schrodinger Suite 2021-1.
 39 40  0  0  1  0            999 V2000
   -1.4434   27.6504   11.6502 C   0  0  0  0  0  0
   -0.6132   28.2412   10.5071 C   0  0  0  0  0  0
   -1.1134   29.5455   10.2197 O   0  0  0  0  0  0
   -0.4560   30.3453    9.3028 C   0  0  0  0  0  0
    0.6323   29.8520    8.6435 N   0  0  0  0  0  0
    1.2696   30.6789    7.7761 C   0  0  0  0  0  0
    2.4520   30.2520    7.1449 N   0  0  0  0  0  0
    3.2247   29.0827    7.2568 C   0  0  0  0  0  0
    3.9558   28.6879    6.1356 C   0  0  0  0  0  0
    4.7519   27.5542    6.1678 C   0  0  0  0  0  0
    4.7814   26.7758    7.3216 C   0  0  0  0  0  0
    4.0566   27.1620    8.4540 C   0  0  0  0  0  0
    3.2960   28.3271    8.4302 C   0  0  0  0  0  0
    5.7353   25.2691    7.3763 S   0  0  1  0  0  0
    6.9494   25.7213    8.1774 N   0  0  0  0  0  0
    4.8559   24.1680    7.7759 O   0  0  0  0  0  0
    6.4786   24.9329    5.6664 C   0  0  0  0  0  0
    5.4008   24.4469    4.6795 C   0  0  0  0  0  0
    0.8658   31.9461    7.4883 N   0  0  0  0  0  0
   -0.1988   32.4289    8.1760 C   0  0  0  0  0  0
   -0.9009   31.6537    9.0976 C   0  0  0  0  0  0
   -2.3777   32.3804   10.0563 Br  0  0  0  0  0  0
   -1.0932   26.6522   11.9145 H   0  0  0  0  0  0
   -2.4967   27.5786   11.3761 H   0  0  0  0  0  0
   -1.3781   28.2757   12.5418 H   0  0  0  0  0  0
    0.4373   28.2867   10.8054 H   0  0  0  0  0  0
   -0.6825   27.6068    9.6206 H   0  0  0  0  0  0
    2.9071   30.9584    6.5812 H   0  0  0  0  0  0
    3.9280   29.2810    5.2334 H   0  0  0  0  0  0
    5.3202   27.2930    5.2891 H   0  0  0  0  0  0
    4.0580   26.5613    9.3517 H   0  0  0  0  0  0
    2.7564   28.6201    9.3171 H   0  0  0  0  0  0
    6.6930   25.9102    9.1405 H   0  0  0  0  0  0
    6.9873   25.8357    5.3269 H   0  0  0  0  0  0
    7.2383   24.1640    5.8049 H   0  0  0  0  0  0
    5.8291   24.2462    3.6964 H   0  0  0  0  0  0
    4.9347   23.5244    5.0280 H   0  0  0  0  0  0
    4.6063   25.1803    4.5432 H   0  0  0  0  0  0
   -0.4845   33.4519    7.9707 H   0  0  0  0  0  0
  1  2  1  0  0  0
  1 23  1  0  0  0
  1 24  1  0  0  0
  1 25  1  0  0  0
  2  3  1  0  0  0
  2 26  1  0  0  0
  2 27  1  0  0  0
  3  4  1  0  0  0
  4  5  2  0  0  0
  4 21  1  0  0  0
  5  6  1  0  0  0
  6  7  1  0  0  0
  6 19  2  0  0  0
  7  8  1  0  0  0
  7 28  1  0  0  0
  8  9  2  0  0  0
  8 13  1  0  0  0
  9 10  1  0  0  0
  9 29  1  0  0  0
 10 11  2  0  0  0
 10 30  1  0  0  0
 11 12  1  0  0  0
 11 14  1  0  0  0
 12 13  2  0  0  0
 12 31  1  0  0  0
 13 32  1  0  0  0
 14 15  2  0  0  0
 14 16  2  0  0  0
 14 17  1  0  0  0
 15 33  1  0  0  0
 17 18  1  0  0  0
 17 34  1  0  0  0
 17 35  1  0  0  0
 18 36  1  0  0  0
 18 37  1  0  0  0
 18 38  1  0  0  0
 19 20  1  0  0  0
 20 21  2  0  0  0
 20 39  1  0  0  0
 21 22  1  0  0  0
M  END
> <s_m_entry_id>
33178

> <s_m_entry_name>
dock_pv.579

> <s_m_Source_Path>
/home/csk/Desktop/cluster/DUD-E-result/cdk2

> <s_m_Source_File>
dock_pv.maegz

> <i_m_Source_File_Index>
579

> <chembl_id>
CHEMBL3648097

> <chembl_pref_name>
None

> <i_lp_mmshare_version>
53161

> <i_f3d_flags>
0

> <r_lp_tautomer_probability>
0.999999917912647

> <s_lp_Force_Field>
OPLS_2005

> <r_lp_Energy>
1.902073

> <b_lp_Chiralities_Consistent>
1

> <s_lp_Variant>
CHEMBL301_lig1404-2

> <s_i_glide_gridfile>
glide-grid_1h00

> <i_i_glide_lignum>
1915

> <i_i_glide_rotatable_bonds>
6

> <r_i_docking_score>
-6.83682670201067

> <r_i_glide_ligand_efficiency>
-0.310764850091394

> <r_i_glide_ligand_efficiency_sa>
-0.870775331644111

> <r_i_glide_ligand_efficiency_ln>
-1.67116982528459

> <r_i_glide_gscore>
-6.83682670201067

> <r_i_glide_lipo>
-2.25117430770901

> <r_i_glide_hbond>
-0.370004681128958

> <r_i_glide_metal>
0

> <r_i_glide_rewards>
-2.08417722057624

> <r_i_glide_evdw>
-35.778491973877

> <r_i_glide_ecoul>
-6.6515645980835

> <r_i_glide_erotb>
0.655188795809904

> <r_i_glide_esite>
0

> <r_i_glide_emodel>
-58.9355124918701

> <r_i_glide_energy>
-42.4300565719604

> <r_i_glide_einternal>
3.37830901145935

> <i_i_glide_confnum>
13

> <i_i_glide_posenum>
161

> <r_i_glide_eff_state_penalty>
0

> <s_user_duplicate_titles>
CHEMBL301_lig1404

> <s_m_subgroup_title>
dock_pv

> <s_m_subgroupid>
dock_pv

> <b_m_subgroup_collapsed>
1

$$$$
CHEMBL301_lig268
                    3D
 Schrodinger Suite 2021-1.
 49 52  0  0  1  0            999 V2000
    0.1589   30.6692    8.5765 C   0  0  0  0  0  0
    0.2250   29.4315    9.2427 C   0  0  0  0  0  0
   -0.8429   28.9719   10.0455 C   0  0  0  0  0  0
    1.2576   31.0609    7.6318 C   0  0  0  0  0  0
    2.4091   29.0519    8.3768 C   0  0  0  0  0  0
    2.3717   30.1476    7.6121 C   0  0  0  0  0  0
    1.3778   28.6531    9.1716 O   0  0  0  0  0  0
   -0.9131   31.5235    8.8757 C   0  0  0  0  0  0
   -1.9512   29.8172   10.2180 C   0  0  0  0  0  0
   -0.7080   27.6659   10.8687 C   0  0  1  0  0  0
   -1.9645   31.0868    9.6648 C   0  0  0  0  0  0
   -0.5710   27.9466   12.3779 C   0  0  1  0  0  0
   -1.3256   25.6099   12.9215 N   0  0  1  0  0  0
    3.8035   27.9122    8.3794 S   0  0  0  0  0  0
   -1.7867   26.5921   10.6651 C   0  0  0  0  0  0
   -0.3455   26.6665   13.2161 C   0  0  0  0  0  0
    1.2577   32.1110    6.9888 O   0  0  0  0  0  0
   -1.4971   25.3233   11.4903 C   0  0  0  0  0  0
   -0.9494   32.8256    8.4584 O   0  0  0  0  0  0
   -3.0278   29.4525   10.9760 O   0  0  0  0  0  0
    0.4576   28.8830   12.5761 O   0  0  0  0  0  0
    3.2452   26.3608    9.0262 C   0  0  0  0  0  0
   -1.0277   24.3900   13.6652 C   0  0  0  0  0  0
    3.6581   25.1694    8.4280 C   0  0  0  0  0  0
    2.5107   26.3119   10.2165 C   0  0  0  0  0  0
    2.1054   25.0913   10.7491 C   0  0  0  0  0  0
    3.2603   23.9482    8.9759 C   0  0  0  0  0  0
    2.4576   23.9116   10.1108 C   0  0  0  0  0  0
    3.2213   30.3511    6.9786 H   0  0  0  0  0  0
    0.1913   27.1785   10.5296 H   0  0  0  0  0  0
   -2.7931   31.7523    9.8607 H   0  0  0  0  0  0
   -1.4856   28.4153   12.7445 H   0  0  0  0  0  0
   -1.8326   26.2966    9.6162 H   0  0  0  0  0  0
   -2.7651   26.9444   10.9760 H   0  0  0  0  0  0
   -0.3891   26.9045   14.2794 H   0  0  0  0  0  0
    0.6543   26.2759   13.0379 H   0  0  0  0  0  0
   -2.3217   24.6233   11.3699 H   0  0  0  0  0  0
   -0.6142   24.8150   11.1030 H   0  0  0  0  0  0
   -0.1924   33.0389    7.8998 H   0  0  0  0  0  0
   -3.3651   30.1550   11.5566 H   0  0  0  0  0  0
    1.2874   28.4103   12.7311 H   0  0  0  0  0  0
   -0.9847   24.5926   14.7361 H   0  0  0  0  0  0
   -1.8054   23.6410   13.5063 H   0  0  0  0  0  0
   -0.0717   23.9590   13.3611 H   0  0  0  0  0  0
    4.2687   25.1895    7.5375 H   0  0  0  0  0  0
    2.3130   27.2174   10.7687 H   0  0  0  0  0  0
    1.5478   25.0463   11.6672 H   0  0  0  0  0  0
    3.5476   23.0286    8.4884 H   0  0  0  0  0  0
    2.1282   22.9635   10.5096 H   0  0  0  0  0  0
  1  2  2  0  0  0
  1  4  1  0  0  0
  1  8  1  0  0  0
  2  3  1  0  0  0
  2  7  1  0  0  0
  3 10  1  0  0  0
  3  9  2  0  0  0
  4  6  1  0  0  0
  4 17  2  0  0  0
  5  6  2  0  0  0
  5 14  1  0  0  0
  5  7  1  0  0  0
  6 29  1  0  0  0
  8 11  2  0  0  0
  8 19  1  0  0  0
  9 11  1  0  0  0
  9 20  1  0  0  0
 10 12  1  0  0  0
 10 15  1  0  0  0
 10 30  1  0  0  0
 11 31  1  0  0  0
 12 16  1  0  0  0
 12 21  1  0  0  0
 12 32  1  0  0  0
 13 18  1  0  0  0
 13 23  1  0  0  0
 13 16  1  0  0  0
 14 22  1  0  0  0
 15 18  1  0  0  0
 15 33  1  0  0  0
 15 34  1  0  0  0
 16 35  1  0  0  0
 16 36  1  0  0  0
 18 37  1  0  0  0
 18 38  1  0  0  0
 19 39  1  0  0  0
 20 40  1  0  0  0
 21 41  1  0  0  0
 22 24  2  0  0  0
 22 25  1  0  0  0
 23 42  1  0  0  0
 23 43  1  0  0  0
 23 44  1  0  0  0
 24 27  1  0  0  0
 24 45  1  0  0  0
 25 26  2  0  0  0
 25 46  1  0  0  0
 26 28  1  0  0  0
 26 47  1  0  0  0
 27 28  2  0  0  0
 27 48  1  0  0  0
 28 49  1  0  0  0
M  END
> <s_m_entry_id>
33179

> <s_m_entry_name>
dock_pv.580

> <s_m_Source_Path>
/home/csk/Desktop/cluster/DUD-E-result/cdk2

> <s_m_Source_File>
dock_pv.maegz

> <i_m_Source_File_Index>
580

> <chembl_id>
CHEMBL112050

> <chembl_pref_name>
None

> <i_lp_mmshare_version>
53161

> <i_f3d_flags>
0

> <r_lp_tautomer_probability>
1

> <s_lp_Force_Field>
OPLS_2005

> <r_lp_Energy>
28.569598

> <b_lp_Chiralities_Consistent>
1

> <s_lp_Variant>
CHEMBL301_lig268-4

> <s_i_glide_gridfile>
glide-grid_1h00

> <i_i_glide_lignum>
414

> <i_i_glide_rotatable_bonds>
6

> <r_i_docking_score>
-6.83635783180812

> <r_i_glide_ligand_efficiency>
-0.24415563685029

> <r_i_glide_ligand_efficiency_sa>
-0.74140031345737

> <r_i_glide_ligand_efficiency_ln>
-1.57803211176927

> <r_i_glide_gscore>
-6.83635783180812

> <r_i_glide_lipo>
-2.96448441251333

> <r_i_glide_hbond>
-0.543440893534478

> <r_i_glide_metal>
0

> <r_i_glide_rewards>
-0.84382556060606

> <r_i_glide_evdw>
-29.2616691589355

> <r_i_glide_ecoul>
-9.26610851287842

> <r_i_glide_erotb>
0.368392769724295

> <r_i_glide_esite>
0

> <r_i_glide_emodel>
-50.960699552995

> <r_i_glide_energy>
-38.527777671814

> <r_i_glide_einternal>
4.26267671585083

> <i_i_glide_confnum>
4

> <i_i_glide_posenum>
143

> <r_i_glide_eff_state_penalty>
0

> <s_user_duplicate_titles>
CHEMBL301_lig268

> <s_m_subgroup_title>
dock_pv

> <s_m_subgroupid>
dock_pv

> <b_m_subgroup_collapsed>
1

$$$$
CHEMBL301_lig1481
                    3D
 Schrodinger Suite 2021-1.
 46 48  0  0  1  0            999 V2000
    1.0945   24.9965   10.2834 C   0  0  0  0  0  0
    1.0309   26.4076   10.1164 O   0  0  0  0  0  0
    0.3420   27.1891   11.0204 C   0  0  0  0  0  0
   -0.2447   26.6455   12.1770 C   0  0  0  0  0  0
   -0.9241   27.4540   13.0767 C   0  0  0  0  0  0
   -1.4727   26.9128   14.1884 F   0  0  0  0  0  0
   -1.0244   28.8176   12.8379 C   0  0  0  0  0  0
   -0.4588   29.3694   11.6937 C   0  0  0  0  0  0
    0.2240   28.5757   10.7593 C   0  0  0  0  0  0
    0.8011   29.2342    9.5382 C   0  0  0  0  0  0
    2.0461   28.8345    9.1521 N   0  0  0  0  0  0
    2.6210   29.4517    8.0840 C   0  0  0  0  0  0
    3.8513   28.9993    7.5892 N   0  0  0  0  0  0
    4.4176   27.7107    7.5604 C   0  0  0  0  0  0
    4.0276   26.6565    8.3956 C   0  0  0  0  0  0
    4.4928   25.3612    8.1759 C   0  0  0  0  0  0
    4.0576   24.3414    8.9513 F   0  0  0  0  0  0
    5.4055   25.1123    7.1578 C   0  0  0  0  0  0
    5.8484   26.1581    6.3507 C   0  0  0  0  0  0
    6.8193   25.8771    5.2181 C   0  0  0  0  0  0
    5.9884   25.7620    3.5253 S   0  0  2  0  0  0
    4.7418   24.9154    3.7760 N   0  0  0  0  0  0
    6.9925   25.4546    2.5053 O   0  0  0  0  0  0
    5.2502   27.4519    3.1820 C   0  0  0  0  0  0
    5.3507   27.4475    6.5604 C   0  0  0  0  0  0
    2.0580   30.4683    7.3809 N   0  0  0  0  0  0
    0.8189   30.8562    7.7758 C   0  0  0  0  0  0
    0.1356   30.2520    8.8322 C   0  0  0  0  0  0
   -1.1112   30.6680    9.1560 F   0  0  0  0  0  0
    1.5949   24.5581    9.4212 H   0  0  0  0  0  0
    1.6669   24.7277   11.1731 H   0  0  0  0  0  0
    0.1004   24.5524   10.3396 H   0  0  0  0  0  0
   -0.1753   25.5957   12.4053 H   0  0  0  0  0  0
   -1.5422   29.4521   13.5418 H   0  0  0  0  0  0
   -0.5528   30.4345   11.5401 H   0  0  0  0  0  0
    4.2061   29.6149    6.8685 H   0  0  0  0  0  0
    3.3385   26.7979    9.2087 H   0  0  0  0  0  0
    5.7561   24.1042    6.9950 H   0  0  0  0  0  0
    7.3368   24.9315    5.3713 H   0  0  0  0  0  0
    7.5814   26.6516    5.1512 H   0  0  0  0  0  0
    4.4601   24.4467    2.9167 H   0  0  0  0  0  0
    4.4795   27.6619    3.9211 H   0  0  0  0  0  0
    4.8148   27.4256    2.1841 H   0  0  0  0  0  0
    6.0522   28.1883    3.2347 H   0  0  0  0  0  0
    5.6580   28.2476    5.9039 H   0  0  0  0  0  0
    0.3781   31.6787    7.2371 H   0  0  0  0  0  0
  1  2  1  0  0  0
  1 30  1  0  0  0
  1 31  1  0  0  0
  1 32  1  0  0  0
  2  3  1  0  0  0
  3  4  2  0  0  0
  3  9  1  0  0  0
  4  5  1  0  0  0
  4 33  1  0  0  0
  5  6  1  0  0  0
  5  7  2  0  0  0
  7  8  1  0  0  0
  7 34  1  0  0  0
  8  9  2  0  0  0
  8 35  1  0  0  0
  9 10  1  0  0  0
 10 11  2  0  0  0
 10 28  1  0  0  0
 11 12  1  0  0  0
 12 13  1  0  0  0
 12 26  2  0  0  0
 13 14  1  0  0  0
 13 36  1  0  0  0
 14 15  2  0  0  0
 14 25  1  0  0  0
 15 16  1  0  0  0
 15 37  1  0  0  0
 16 17  1  0  0  0
 16 18  2  0  0  0
 18 19  1  0  0  0
 18 38  1  0  0  0
 19 20  1  0  0  0
 19 25  2  0  0  0
 20 21  1  0  0  0
 20 39  1  0  0  0
 20 40  1  0  0  0
 21 22  2  0  0  0
 21 23  2  0  0  0
 21 24  1  0  0  0
 22 41  1  0  0  0
 24 42  1  0  0  0
 24 43  1  0  0  0
 24 44  1  0  0  0
 25 45  1  0  0  0
 26 27  1  0  0  0
 27 28  2  0  0  0
 27 46  1  0  0  0
 28 29  1  0  0  0
M  END
> <s_m_entry_id>
33180

> <s_m_entry_name>
dock_pv.581

> <s_m_Source_Path>
/home/csk/Desktop/cluster/DUD-E-result/cdk2

> <s_m_Source_File>
dock_pv.maegz

> <i_m_Source_File_Index>
581

> <chembl_id>
CHEMBL3962241

> <chembl_pref_name>
None

> <i_lp_mmshare_version>
53161

> <i_f3d_flags>
0

> <r_lp_tautomer_probability>
0.999999987636

> <s_lp_Force_Field>
OPLS_2005

> <r_lp_Energy>
16.917794

> <b_lp_Chiralities_Consistent>
1

> <s_lp_Variant>
CHEMBL301_lig1481-1

> <s_i_glide_gridfile>
glide-grid_1h00

> <i_i_glide_lignum>
2002

> <i_i_glide_rotatable_bonds>
6

> <r_i_docking_score>
-6.83575386522944

> <r_i_glide_ligand_efficiency>
-0.235715650525153

> <r_i_glide_ligand_efficiency_sa>
-0.724193158373055

> <r_i_glide_ligand_efficiency_ln>
-1.56521429537568

> <r_i_glide_gscore>
-6.83575386522944

> <r_i_glide_lipo>
-2.35125892513064

> <r_i_glide_hbond>
-0.357699731332401

> <r_i_glide_metal>
0

> <r_i_glide_rewards>
-1.91581900305707

> <r_i_glide_evdw>
-38.763786315918

> <r_i_glide_ecoul>
-4.84728813171387

> <r_i_glide_erotb>
0.555088665025039

> <r_i_glide_esite>
-0.10078233518139

> <r_i_glide_emodel>
-56.7862068856085

> <r_i_glide_energy>
-43.6110744476318

> <r_i_glide_einternal>
9.42738723754883

> <i_i_glide_confnum>
140

> <i_i_glide_posenum>
204

> <r_i_glide_eff_state_penalty>
0

> <s_user_duplicate_titles>
CHEMBL301_lig1481

> <s_m_subgroup_title>
dock_pv

> <s_m_subgroupid>
dock_pv

> <b_m_subgroup_collapsed>
1

$$$$
CHEMBL301_lig1113
                    3D
 Schrodinger Suite 2021-1.
 55 59  0  0  1  0            999 V2000
    2.1355   22.9996   10.4214 C   0  0  0  0  0  0
    1.2981   23.2610   11.6618 C   0  0  0  0  0  0
   -0.4396   25.8252   11.5086 C   0  0  0  0  0  0
   -0.5823   24.5379   10.7164 C   0  0  0  0  0  0
   -0.1377   23.3002   11.3769 N   0  0  2  0  0  0
   -0.3017   28.7210   12.6185 C   0  0  0  0  0  0
   -1.3844   27.6890   12.9735 C   0  0  0  0  0  0
   -1.4683   26.4397   12.1164 C   0  0  0  0  0  0
   -0.5702   29.3995   11.3546 N   0  0  0  0  0  0
    2.0902   28.9833    8.8011 C   0  0  0  0  0  0
    1.3781   28.6519    9.9509 C   0  0  0  0  0  0
    0.4105   30.6373    8.1550 C   0  0  0  0  0  0
    1.6131   29.9766    7.9330 C   0  0  0  0  0  0
    3.3549   26.8856    8.6701 N   0  0  0  0  0  0
    3.3232   28.2370    8.4479 C   0  0  0  0  0  0
    4.3408   28.8764    7.7531 C   0  0  0  0  0  0
    5.3099   28.0715    7.1904 C   0  0  0  0  0  0
    5.3547   26.7321    7.3372 N   0  0  0  0  0  0
    4.3698   26.1856    8.0794 C   0  0  0  0  0  0
    2.8173   24.0461    9.7911 C   0  0  0  0  0  0
    3.6580   23.7908    8.7014 C   0  0  0  0  0  0
    3.7844   22.4792    8.2283 C   0  0  0  0  0  0
    3.0629   21.4422    8.8187 C   0  0  0  0  0  0
    2.2341   21.7031    9.9082 C   0  0  0  0  0  0
    4.4127   24.7880    8.0773 N   0  0  0  0  0  0
   -0.8729   23.0685   12.6186 C   0  0  0  0  0  0
   -0.3049   30.3479    9.3191 C   0  0  0  0  0  0
    0.2242   29.3816   10.2294 C   0  0  0  0  0  0
   -1.6188   30.2520   11.1206 C   0  0  0  0  0  0
   -1.5167   30.8396    9.8834 C   0  0  0  0  0  0
    1.6158   24.1770   12.1629 H   0  0  0  0  0  0
    1.5134   22.4429   12.3525 H   0  0  0  0  0  0
    0.5651   26.1997   11.6295 H   0  0  0  0  0  0
   -0.0152   24.6520    9.7913 H   0  0  0  0  0  0
   -1.6200   24.4237   10.3989 H   0  0  0  0  0  0
    0.6959   28.2846   12.6112 H   0  0  0  0  0  0
   -0.2848   29.5023   13.3760 H   0  0  0  0  0  0
   -2.3422   28.1909   12.9326 H   0  0  0  0  0  0
   -1.2679   27.3668   14.0083 H   0  0  0  0  0  0
   -2.4575   26.0125   12.0220 H   0  0  0  0  0  0
    1.7619   27.9076   10.6328 H   0  0  0  0  0  0
    0.0570   31.3802    7.4571 H   0  0  0  0  0  0
    2.1572   30.2133    7.0293 H   0  0  0  0  0  0
    4.3368   29.9383    7.5801 H   0  0  0  0  0  0
    6.0580   28.5132    6.5760 H   0  0  0  0  0  0
    2.7319   25.0422   10.1961 H   0  0  0  0  0  0
    4.4233   22.2637    7.3841 H   0  0  0  0  0  0
    3.1468   20.4373    8.4318 H   0  0  0  0  0  0
    1.6849   20.8933   10.3678 H   0  0  0  0  0  0
    5.1473   24.4409    7.4813 H   0  0  0  0  0  0
   -1.9421   23.1103   12.4415 H   0  0  0  0  0  0
   -0.6508   22.0792   13.0218 H   0  0  0  0  0  0
   -0.6301   23.8090   13.3828 H   0  0  0  0  0  0
   -2.3420   30.4000   11.8986 H   0  0  0  0  0  0
   -2.1964   31.5731    9.4750 H   0  0  0  0  0  0
  1 20  2  0  0  0
  1  2  1  0  0  0
  1 24  1  0  0  0
  2  5  1  0  0  0
  2 31  1  0  0  0
  2 32  1  0  0  0
  3  8  2  0  0  0
  3  4  1  0  0  0
  3 33  1  0  0  0
  4  5  1  0  0  0
  4 34  1  0  0  0
  4 35  1  0  0  0
  5 26  1  0  0  0
  6  7  1  0  0  0
  6  9  1  0  0  0
  6 36  1  0  0  0
  6 37  1  0  0  0
  7  8  1  0  0  0
  7 38  1  0  0  0
  7 39  1  0  0  0
  8 40  1  0  0  0
  9 28  1  0  0  0
  9 29  1  0  0  0
 10 11  2  0  0  0
 10 13  1  0  0  0
 10 15  1  0  0  0
 11 28  1  0  0  0
 11 41  1  0  0  0
 12 27  1  0  0  0
 12 13  2  0  0  0
 12 42  1  0  0  0
 13 43  1  0  0  0
 14 15  2  0  0  0
 14 19  1  0  0  0
 15 16  1  0  0  0
 16 17  2  0  0  0
 16 44  1  0  0  0
 17 18  1  0  0  0
 17 45  1  0  0  0
 18 19  2  0  0  0
 19 25  1  0  0  0
 20 21  1  0  0  0
 20 46  1  0  0  0
 21 22  2  0  0  0
 21 25  1  0  0  0
 22 23  1  0  0  0
 22 47  1  0  0  0
 23 24  2  0  0  0
 23 48  1  0  0  0
 24 49  1  0  0  0
 25 50  1  0  0  0
 26 51  1  0  0  0
 26 52  1  0  0  0
 26 53  1  0  0  0
 27 28  2  0  0  0
 27 30  1  0  0  0
 29 30  2  0  0  0
 29 54  1  0  0  0
 30 55  1  0  0  0
M  END
> <s_m_entry_id>
33181

> <s_m_entry_name>
dock_pv.582

> <s_m_Source_Path>
/home/csk/Desktop/cluster/DUD-E-result/cdk2

> <s_m_Source_File>
dock_pv.maegz

> <i_m_Source_File_Index>
582

> <chembl_id>
CHEMBL2035042

> <chembl_pref_name>
None

> <i_lp_mmshare_version>
53161

> <i_f3d_flags>
0

> <r_lp_tautomer_probability>
0.999999993818

> <s_lp_Force_Field>
OPLS_2005

> <r_lp_Energy>
36.456539

> <b_lp_Chiralities_Consistent>
1

> <s_lp_Variant>
CHEMBL301_lig1113-1

> <s_i_glide_gridfile>
glide-grid_1h00

> <i_i_glide_lignum>
1521

> <i_i_glide_rotatable_bonds>
0

> <r_i_docking_score>
-6.83352505843157

> <r_i_glide_ligand_efficiency>
-0.227784168614386

> <r_i_glide_ligand_efficiency_sa>
-0.707778372257863

> <r_i_glide_ligand_efficiency_ln>
-1.55265135049472

> <r_i_glide_gscore>
-6.83352505843157

> <r_i_glide_lipo>
-3.22950421674709

> <r_i_glide_hbond>
0

> <r_i_glide_metal>
0

> <r_i_glide_rewards>
-1.41135373887076

> <r_i_glide_evdw>
-29.9750633239746

> <r_i_glide_ecoul>
-4.6260929107666

> <r_i_glide_erotb>
0

> <r_i_glide_esite>
0

> <r_i_glide_emodel>
-41.6284575453962

> <r_i_glide_energy>
-34.6011562347412

> <r_i_glide_einternal>
0

> <i_i_glide_confnum>
1

> <i_i_glide_posenum>
82

> <r_i_glide_eff_state_penalty>
0

> <s_user_duplicate_titles>
CHEMBL301_lig1113

> <s_m_subgroup_title>
dock_pv

> <s_m_subgroupid>
dock_pv

> <b_m_subgroup_collapsed>
1

$$$$
CHEMBL301_lig1393
                    3D
 Schrodinger Suite 2021-1.
 51 52  0  0  1  0            999 V2000
    4.5794   26.8171    3.5290 C   0  0  0  0  0  0
    5.1998   26.6390    4.7951 O   0  0  0  0  0  0
    4.7733   27.3494    5.8999 C   0  0  0  0  0  0
    3.8199   28.3822    5.8385 C   0  0  0  0  0  0
    3.3801   29.0392    6.9928 C   0  0  0  0  0  0
    2.4578   30.0869    6.8860 N   0  0  0  0  0  0
    1.4062   30.5097    7.7105 C   0  0  0  0  0  0
    0.9336   31.7481    7.4368 N   0  0  0  0  0  0
   -0.1233   32.1745    8.1761 C   0  0  0  0  0  0
   -0.7418   31.3735    9.1408 C   0  0  0  0  0  0
   -2.2555   32.0336   10.0991 Br  0  0  0  0  0  0
   -0.1830   30.1053    9.3685 C   0  0  0  0  0  0
   -0.7596   29.2640   10.3397 N   0  0  0  0  0  0
   -0.3043   27.8926   10.5991 C   0  0  2  0  0  0
   -0.9213   26.9097    9.5861 C   0  0  0  0  0  0
   -0.5938   27.4426   12.0602 C   0  0  1  0  0  0
   -0.1370   26.0111   12.3957 C   0  0  0  0  0  0
    0.0580   28.2921   12.9751 O   0  0  0  0  0  0
    0.9022   29.6771    8.6604 N   0  0  0  0  0  0
    3.9084   28.6664    8.2219 C   0  0  0  0  0  0
    4.8912   27.6853    8.2936 C   0  0  0  0  0  0
    5.3208   27.0132    7.1458 C   0  0  0  0  0  0
    6.5103   25.6734    7.3502 S   0  0  1  0  0  0
    7.2754   25.9194    8.5758 O   0  0  0  0  0  0
    5.6142   24.4350    7.1350 N   0  0  0  0  0  0
    6.1695   23.1291    6.9131 C   0  0  0  0  0  0
    7.7047   25.6569    5.8857 C   0  0  0  0  0  0
    5.1019   26.2083    2.7918 H   0  0  0  0  0  0
    3.5426   26.4862    3.5446 H   0  0  0  0  0  0
    4.6313   27.8518    3.1911 H   0  0  0  0  0  0
    3.3874   28.6560    4.8951 H   0  0  0  0  0  0
    2.7508   30.7916    6.2239 H   0  0  0  0  0  0
   -0.4877   33.1701    7.9650 H   0  0  0  0  0  0
   -1.4802   29.6477   10.9345 H   0  0  0  0  0  0
    0.7798   27.8648   10.4622 H   0  0  0  0  0  0
   -0.3492   25.9818    9.5427 H   0  0  0  0  0  0
   -1.9408   26.6425    9.8631 H   0  0  0  0  0  0
   -0.9463   27.3281    8.5794 H   0  0  0  0  0  0
   -1.6642   27.5274   12.2580 H   0  0  0  0  0  0
   -0.6959   25.2697   11.8257 H   0  0  0  0  0  0
   -0.2915   25.7807   13.4506 H   0  0  0  0  0  0
    0.9231   25.8675   12.1790 H   0  0  0  0  0  0
    1.0007   28.0791   12.9764 H   0  0  0  0  0  0
    3.5696   29.1414    9.1268 H   0  0  0  0  0  0
    5.3032   27.4519    9.2621 H   0  0  0  0  0  0
    5.3701   22.3897    6.8880 H   0  0  0  0  0  0
    6.6895   23.0809    5.9570 H   0  0  0  0  0  0
    6.8588   22.8518    7.7092 H   0  0  0  0  0  0
    7.1892   25.3321    4.9847 H   0  0  0  0  0  0
    8.1169   26.6520    5.7532 H   0  0  0  0  0  0
    8.5089   24.9595    6.1131 H   0  0  0  0  0  0
  1  2  1  0  0  0
  1 28  1  0  0  0
  1 29  1  0  0  0
  1 30  1  0  0  0
  2  3  1  0  0  0
  3  4  2  0  0  0
  3 22  1  0  0  0
  4  5  1  0  0  0
  4 31  1  0  0  0
  5  6  1  0  0  0
  5 20  2  0  0  0
  6  7  1  0  0  0
  6 32  1  0  0  0
  7  8  2  0  0  0
  7 19  1  0  0  0
  8  9  1  0  0  0
  9 10  2  0  0  0
  9 33  1  0  0  0
 10 11  1  0  0  0
 10 12  1  0  0  0
 12 13  1  0  0  0
 12 19  2  0  0  0
 13 14  1  0  0  0
 13 34  1  0  0  0
 14 15  1  0  0  0
 14 16  1  0  0  0
 14 35  1  0  0  0
 15 36  1  0  0  0
 15 37  1  0  0  0
 15 38  1  0  0  0
 16 17  1  0  0  0
 16 18  1  0  0  0
 16 39  1  0  0  0
 17 40  1  0  0  0
 17 41  1  0  0  0
 17 42  1  0  0  0
 18 43  1  0  0  0
 20 21  1  0  0  0
 20 44  1  0  0  0
 21 22  2  0  0  0
 21 45  1  0  0  0
 22 23  1  0  0  0
 23 24  2  0  0  0
 23 25  2  0  0  0
 23 27  1  0  0  0
 25 26  1  0  0  0
 26 46  1  0  0  0
 26 47  1  0  0  0
 26 48  1  0  0  0
 27 49  1  0  0  0
 27 50  1  0  0  0
 27 51  1  0  0  0
M  END
> <s_m_entry_id>
33182

> <s_m_entry_name>
dock_pv.583

> <s_m_Source_Path>
/home/csk/Desktop/cluster/DUD-E-result/cdk2

> <s_m_Source_File>
dock_pv.maegz

> <i_m_Source_File_Index>
583

> <chembl_id>
CHEMBL3648113

> <chembl_pref_name>
None

> <i_lp_mmshare_version>
53161

> <i_f3d_flags>
0

> <r_lp_tautomer_probability>
0.999999624730965

> <s_lp_Force_Field>
OPLS_2005

> <r_lp_Energy>
12.781478

> <b_lp_Chiralities_Consistent>
1

> <s_lp_Variant>
CHEMBL301_lig1393-1

> <s_i_glide_gridfile>
glide-grid_1h00

> <i_i_glide_lignum>
1887

> <i_i_glide_rotatable_bonds>
8

> <r_i_docking_score>
-6.83285871357393

> <r_i_glide_ligand_efficiency>
-0.253068841243479

> <r_i_glide_ligand_efficiency_sa>
-0.759206522896363

> <r_i_glide_ligand_efficiency_ln>
-1.59057686004016

> <r_i_glide_gscore>
-6.83285871357393

> <r_i_glide_lipo>
-2.60453342485699

> <r_i_glide_hbond>
-0.462608191067647

> <r_i_glide_metal>
0

> <r_i_glide_rewards>
-1.11783307831743

> <r_i_glide_evdw>
-39.0050888061523

> <r_i_glide_ecoul>
-8.47982215881348

> <r_i_glide_erotb>
0.574343744797779

> <r_i_glide_esite>
0

> <r_i_glide_emodel>
-60.829914206147

> <r_i_glide_energy>
-47.4849109649658

> <r_i_glide_einternal>
5.40755271911621

> <i_i_glide_confnum>
81

> <i_i_glide_posenum>
286

> <r_i_glide_eff_state_penalty>
0

> <s_user_duplicate_titles>
CHEMBL301_lig1393

> <s_m_subgroup_title>
dock_pv

> <s_m_subgroupid>
dock_pv

> <b_m_subgroup_collapsed>
1

$$$$
CHEMBL301_lig794
                    3D
 Schrodinger Suite 2021-1.
 48 50  0  0  1  0            999 V2000
    4.8529   27.6916    5.8206 C   0  0  0  0  0  0
    5.3388   27.0987    6.9915 C   0  0  0  0  0  0
    4.8039   27.4931    8.2156 C   0  0  0  0  0  0
    3.8186   28.4684    8.2930 C   0  0  0  0  0  0
    3.3202   29.0509    7.1304 C   0  0  0  0  0  0
    3.8446   28.6518    5.8935 C   0  0  0  0  0  0
    2.3139   30.0294    7.1689 N   0  0  0  0  0  0
    1.2587   30.2700    8.0668 C   0  0  0  0  0  0
    1.0263   29.4214    9.1050 N   0  0  0  0  0  0
   -0.0678   29.6400    9.8869 C   0  0  0  0  0  0
   -0.9170   30.7320    9.6316 C   0  0  0  0  0  0
   -0.5782   31.5752    8.5760 C   0  0  0  0  0  0
    0.4958   31.3530    7.7767 N   0  0  0  0  0  0
   -0.3299   28.6798   11.0280 C   0  0  0  0  0  0
   -1.1059   28.9176   12.1616 C   0  0  0  0  0  0
   -1.1416   27.9084   12.9977 N   0  0  0  0  0  0
   -0.3985   26.9876   12.4491 C   0  0  0  0  0  0
    0.1277   27.3723   11.2214 N   0  0  0  0  0  0
   -0.1958   25.6466   13.1256 C   0  0  0  0  0  0
    0.9801   26.5497   10.3325 C   0  0  0  0  0  0
    0.3593   25.1702   10.0170 C   0  0  0  0  0  0
    2.4251   26.4583   10.8636 C   0  0  0  0  0  0
    6.4284   26.0564    6.9684 C   0  0  0  0  0  0
    7.3976   26.2520    6.0625 N   0  0  0  0  0  0
    6.4341   25.1236    7.7750 O   0  0  0  0  0  0
   -2.0318   30.9852   10.3567 F   0  0  0  0  0  0
    8.5428   25.3677    5.8910 C   0  0  0  0  0  0
    5.2405   27.4090    4.8508 H   0  0  0  0  0  0
    5.1680   27.0537    9.1234 H   0  0  0  0  0  0
    3.4622   28.7698    9.2635 H   0  0  0  0  0  0
    3.4812   29.0880    4.9769 H   0  0  0  0  0  0
    2.3626   30.6902    6.4082 H   0  0  0  0  0  0
   -1.1894   32.4331    8.3414 H   0  0  0  0  0  0
   -1.6467   29.8234   12.3971 H   0  0  0  0  0  0
   -0.3555   25.7038   14.2023 H   0  0  0  0  0  0
    0.8096   25.2573   12.9783 H   0  0  0  0  0  0
   -0.8951   24.9017   12.7444 H   0  0  0  0  0  0
    1.0359   27.0492    9.3761 H   0  0  0  0  0  0
    0.9152   24.6693    9.2252 H   0  0  0  0  0  0
    0.3787   24.4894   10.8635 H   0  0  0  0  0  0
   -0.6737   25.2676    9.6821 H   0  0  0  0  0  0
    3.0748   25.9887   10.1268 H   0  0  0  0  0  0
    2.8366   27.4451   11.0736 H   0  0  0  0  0  0
    2.5079   25.8719   11.7762 H   0  0  0  0  0  0
    7.4430   27.1604    5.6071 H   0  0  0  0  0  0
    9.1796   25.7341    5.0860 H   0  0  0  0  0  0
    9.1377   25.3269    6.8042 H   0  0  0  0  0  0
    8.2204   24.3567    5.6383 H   0  0  0  0  0  0
  1  2  2  0  0  0
  1  6  1  0  0  0
  1 28  1  0  0  0
  2  3  1  0  0  0
  2 23  1  0  0  0
  3  4  2  0  0  0
  3 29  1  0  0  0
  4  5  1  0  0  0
  4 30  1  0  0  0
  5  7  1  0  0  0
  5  6  2  0  0  0
  6 31  1  0  0  0
  7  8  1  0  0  0
  7 32  1  0  0  0
  8 13  1  0  0  0
  8  9  2  0  0  0
  9 10  1  0  0  0
 10 14  1  0  0  0
 10 11  2  0  0  0
 11 12  1  0  0  0
 11 26  1  0  0  0
 12 13  2  0  0  0
 12 33  1  0  0  0
 14 15  2  0  0  0
 14 18  1  0  0  0
 15 16  1  0  0  0
 15 34  1  0  0  0
 16 17  2  0  0  0
 17 18  1  0  0  0
 17 19  1  0  0  0
 18 20  1  0  0  0
 19 35  1  0  0  0
 19 36  1  0  0  0
 19 37  1  0  0  0
 20 21  1  0  0  0
 20 22  1  0  0  0
 20 38  1  0  0  0
 21 39  1  0  0  0
 21 40  1  0  0  0
 21 41  1  0  0  0
 22 42  1  0  0  0
 22 43  1  0  0  0
 22 44  1  0  0  0
 23 24  1  0  0  0
 23 25  2  0  0  0
 24 27  1  0  0  0
 24 45  1  0  0  0
 27 46  1  0  0  0
 27 47  1  0  0  0
 27 48  1  0  0  0
M  END
> <s_m_entry_id>
33183

> <s_m_entry_name>
dock_pv.584

> <s_m_Source_Path>
/home/csk/Desktop/cluster/DUD-E-result/cdk2

> <s_m_Source_File>
dock_pv.maegz

> <i_m_Source_File_Index>
584

> <chembl_id>
CHEMBL453655

> <chembl_pref_name>
None

> <i_lp_mmshare_version>
53161

> <i_f3d_flags>
0

> <r_lp_tautomer_probability>
0.999999987636

> <s_lp_Force_Field>
OPLS_2005

> <r_lp_Energy>
21.850381

> <b_lp_Chiralities_Consistent>
1

> <s_lp_Variant>
CHEMBL301_lig794-1

> <s_i_glide_gridfile>
glide-grid_1h00

> <i_i_glide_lignum>
1133

> <i_i_glide_rotatable_bonds>
6

> <r_i_docking_score>
-6.83282280626553

> <r_i_glide_ligand_efficiency>
-0.253067511343168

> <r_i_glide_ligand_efficiency_sa>
-0.759202533195434

> <r_i_glide_ligand_efficiency_ln>
-1.59056850141074

> <r_i_glide_gscore>
-6.83282280626553

> <r_i_glide_lipo>
-2.24927987624777

> <r_i_glide_hbond>
-0.32

> <r_i_glide_metal>
0

> <r_i_glide_rewards>
-1.92902904150594

> <r_i_glide_evdw>
-41.1451568603516

> <r_i_glide_ecoul>
-5.29396486282349

> <r_i_glide_erotb>
0.567900994146025

> <r_i_glide_esite>
-0.0510623102167418

> <r_i_glide_emodel>
-63.3200414107716

> <r_i_glide_energy>
-46.439121723175

> <r_i_glide_einternal>
3.1274950504303

> <i_i_glide_confnum>
9

> <i_i_glide_posenum>
130

> <r_i_glide_eff_state_penalty>
0

> <s_user_duplicate_titles>
CHEMBL301_lig794,453106

> <s_m_subgroup_title>
dock_pv

> <s_m_subgroupid>
dock_pv

> <b_m_subgroup_collapsed>
1

$$$$
CHEMBL301_lig1503
                    3D
 Schrodinger Suite 2021-1.
 56 59  0  0  1  0            999 V2000
    2.0394   20.6268    7.1031 C   0  0  0  0  0  0
    1.9598   19.7809    8.3835 C   0  0  0  0  0  0
    1.4490   20.4750    9.5196 O   0  0  0  0  0  0
    2.1959   21.3989   10.1900 C   0  0  0  0  0  0
    3.2580   21.8533    9.7755 O   0  0  0  0  0  0
    1.7063   21.7729   11.4324 N   0  0  0  0  0  0
    0.4502   21.0804   12.0196 S   0  0  1  0  0  0
   -0.8508   21.0360   11.3496 O   0  0  0  0  0  0
    1.0890   19.3465   12.4167 C   0  0  0  0  0  0
    0.2607   21.9158   13.6996 C   0  0  0  0  0  0
   -0.6414   23.1418   13.6735 C   0  0  0  0  0  0
   -1.7409   23.2342   14.5315 C   0  0  0  0  0  0
   -2.5492   24.3703   14.5118 C   0  0  0  0  0  0
   -2.2712   25.4131   13.6281 C   0  0  0  0  0  0
   -1.1819   25.3330   12.7546 C   0  0  0  0  0  0
   -0.9737   26.4070   11.8709 N   0  0  0  0  0  0
    0.1199   26.8133   11.0953 C   0  0  0  0  0  0
    1.2812   26.1139   11.1359 N   0  0  0  0  0  0
    2.3285   26.6304   10.4531 C   0  0  0  0  0  0
    2.2440   27.8254    9.7407 C   0  0  0  0  0  0
    3.3532   28.2887    9.1217 F   0  0  0  0  0  0
    0.9966   28.4862    9.7074 C   0  0  0  0  0  0
   -0.0637   27.9571   10.3909 N   0  0  0  0  0  0
    0.7454   29.7894    8.9820 C   0  0  0  0  0  0
    1.6094   30.2461    7.9655 C   0  0  0  0  0  0
    1.4569   31.4992    7.3755 C   0  0  0  0  0  0
    0.4280   32.3428    7.7761 C   0  0  0  0  0  0
   -0.5074   31.8801    8.7002 C   0  0  0  0  0  0
   -1.7509   32.5012    9.2449 C   0  0  0  0  0  0
   -2.2599   31.4417   10.2245 C   0  0  0  0  0  0
   -1.3232   30.3667   10.2107 O   0  0  0  0  0  0
   -0.3426   30.6360    9.2866 C   0  0  0  0  0  0
   -0.3689   24.1910   12.7924 C   0  0  0  0  0  0
    2.3772   20.0230    6.2618 H   0  0  0  0  0  0
    2.7423   21.4522    7.2098 H   0  0  0  0  0  0
    1.0717   21.0499    6.8424 H   0  0  0  0  0  0
    1.3014   18.9314    8.2020 H   0  0  0  0  0  0
    2.9394   19.3588    8.6157 H   0  0  0  0  0  0
    2.1100   19.4109   12.7868 H   0  0  0  0  0  0
    0.4533   18.8915   13.1704 H   0  0  0  0  0  0
    1.0448   18.7413   11.5126 H   0  0  0  0  0  0
   -0.1489   21.1576   14.3652 H   0  0  0  0  0  0
    1.2579   22.1646   14.0488 H   0  0  0  0  0  0
   -1.9718   22.4274   15.2120 H   0  0  0  0  0  0
   -3.4007   24.4416   15.1722 H   0  0  0  0  0  0
   -2.9085   26.2869   13.6233 H   0  0  0  0  0  0
   -1.7537   27.0435   11.8001 H   0  0  0  0  0  0
    3.2577   26.0835   10.5017 H   0  0  0  0  0  0
    2.4292   29.6455    7.6093 H   0  0  0  0  0  0
    2.1570   31.8167    6.6184 H   0  0  0  0  0  0
    0.3267   33.3195    7.3273 H   0  0  0  0  0  0
   -1.5722   33.4457    9.7587 H   0  0  0  0  0  0
   -2.5011   32.6528    8.4723 H   0  0  0  0  0  0
   -3.2391   31.0754    9.9141 H   0  0  0  0  0  0
   -2.3431   31.8499   11.2324 H   0  0  0  0  0  0
    0.4668   24.0816   12.1236 H   0  0  0  0  0  0
  1  2  1  0  0  0
  1 34  1  0  0  0
  1 35  1  0  0  0
  1 36  1  0  0  0
  2  3  1  0  0  0
  2 37  1  0  0  0
  2 38  1  0  0  0
  3  4  1  0  0  0
  4  5  2  0  0  0
  4  6  1  0  0  0
  6  7  2  0  0  0
  7  8  2  0  0  0
  7  9  1  0  0  0
  7 10  1  0  0  0
  9 39  1  0  0  0
  9 40  1  0  0  0
  9 41  1  0  0  0
 10 11  1  0  0  0
 10 42  1  0  0  0
 10 43  1  0  0  0
 11 12  2  0  0  0
 11 33  1  0  0  0
 12 13  1  0  0  0
 12 44  1  0  0  0
 13 14  2  0  0  0
 13 45  1  0  0  0
 14 15  1  0  0  0
 14 46  1  0  0  0
 15 16  1  0  0  0
 15 33  2  0  0  0
 16 17  1  0  0  0
 16 47  1  0  0  0
 17 18  2  0  0  0
 17 23  1  0  0  0
 18 19  1  0  0  0
 19 20  2  0  0  0
 19 48  1  0  0  0
 20 21  1  0  0  0
 20 22  1  0  0  0
 22 23  2  0  0  0
 22 24  1  0  0  0
 24 25  2  0  0  0
 24 32  1  0  0  0
 25 26  1  0  0  0
 25 49  1  0  0  0
 26 27  2  0  0  0
 26 50  1  0  0  0
 27 28  1  0  0  0
 27 51  1  0  0  0
 28 29  1  0  0  0
 28 32  2  0  0  0
 29 30  1  0  0  0
 29 52  1  0  0  0
 29 53  1  0  0  0
 30 31  1  0  0  0
 30 54  1  0  0  0
 30 55  1  0  0  0
 31 32  1  0  0  0
 33 56  1  0  0  0
M  END
> <s_m_entry_id>
33184

> <s_m_entry_name>
dock_pv.585

> <s_m_Source_Path>
/home/csk/Desktop/cluster/DUD-E-result/cdk2

> <s_m_Source_File>
dock_pv.maegz

> <i_m_Source_File_Index>
585

> <chembl_id>
CHEMBL3972796

> <chembl_pref_name>
None

> <i_lp_mmshare_version>
53161

> <i_f3d_flags>
0

> <r_lp_tautomer_probability>
0.999999987636

> <s_lp_Force_Field>
OPLS_2005

> <r_lp_Energy>
20.158885

> <b_lp_Chiralities_Consistent>
1

> <s_lp_Variant>
CHEMBL301_lig1503-1

> <s_i_glide_gridfile>
glide-grid_1h00

> <i_i_glide_lignum>
2046

> <i_i_glide_rotatable_bonds>
8

> <r_i_docking_score>
-6.83207764693804

> <r_i_glide_ligand_efficiency>
-0.207032655967819

> <r_i_glide_ligand_efficiency_sa>
-0.664064350673027

> <r_i_glide_ligand_efficiency_ln>
-1.51941869407417

> <r_i_glide_gscore>
-6.83207764693804

> <r_i_glide_lipo>
-2.5277493297033

> <r_i_glide_hbond>
-0.48

> <r_i_glide_metal>
0

> <r_i_glide_rewards>
-1.09120400205911

> <r_i_glide_evdw>
-42.5651245117188

> <r_i_glide_ecoul>
-7.77965307235718

> <r_i_glide_erotb>
0.638880061059516

> <r_i_glide_esite>
-0.0768001897956285

> <r_i_glide_emodel>
-67.652488099244

> <r_i_glide_energy>
-50.3447775840759

> <r_i_glide_einternal>
9.16621780395508

> <i_i_glide_confnum>
24

> <i_i_glide_posenum>
4

> <r_i_glide_eff_state_penalty>
0

> <s_user_duplicate_titles>
CHEMBL301_lig1503

> <s_m_subgroup_title>
dock_pv

> <s_m_subgroupid>
dock_pv

> <b_m_subgroup_collapsed>
1

$$$$
CHEMBL301_lig11
                    3D
 Schrodinger Suite 2021-1.
 68 70  0  0  1  0            999 V2000
    6.7484   24.9130    6.8481 N   0  0  0  0  0  0
    7.6241   25.7675    7.3898 C   0  0  0  0  0  0
    8.8576   26.0833    6.9759 N   0  0  0  0  0  0
    9.3276   25.4986    5.8443 C   0  0  0  0  0  0
    7.2518   24.3302    5.7323 C   0  0  0  0  0  0
    8.5014   24.5580    5.1848 C   0  0  0  0  0  0
    8.6925   23.8014    4.0927 N   0  0  0  0  0  0
    7.5829   23.1159    3.9782 C   0  0  0  0  0  0
    6.6555   23.4133    4.9154 N   0  0  0  0  0  0
   10.6007   25.8517    5.4074 N   0  0  0  0  0  0
    5.2759   22.8396    5.1648 C   0  0  2  0  0  0
    5.2710   22.0199    6.2942 O   0  0  0  0  0  0
    4.0889   21.2419    6.2849 C   0  0  1  0  0  0
    4.0046   20.8564    4.8018 C   0  0  2  0  0  0
    4.6005   22.0520    4.0296 C   0  0  1  0  0  0
    2.6873   20.5319    4.3816 O   0  0  0  0  0  0
    3.6589   22.8958    3.3764 O   0  0  0  0  0  0
    4.2160   20.0652    7.2992 C   0  0  0  0  0  0
    3.6353   20.3054    8.5869 O   0  0  0  0  0  0
    2.0471   20.6591    8.6867 P   0  0  1  0  0  0
    1.5309   20.0566   10.0983 O   0  0  0  0  0  0
    2.0579   22.2518    8.9760 O   0  0  0  0  0  0
    1.2576   20.2428    7.4990 O   0  0  0  0  0  0
    1.4461   20.4941   11.7439 P   0  0  1  0  0  0
    0.1878   21.6424   11.8126 O   0  0  0  0  0  0
    0.8581   19.1660   12.6550 O   0  0  0  0  0  0
    2.7577   21.0500   12.2589 O   0  0  0  0  0  0
   -0.0689   23.1465   12.3438 P   0  0  2  0  0  0
    0.9343   24.0755   11.3444 N   0  0  1  0  0  0
    0.0624   23.3194   13.8147 O   0  0  0  0  0  0
   -1.5399   23.4954   11.7757 O   0  0  0  0  0  0
    1.7246   25.1919   11.8510 C   0  0  0  0  0  0
    1.8177   26.3784   10.8809 C   0  0  0  0  0  0
    0.5853   27.2992   10.9603 C   0  0  0  0  0  0
    0.6589   28.4925    9.9938 C   0  0  0  0  0  0
   -0.5093   29.4775   10.1678 C   0  0  0  0  0  0
   -0.5669   30.5490    9.0534 C   0  0  0  0  0  0
   -1.5753   31.5534    9.3219 N   0  0  0  0  0  0
   -2.7420   31.1549    9.3219 N   0  3  0  0  0  0
   -3.7639   30.6525    9.2864 N   0  5  0  0  0  0
    7.2928   26.2533    8.2966 H   0  0  0  0  0  0
    7.3949   22.3829    3.2070 H   0  0  0  0  0  0
   10.9244   25.5190    4.5110 H   0  0  0  0  0  0
   11.1204   26.5466    5.9328 H   0  0  0  0  0  0
    4.6636   23.7071    5.4323 H   0  0  0  0  0  0
    3.2490   21.8938    6.5332 H   0  0  0  0  0  0
    4.6527   19.9919    4.6417 H   0  0  0  0  0  0
    5.3369   21.6861    3.3158 H   0  0  0  0  0  0
    2.2922   21.3551    4.0551 H   0  0  0  0  0  0
    4.0795   23.4162    2.6780 H   0  0  0  0  0  0
    5.2664   19.8091    7.4410 H   0  0  0  0  0  0
    3.7463   19.1701    6.8858 H   0  0  0  0  0  0
    1.7389   22.8074    8.2165 H   0  0  0  0  0  0
   -0.0392   18.7656   12.5461 H   0  0  0  0  0  0
    1.2884   23.6487   10.4867 H   0  0  0  0  0  0
   -1.7803   24.4395   11.8236 H   0  0  0  0  0  0
    2.7227   24.8233   12.0880 H   0  0  0  0  0  0
    1.2858   25.5363   12.7886 H   0  0  0  0  0  0
    1.9773   26.0259    9.8588 H   0  0  0  0  0  0
    2.7053   26.9613   11.1339 H   0  0  0  0  0  0
    0.4817   27.6704   11.9823 H   0  0  0  0  0  0
   -0.3153   26.7193   10.7558 H   0  0  0  0  0  0
    0.6640   28.1111    8.9760 H   0  0  0  0  0  0
    1.6033   29.0219   10.1238 H   0  0  0  0  0  0
   -0.4250   29.9634   11.1430 H   0  0  0  0  0  0
   -1.4475   28.9184   10.1853 H   0  0  0  0  0  0
   -0.7423   30.0850    8.0801 H   0  0  0  0  0  0
    0.3970   31.0517    8.9749 H   0  0  0  0  0  0
  1  2  2  0  0  0
  1  5  1  0  0  0
  2  3  1  0  0  0
  2 41  1  0  0  0
  3  4  2  0  0  0
  4  6  1  0  0  0
  4 10  1  0  0  0
  5  9  1  0  0  0
  5  6  2  0  0  0
  6  7  1  0  0  0
  7  8  2  0  0  0
  8  9  1  0  0  0
  8 42  1  0  0  0
  9 11  1  0  0  0
 10 43  1  0  0  0
 10 44  1  0  0  0
 11 12  1  0  0  0
 11 15  1  0  0  0
 11 45  1  0  0  0
 12 13  1  0  0  0
 13 14  1  0  0  0
 13 18  1  0  0  0
 13 46  1  0  0  0
 14 15  1  0  0  0
 14 16  1  0  0  0
 14 47  1  0  0  0
 15 17  1  0  0  0
 15 48  1  0  0  0
 16 49  1  0  0  0
 17 50  1  0  0  0
 18 19  1  0  0  0
 18 51  1  0  0  0
 18 52  1  0  0  0
 19 20  1  0  0  0
 20 21  1  0  0  0
 20 22  1  0  0  0
 20 23  2  0  0  0
 21 24  1  0  0  0
 22 53  1  0  0  0
 24 25  1  0  0  0
 24 26  1  0  0  0
 24 27  2  0  0  0
 25 28  1  0  0  0
 26 54  1  0  0  0
 28 29  1  0  0  0
 28 30  2  0  0  0
 28 31  1  0  0  0
 29 32  1  0  0  0
 29 55  1  0  0  0
 31 56  1  0  0  0
 32 33  1  0  0  0
 32 57  1  0  0  0
 32 58  1  0  0  0
 33 34  1  0  0  0
 33 59  1  0  0  0
 33 60  1  0  0  0
 34 35  1  0  0  0
 34 61  1  0  0  0
 34 62  1  0  0  0
 35 36  1  0  0  0
 35 63  1  0  0  0
 35 64  1  0  0  0
 36 37  1  0  0  0
 36 65  1  0  0  0
 36 66  1  0  0  0
 37 38  1  0  0  0
 37 67  1  0  0  0
 37 68  1  0  0  0
 38 39  2  0  0  0
 39 40  2  0  0  0
M  CHG  2  39   1  40  -1
M  END
> <s_m_entry_id>
33185

> <s_m_entry_name>
dock_pv.586

> <s_m_Source_Path>
/home/csk/Desktop/cluster/DUD-E-result/cdk2

> <s_m_Source_File>
dock_pv.maegz

> <i_m_Source_File_Index>
586

> <chembl_id>
CHEMBL550942

> <chembl_pref_name>
None

> <i_lp_mmshare_version>
53161

> <i_f3d_flags>
0

> <r_lp_tautomer_probability>
0.999997216410988

> <s_lp_Force_Field>
OPLS_2005

> <r_lp_Energy>
39.776039

> <b_lp_Chiralities_Consistent>
1

> <s_lp_Variant>
CHEMBL301_lig11-8

> <s_i_glide_gridfile>
glide-grid_1h00

> <i_i_glide_lignum>
47

> <i_i_glide_rotatable_bonds>
21

> <r_i_docking_score>
-6.82926311842991

> <r_i_glide_ligand_efficiency>
-0.170731577960748

> <r_i_glide_ligand_efficiency_sa>
-0.583893782584101

> <r_i_glide_ligand_efficiency_ln>
-1.4564808469192

> <r_i_glide_gscore>
-6.82926311842991

> <r_i_glide_lipo>
-0.864370607657811

> <r_i_glide_hbond>
-0.32

> <r_i_glide_metal>
0

> <r_i_glide_rewards>
-0.297427537480983

> <r_i_glide_evdw>
-40.2666320800781

> <r_i_glide_ecoul>
-29.4835948944092

> <r_i_glide_erotb>
0.709520437685188

> <r_i_glide_esite>
-0.0436538069723957

> <r_i_glide_emodel>
-95.1365279955726

> <r_i_glide_energy>
-69.7502269744873

> <r_i_glide_einternal>
14.1057643890381

> <i_i_glide_confnum>
19

> <i_i_glide_posenum>
6

> <r_i_glide_eff_state_penalty>
0

> <s_user_duplicate_titles>
CHEMBL301_lig11

> <s_m_subgroup_title>
dock_pv

> <s_m_subgroupid>
dock_pv

> <b_m_subgroup_collapsed>
1

$$$$
CHEMBL301_lig1462
                    3D
 Schrodinger Suite 2021-1.
 45 46  0  0  1  0            999 V2000
   -1.1419   29.2929   13.2944 C   0  0  0  0  0  0
   -0.0187   28.6618   12.6964 O   0  0  0  0  0  0
   -0.3706   27.5149   11.9322 C   0  0  0  0  0  0
   -0.2842   27.8070   10.4197 C   0  0  1  0  0  0
   -0.9736   26.6975    9.6080 C   0  0  0  0  0  0
   -0.9349   29.0575   10.1138 O   0  0  0  0  0  0
   -0.3419   29.9843    9.2632 C   0  0  0  0  0  0
    0.8028   29.6304    8.6196 N   0  0  0  0  0  0
    1.3576   30.5190    7.7638 C   0  0  0  0  0  0
    2.4580   30.1348    6.9912 N   0  0  0  0  0  0
    3.3092   29.0160    7.0277 C   0  0  0  0  0  0
    3.5085   28.2519    8.1780 C   0  0  0  0  0  0
    4.3573   27.1496    8.1317 C   0  0  0  0  0  0
    5.0679   26.8343    6.9796 C   0  0  0  0  0  0
    4.8681   27.5840    5.8254 C   0  0  0  0  0  0
    3.9910   28.6595    5.8603 C   0  0  0  0  0  0
    6.2497   25.4879    7.0585 S   0  0  0  0  0  0
    7.2352   25.8519    8.0826 O   0  0  0  0  0  0
    5.4700   24.2531    7.1904 O   0  0  0  0  0  0
    7.1332   25.4521    5.3971 C   0  0  0  0  0  0
    0.8856   31.7648    7.5298 N   0  0  0  0  0  0
   -0.2345   32.1236    8.2043 C   0  0  0  0  0  0
   -0.9199   31.2480    9.0571 C   0  0  0  0  0  0
   -2.2168   31.6720    9.7299 C   0  0  0  0  0  0
   -2.3380   32.9982    9.7746 F   0  0  0  0  0  0
   -3.2429   31.1643    9.0474 F   0  0  0  0  0  0
   -2.2692   31.2306   10.9759 F   0  0  0  0  0  0
   -0.8609   30.2518   13.7212 H   0  0  0  0  0  0
   -1.5420   28.6750   14.0983 H   0  0  0  0  0  0
   -1.9420   29.4656   12.5755 H   0  0  0  0  0  0
    0.3493   26.7339   12.1801 H   0  0  0  0  0  0
   -1.3481   27.1123   12.2101 H   0  0  0  0  0  0
    0.7799   27.8071   10.1814 H   0  0  0  0  0  0
   -0.3764   25.7852    9.6016 H   0  0  0  0  0  0
   -1.9420   26.4359   10.0294 H   0  0  0  0  0  0
   -1.1420   27.0057    8.5760 H   0  0  0  0  0  0
    2.7605   30.8417    6.3371 H   0  0  0  0  0  0
    3.0046   28.4849    9.1027 H   0  0  0  0  0  0
    4.4581   26.5091    8.9760 H   0  0  0  0  0  0
    5.3998   27.3722    4.9108 H   0  0  0  0  0  0
    3.8808   29.2535    4.9761 H   0  0  0  0  0  0
    7.8820   24.6626    5.4281 H   0  0  0  0  0  0
    6.4087   25.2435    4.6114 H   0  0  0  0  0  0
    7.6189   26.4141    5.2352 H   0  0  0  0  0  0
   -0.5847   33.1321    8.0325 H   0  0  0  0  0  0
  1  2  1  0  0  0
  1 28  1  0  0  0
  1 29  1  0  0  0
  1 30  1  0  0  0
  2  3  1  0  0  0
  3  4  1  0  0  0
  3 31  1  0  0  0
  3 32  1  0  0  0
  4  5  1  0  0  0
  4  6  1  0  0  0
  4 33  1  0  0  0
  5 34  1  0  0  0
  5 35  1  0  0  0
  5 36  1  0  0  0
  6  7  1  0  0  0
  7  8  2  0  0  0
  7 23  1  0  0  0
  8  9  1  0  0  0
  9 10  1  0  0  0
  9 21  2  0  0  0
 10 11  1  0  0  0
 10 37  1  0  0  0
 11 12  2  0  0  0
 11 16  1  0  0  0
 12 13  1  0  0  0
 12 38  1  0  0  0
 13 14  2  0  0  0
 13 39  1  0  0  0
 14 15  1  0  0  0
 14 17  1  0  0  0
 15 16  2  0  0  0
 15 40  1  0  0  0
 16 41  1  0  0  0
 17 18  2  0  0  0
 17 19  2  0  0  0
 17 20  1  0  0  0
 20 42  1  0  0  0
 20 43  1  0  0  0
 20 44  1  0  0  0
 21 22  1  0  0  0
 22 23  2  0  0  0
 22 45  1  0  0  0
 23 24  1  0  0  0
 24 25  1  0  0  0
 24 26  1  0  0  0
 24 27  1  0  0  0
M  END
> <s_m_entry_id>
33186

> <s_m_entry_name>
dock_pv.587

> <s_m_Source_Path>
/home/csk/Desktop/cluster/DUD-E-result/cdk2

> <s_m_Source_File>
dock_pv.maegz

> <i_m_Source_File_Index>
587

> <chembl_id>
CHEMBL3644027

> <chembl_pref_name>
None

> <i_lp_mmshare_version>
53161

> <i_f3d_flags>
0

> <r_lp_tautomer_probability>
0.999999917912647

> <s_lp_Force_Field>
OPLS_2005

> <r_lp_Energy>
0.574741

> <b_lp_Chiralities_Consistent>
1

> <s_lp_Variant>
CHEMBL301_lig1462-1

> <s_i_glide_gridfile>
glide-grid_1h00

> <i_i_glide_lignum>
1975

> <i_i_glide_rotatable_bonds>
8

> <r_i_docking_score>
-6.82498132575498

> <r_i_glide_ligand_efficiency>
-0.252777086139073

> <r_i_glide_ligand_efficiency_sa>
-0.758331257584108

> <r_i_glide_ligand_efficiency_ln>
-1.5887431340248

> <r_i_glide_gscore>
-6.82498132575498

> <r_i_glide_lipo>
-2.45124573269454

> <r_i_glide_hbond>
-0.157924306867323

> <r_i_glide_metal>
0

> <r_i_glide_rewards>
-2.02136384305632

> <r_i_glide_evdw>
-36.0478858947754

> <r_i_glide_ecoul>
-6.09828662872314

> <r_i_glide_erotb>
0.597902769318375

> <r_i_glide_esite>
-0.07521292340793

> <r_i_glide_emodel>
-53.4045827976463

> <r_i_glide_energy>
-42.1461725234985

> <r_i_glide_einternal>
11.1500720977783

> <i_i_glide_confnum>
59

> <i_i_glide_posenum>
197

> <r_i_glide_eff_state_penalty>
0

> <s_user_duplicate_titles>
CHEMBL301_lig1462

> <s_m_subgroup_title>
dock_pv

> <s_m_subgroupid>
dock_pv

> <b_m_subgroup_collapsed>
1

$$$$
CHEMBL301_lig1335
                    3D
 Schrodinger Suite 2021-1.
 51 52  0  0  1  0            999 V2000
    8.8186   25.9391    6.2351 C   0  0  0  0  0  0
    7.7882   25.5940    5.1478 C   0  0  0  0  0  0
    6.1817   24.9782    5.9307 S   0  0  1  0  0  0
    5.3524   24.5376    4.7234 N   0  0  0  0  0  0
    6.4631   24.1108    7.0794 O   0  0  0  0  0  0
    5.3101   26.4445    6.4886 C   0  0  0  0  0  0
    4.8577   27.3858    5.5605 C   0  0  0  0  0  0
    4.1644   28.5089    6.0001 C   0  0  0  0  0  0
    3.9300   28.6969    7.3619 C   0  0  0  0  0  0
    3.2494   29.8518    7.7575 N   0  0  0  0  0  0
    1.9275   29.9569    8.1984 C   0  0  0  0  0  0
    1.2584   31.0516    7.7577 N   0  0  0  0  0  0
   -0.0208   31.1954    8.1761 C   0  0  0  0  0  0
   -0.6594   30.2491    8.9737 C   0  0  0  0  0  0
   -2.5000   30.4827    9.4290 Br  0  0  0  0  0  0
    0.1014   29.1415    9.3760 C   0  0  0  0  0  0
   -0.4973   28.1424   10.1551 N   0  0  0  0  0  0
    0.1581   27.7158   11.3970 C   0  0  2  0  0  0
    0.3147   26.1725   11.4601 C   0  0  0  0  0  0
    1.0539   25.6256   10.3741 O   0  0  0  0  0  0
    2.4579   25.8079   10.4743 C   0  0  0  0  0  0
   -0.6159   28.2307   12.6434 C   0  0  1  0  0  0
   -0.6895   29.7628   12.7414 C   0  0  0  0  0  0
   -1.9420   27.7368   12.6415 O   0  0  0  0  0  0
    1.4127   29.0100    9.0241 N   0  0  0  0  0  0
    4.4108   27.7785    8.2909 C   0  0  0  0  0  0
    5.0925   26.6459    7.8514 C   0  0  0  0  0  0
    9.7167   26.3838    5.8022 H   0  0  0  0  0  0
    8.4111   26.6521    6.9494 H   0  0  0  0  0  0
    9.1217   25.0491    6.7907 H   0  0  0  0  0  0
    8.1621   24.8068    4.4940 H   0  0  0  0  0  0
    7.5479   26.4626    4.5355 H   0  0  0  0  0  0
    5.7880   23.7982    4.1945 H   0  0  0  0  0  0
    5.0371   27.2439    4.5050 H   0  0  0  0  0  0
    3.8178   29.2378    5.2825 H   0  0  0  0  0  0
    3.5339   30.6516    7.2038 H   0  0  0  0  0  0
   -0.5445   32.0766    7.8321 H   0  0  0  0  0  0
   -1.4915   28.2768   10.2774 H   0  0  0  0  0  0
    1.1549   28.1557   11.4618 H   0  0  0  0  0  0
   -0.6694   25.7026   11.4479 H   0  0  0  0  0  0
    0.7705   25.8661   12.4044 H   0  0  0  0  0  0
    2.9410   25.3990    9.5863 H   0  0  0  0  0  0
    2.8579   25.2876   11.3448 H   0  0  0  0  0  0
    2.7298   26.8592   10.5499 H   0  0  0  0  0  0
   -0.1237   27.8473   13.5379 H   0  0  0  0  0  0
    0.2917   30.2110   12.5773 H   0  0  0  0  0  0
   -1.3563   30.1887   11.9935 H   0  0  0  0  0  0
   -1.0627   30.0812   13.7158 H   0  0  0  0  0  0
   -2.4890   28.2515   13.2537 H   0  0  0  0  0  0
    4.2597   27.9422    9.3473 H   0  0  0  0  0  0
    5.4515   25.9299    8.5761 H   0  0  0  0  0  0
  1  2  1  0  0  0
  1 28  1  0  0  0
  1 29  1  0  0  0
  1 30  1  0  0  0
  2  3  1  0  0  0
  2 31  1  0  0  0
  2 32  1  0  0  0
  3  4  2  0  0  0
  3  5  2  0  0  0
  3  6  1  0  0  0
  4 33  1  0  0  0
  6  7  2  0  0  0
  6 27  1  0  0  0
  7  8  1  0  0  0
  7 34  1  0  0  0
  8  9  2  0  0  0
  8 35  1  0  0  0
  9 10  1  0  0  0
  9 26  1  0  0  0
 10 11  1  0  0  0
 10 36  1  0  0  0
 11 12  2  0  0  0
 11 25  1  0  0  0
 12 13  1  0  0  0
 13 14  2  0  0  0
 13 37  1  0  0  0
 14 15  1  0  0  0
 14 16  1  0  0  0
 16 17  1  0  0  0
 16 25  2  0  0  0
 17 18  1  0  0  0
 17 38  1  0  0  0
 18 19  1  0  0  0
 18 22  1  0  0  0
 18 39  1  0  0  0
 19 20  1  0  0  0
 19 40  1  0  0  0
 19 41  1  0  0  0
 20 21  1  0  0  0
 21 42  1  0  0  0
 21 43  1  0  0  0
 21 44  1  0  0  0
 22 23  1  0  0  0
 22 24  1  0  0  0
 22 45  1  0  0  0
 23 46  1  0  0  0
 23 47  1  0  0  0
 23 48  1  0  0  0
 24 49  1  0  0  0
 26 27  2  0  0  0
 26 50  1  0  0  0
 27 51  1  0  0  0
M  END
> <s_m_entry_id>
33187

> <s_m_entry_name>
dock_pv.588

> <s_m_Source_Path>
/home/csk/Desktop/cluster/DUD-E-result/cdk2

> <s_m_Source_File>
dock_pv.maegz

> <i_m_Source_File_Index>
588

> <chembl_id>
CHEMBL3648120

> <chembl_pref_name>
None

> <i_lp_mmshare_version>
53161

> <i_f3d_flags>
0

> <r_lp_tautomer_probability>
0.999999624730965

> <s_lp_Force_Field>
OPLS_2005

> <r_lp_Energy>
11.094153

> <b_lp_Chiralities_Consistent>
1

> <s_lp_Variant>
CHEMBL301_lig1335-1

> <s_i_glide_gridfile>
glide-grid_1h00

> <i_i_glide_lignum>
1763

> <i_i_glide_rotatable_bonds>
10

> <r_i_docking_score>
-6.81915387694556

> <r_i_glide_ligand_efficiency>
-0.252561254701687

> <r_i_glide_ligand_efficiency_sa>
-0.757683763272661

> <r_i_glide_ligand_efficiency_ln>
-1.58738660001497

> <r_i_glide_gscore>
-6.81915387694556

> <r_i_glide_lipo>
-2.48140987985735

> <r_i_glide_hbond>
-0.456

> <r_i_glide_metal>
0

> <r_i_glide_rewards>
-1.51051757229251

> <r_i_glide_evdw>
-41.5302925109863

> <r_i_glide_ecoul>
-7.07002305984497

> <r_i_glide_erotb>
0.765791659730373

> <r_i_glide_esite>
0

> <r_i_glide_emodel>
-64.5199090755464

> <r_i_glide_energy>
-48.6003155708313

> <r_i_glide_einternal>
9.62653255462646

> <i_i_glide_confnum>
18

> <i_i_glide_posenum>
92

> <r_i_glide_eff_state_penalty>
0

> <s_user_duplicate_titles>
CHEMBL301_lig1335

> <s_m_subgroup_title>
dock_pv

> <s_m_subgroupid>
dock_pv

> <b_m_subgroup_collapsed>
1

$$$$
CHEMBL301_lig796
                    3D
 Schrodinger Suite 2021-1.
 45 47  0  0  1  0            999 V2000
    4.5854   27.6808    8.4393 C   0  0  0  0  0  0
    5.0343   27.2610    7.1825 C   0  0  0  0  0  0
    4.4894   27.8720    6.0405 C   0  0  0  0  0  0
    3.5242   28.8696    6.1767 C   0  0  0  0  0  0
    3.0460   29.2458    7.4303 C   0  0  0  0  0  0
    3.5996   28.6516    8.5626 C   0  0  0  0  0  0
    1.9998   30.1805    7.5030 N   0  0  0  0  0  0
    0.9173   30.2656    8.3931 C   0  0  0  0  0  0
    0.7807   29.3440    9.3822 N   0  0  0  0  0  0
   -0.2866   29.4512   10.2151 C   0  0  0  0  0  0
   -1.2194   30.4850   10.0593 C   0  0  0  0  0  0
   -1.0056   31.3892    9.0160 C   0  0  0  0  0  0
    0.0579   31.2925    8.1760 N   0  0  0  0  0  0
   -0.4408   28.4336   11.3129 C   0  0  0  0  0  0
   -1.1415   28.5901   12.5039 C   0  0  0  0  0  0
   -1.1147   27.5257   13.2722 N   0  0  0  0  0  0
   -0.3983   26.6527   12.6153 C   0  0  0  0  0  0
    0.0605   27.1338   11.3951 N   0  0  0  0  0  0
   -0.1623   25.2602   13.1660 C   0  0  0  0  0  0
    0.8803   26.4026   10.4046 C   0  0  0  0  0  0
    0.2570   25.0515   10.0014 C   0  0  0  0  0  0
    2.3458   26.2874   10.8664 C   0  0  0  0  0  0
    6.0060   26.1131    7.0937 C   0  0  0  0  0  0
    7.0312   26.2520    6.2553 N   0  0  0  0  0  0
    5.8674   25.1002    7.7753 O   0  0  0  0  0  0
    4.8633   27.5015    4.7929 F   0  0  0  0  0  0
    4.9726   27.2456    9.3442 H   0  0  0  0  0  0
    3.1155   29.3309    5.2972 H   0  0  0  0  0  0
    3.2609   28.9274    9.5463 H   0  0  0  0  0  0
    1.9730   30.8532    6.7531 H   0  0  0  0  0  0
   -2.0732   30.5839   10.7145 H   0  0  0  0  0  0
   -1.6873   32.2096    8.8432 H   0  0  0  0  0  0
   -1.6843   29.4729   12.8121 H   0  0  0  0  0  0
   -0.3117   25.2185   14.2460 H   0  0  0  0  0  0
    0.8449   24.8965   12.9758 H   0  0  0  0  0  0
   -0.8559   24.5407   12.7315 H   0  0  0  0  0  0
    0.8906   26.9769    9.4882 H   0  0  0  0  0  0
    0.7644   24.6520    9.1246 H   0  0  0  0  0  0
    0.3498   24.2917   10.7736 H   0  0  0  0  0  0
   -0.7990   25.1560    9.7492 H   0  0  0  0  0  0
    2.9628   25.8464   10.0837 H   0  0  0  0  0  0
    2.7677   27.2659   11.0953 H   0  0  0  0  0  0
    2.4678   25.6722   11.7549 H   0  0  0  0  0  0
    7.6963   25.5032    6.1532 H   0  0  0  0  0  0
    7.1820   27.1360    5.7759 H   0  0  0  0  0  0
  1  2  2  0  0  0
  1  6  1  0  0  0
  1 27  1  0  0  0
  2  3  1  0  0  0
  2 23  1  0  0  0
  3  4  2  0  0  0
  3 26  1  0  0  0
  4  5  1  0  0  0
  4 28  1  0  0  0
  5  7  1  0  0  0
  5  6  2  0  0  0
  6 29  1  0  0  0
  7  8  1  0  0  0
  7 30  1  0  0  0
  8 13  1  0  0  0
  8  9  2  0  0  0
  9 10  1  0  0  0
 10 14  1  0  0  0
 10 11  2  0  0  0
 11 12  1  0  0  0
 11 31  1  0  0  0
 12 13  2  0  0  0
 12 32  1  0  0  0
 14 15  2  0  0  0
 14 18  1  0  0  0
 15 16  1  0  0  0
 15 33  1  0  0  0
 16 17  2  0  0  0
 17 18  1  0  0  0
 17 19  1  0  0  0
 18 20  1  0  0  0
 19 34  1  0  0  0
 19 35  1  0  0  0
 19 36  1  0  0  0
 20 21  1  0  0  0
 20 22  1  0  0  0
 20 37  1  0  0  0
 21 38  1  0  0  0
 21 39  1  0  0  0
 21 40  1  0  0  0
 22 41  1  0  0  0
 22 42  1  0  0  0
 22 43  1  0  0  0
 23 24  1  0  0  0
 23 25  2  0  0  0
 24 44  1  0  0  0
 24 45  1  0  0  0
M  END
> <s_m_entry_id>
33188

> <s_m_entry_name>
dock_pv.589

> <s_m_Source_Path>
/home/csk/Desktop/cluster/DUD-E-result/cdk2

> <s_m_Source_File>
dock_pv.maegz

> <i_m_Source_File_Index>
589

> <chembl_id>
CHEMBL455427

> <chembl_pref_name>
None

> <i_lp_mmshare_version>
53161

> <i_f3d_flags>
0

> <r_lp_tautomer_probability>
0.999999987636

> <s_lp_Force_Field>
OPLS_2005

> <r_lp_Energy>
20.786566

> <b_lp_Chiralities_Consistent>
1

> <s_lp_Variant>
CHEMBL301_lig796-1

> <s_i_glide_gridfile>
glide-grid_1h00

> <i_i_glide_lignum>
1135

> <i_i_glide_rotatable_bonds>
5

> <r_i_docking_score>
-6.81821725291347

> <r_i_glide_ligand_efficiency>
-0.262239125112057

> <r_i_glide_ligand_efficiency_sa>
-0.776882376283337

> <r_i_glide_ligand_efficiency_ln>
-1.60123594945115

> <r_i_glide_gscore>
-6.81821725291347

> <r_i_glide_lipo>
-2.29000476172871

> <r_i_glide_hbond>
-0.32

> <r_i_glide_metal>
0

> <r_i_glide_rewards>
-1.9346286412901

> <r_i_glide_evdw>
-39.8670959472656

> <r_i_glide_ecoul>
-4.69659948348999

> <r_i_glide_erotb>
0.456452654261345

> <r_i_glide_esite>
-0.0321917842692241

> <r_i_glide_emodel>
-60.9635413249573

> <r_i_glide_energy>
-44.5636954307556

> <r_i_glide_einternal>
3.64695453643799

> <i_i_glide_confnum>
5

> <i_i_glide_posenum>
97

> <r_i_glide_eff_state_penalty>
0

> <s_user_duplicate_titles>
CHEMBL301_lig796,453168

> <s_m_subgroup_title>
dock_pv

> <s_m_subgroupid>
dock_pv

> <b_m_subgroup_collapsed>
1

$$$$
CHEMBL301_lig798
                    3D
 Schrodinger Suite 2021-1.
 51 53  0  0  1  0            999 V2000
    5.2581   27.0514    5.6827 C   0  0  0  0  0  0
    5.2068   25.9247    6.5144 C   0  0  0  0  0  0
    4.5914   26.0442    7.7697 C   0  0  0  0  0  0
    4.0387   27.2607    8.1760 C   0  0  0  0  0  0
    4.0057   28.3478    7.2980 C   0  0  0  0  0  0
    4.6547   28.2453    6.0690 C   0  0  0  0  0  0
    3.2702   29.5208    7.5216 N   0  0  0  0  0  0
    2.0581   29.7706    8.1765 C   0  0  0  0  0  0
    1.6583   28.9968    9.2241 N   0  0  0  0  0  0
    0.4390   29.2660    9.7697 C   0  0  0  0  0  0
   -0.3757   30.2856    9.2647 C   0  0  0  0  0  0
    0.1158   31.0263    8.1904 C   0  0  0  0  0  0
    1.3303   30.7829    7.6383 N   0  0  0  0  0  0
   -0.0285   28.4638   10.9499 C   0  0  0  0  0  0
   -0.8672   28.8942   11.9739 C   0  0  0  0  0  0
   -1.0989   27.9719   12.8779 N   0  0  0  0  0  0
   -0.4461   26.9177   12.4635 C   0  0  0  0  0  0
    0.2480   27.1390   11.2788 N   0  0  0  0  0  0
   -0.5151   25.6099   13.2287 C   0  0  0  0  0  0
    1.0703   26.1714   10.5210 C   0  0  0  0  0  0
    0.3059   24.8806   10.1760 C   0  0  0  0  0  0
    2.4113   25.9064   11.2270 C   0  0  0  0  0  0
    5.8056   24.6060    6.0744 C   0  0  0  0  0  0
    5.5968   24.1742    4.8000 N   0  0  0  0  0  0
    6.4985   23.9766    6.8786 O   0  0  0  0  0  0
    4.5335   24.6455    3.9049 C   0  0  0  0  0  0
    4.4582   24.9659    8.5757 F   0  0  0  0  0  0
    6.4249   23.1264    4.1983 C   0  0  0  0  0  0
    5.7542   27.0089    4.7227 H   0  0  0  0  0  0
    3.5687   27.3207    9.1424 H   0  0  0  0  0  0
    4.6666   29.0811    5.3841 H   0  0  0  0  0  0
    3.5165   30.2610    6.8748 H   0  0  0  0  0  0
   -1.3426   30.5047    9.6933 H   0  0  0  0  0  0
   -0.4525   31.8454    7.7762 H   0  0  0  0  0  0
   -1.3064   29.8772   12.0711 H   0  0  0  0  0  0
   -0.9273   25.7471   14.2288 H   0  0  0  0  0  0
    0.4573   25.1447   13.3627 H   0  0  0  0  0  0
   -1.1636   24.8897   12.7309 H   0  0  0  0  0  0
    1.3023   26.6141    9.5594 H   0  0  0  0  0  0
    0.8590   24.3126    9.4266 H   0  0  0  0  0  0
    0.1820   24.2232   11.0342 H   0  0  0  0  0  0
   -0.6804   25.0943    9.7615 H   0  0  0  0  0  0
    3.0397   25.2446   10.6334 H   0  0  0  0  0  0
    2.9670   26.8332   11.3757 H   0  0  0  0  0  0
    2.2909   25.4423   12.2019 H   0  0  0  0  0  0
    3.8148   25.3019    4.3942 H   0  0  0  0  0  0
    4.9590   25.1780    3.0534 H   0  0  0  0  0  0
    3.9683   23.7996    3.5106 H   0  0  0  0  0  0
    7.2385   22.7981    4.8468 H   0  0  0  0  0  0
    5.8157   22.2540    3.9600 H   0  0  0  0  0  0
    6.8701   23.4877    3.2700 H   0  0  0  0  0  0
  1  2  2  0  0  0
  1  6  1  0  0  0
  1 29  1  0  0  0
  2  3  1  0  0  0
  2 23  1  0  0  0
  3  4  2  0  0  0
  3 27  1  0  0  0
  4  5  1  0  0  0
  4 30  1  0  0  0
  5  7  1  0  0  0
  5  6  2  0  0  0
  6 31  1  0  0  0
  7  8  1  0  0  0
  7 32  1  0  0  0
  8  9  2  0  0  0
  8 13  1  0  0  0
  9 10  1  0  0  0
 10 14  1  0  0  0
 10 11  2  0  0  0
 11 12  1  0  0  0
 11 33  1  0  0  0
 12 13  2  0  0  0
 12 34  1  0  0  0
 14 15  2  0  0  0
 14 18  1  0  0  0
 15 16  1  0  0  0
 15 35  1  0  0  0
 16 17  2  0  0  0
 17 18  1  0  0  0
 17 19  1  0  0  0
 18 20  1  0  0  0
 19 36  1  0  0  0
 19 37  1  0  0  0
 19 38  1  0  0  0
 20 21  1  0  0  0
 20 22  1  0  0  0
 20 39  1  0  0  0
 21 40  1  0  0  0
 21 41  1  0  0  0
 21 42  1  0  0  0
 22 43  1  0  0  0
 22 44  1  0  0  0
 22 45  1  0  0  0
 23 24  1  0  0  0
 23 25  2  0  0  0
 24 26  1  0  0  0
 24 28  1  0  0  0
 26 46  1  0  0  0
 26 47  1  0  0  0
 26 48  1  0  0  0
 28 49  1  0  0  0
 28 50  1  0  0  0
 28 51  1  0  0  0
M  END
> <s_m_entry_id>
33189

> <s_m_entry_name>
dock_pv.590

> <s_m_Source_Path>
/home/csk/Desktop/cluster/DUD-E-result/cdk2

> <s_m_Source_File>
dock_pv.maegz

> <i_m_Source_File_Index>
590

> <chembl_id>
CHEMBL510436

> <chembl_pref_name>
None

> <i_lp_mmshare_version>
53161

> <i_f3d_flags>
0

> <r_lp_tautomer_probability>
0.999999987636

> <s_lp_Force_Field>
OPLS_2005

> <r_lp_Energy>
30.718209

> <b_lp_Chiralities_Consistent>
1

> <s_lp_Variant>
CHEMBL301_lig798-1

> <s_i_glide_gridfile>
glide-grid_1h00

> <i_i_glide_lignum>
1137

> <i_i_glide_rotatable_bonds>
6

> <r_i_docking_score>
-6.81650887321579

> <r_i_glide_ligand_efficiency>
-0.243446745471993

> <r_i_glide_ligand_efficiency_sa>
-0.739247701718166

> <r_i_glide_ligand_efficiency_ln>
-1.57345038933541

> <r_i_glide_gscore>
-6.81650887321579

> <r_i_glide_lipo>
-2.05772089807864

> <r_i_glide_hbond>
-0.32

> <r_i_glide_metal>
0

> <r_i_glide_rewards>
-2.24181487107828

> <r_i_glide_evdw>
-39.5569343566895

> <r_i_glide_ecoul>
-4.80796432495117

> <r_i_glide_erotb>
0.531166166214111

> <r_i_glide_esite>
-0.0290979036958267

> <r_i_glide_emodel>
-59.889717483915

> <r_i_glide_energy>
-44.3648986816406

> <r_i_glide_einternal>
5.13564586639404

> <i_i_glide_confnum>
4

> <i_i_glide_posenum>
54

> <r_i_glide_eff_state_penalty>
0

> <s_user_duplicate_titles>
CHEMBL301_lig798,453170

> <s_m_subgroup_title>
dock_pv

> <s_m_subgroupid>
dock_pv

> <b_m_subgroup_collapsed>
1

$$$$
CHEMBL301_lig275
                    3D
 Schrodinger Suite 2021-1.
 49 52  0  0  1  0            999 V2000
    0.3395   30.2525    8.7730 C   0  0  0  0  0  0
    0.4882   29.0596    9.5105 C   0  0  0  0  0  0
   -0.4993   28.6231   10.4152 C   0  0  0  0  0  0
    1.3912   30.6510    7.7763 C   0  0  0  0  0  0
    2.6549   28.7605    8.6460 C   0  0  0  0  0  0
    2.5936   29.8521    7.8679 C   0  0  0  0  0  0
    1.6330   28.2852    9.3957 O   0  0  0  0  0  0
   -0.7721   31.0633    9.0466 C   0  0  0  0  0  0
   -1.6449   29.4206   10.5726 C   0  0  0  0  0  0
   -0.3107   27.3195   11.2302 C   0  0  2  0  0  0
   -1.7574   30.6371    9.9209 C   0  0  0  0  0  0
    3.7777   28.0455    8.8957 O   0  0  0  0  0  0
   -1.2883   26.1771   10.8489 C   0  0  2  0  0  0
   -1.1245   25.2289   13.1750 N   0  0  2  0  0  0
   -0.3472   27.5605   12.7582 C   0  0  0  0  0  0
    4.2308   27.2052    7.9049 C   0  0  0  0  0  0
   -1.0945   24.9258   11.7366 C   0  0  0  0  0  0
    1.2783   31.6255    7.0330 O   0  0  0  0  0  0
    4.0580   25.8168    8.0156 C   0  0  0  0  0  0
   -0.1403   26.2522   13.5436 C   0  0  0  0  0  0
   -0.9120   32.3205    8.5272 O   0  0  0  0  0  0
   -2.6843   29.0516   11.3761 O   0  0  0  0  0  0
   -1.1422   25.8137    9.4904 O   0  0  0  0  0  0
    3.2470   25.1288    9.3774 Cl  0  0  0  0  0  0
   -0.9206   24.0125   13.9555 C   0  0  0  0  0  0
    4.8602   27.7252    6.7677 C   0  0  0  0  0  0
    4.4752   24.9728    6.9846 C   0  0  0  0  0  0
    5.2650   26.8799    5.7361 C   0  0  0  0  0  0
    5.0740   25.5039    5.8430 C   0  0  0  0  0  0
    3.4799   30.1907    7.3605 H   0  0  0  0  0  0
    0.6971   26.9474   11.0389 H   0  0  0  0  0  0
   -2.6186   31.2663   10.0948 H   0  0  0  0  0  0
   -2.3114   26.5320   10.9767 H   0  0  0  0  0  0
   -1.2721   28.0173   13.1077 H   0  0  0  0  0  0
    0.4582   28.2394   13.0344 H   0  0  0  0  0  0
   -0.1447   24.4424   11.4985 H   0  0  0  0  0  0
   -1.8773   24.2013   11.5089 H   0  0  0  0  0  0
    0.8582   25.8588   13.3611 H   0  0  0  0  0  0
   -0.2101   26.4561   14.6132 H   0  0  0  0  0  0
   -0.1910   32.5264    7.9208 H   0  0  0  0  0  0
   -3.1730   29.8004   11.7451 H   0  0  0  0  0  0
   -0.2392   26.0062    9.2270 H   0  0  0  0  0  0
    0.0580   23.5689   13.7624 H   0  0  0  0  0  0
   -0.9929   24.2235   15.0230 H   0  0  0  0  0  0
   -1.6835   23.2697   13.7177 H   0  0  0  0  0  0
    5.0313   28.7874    6.6732 H   0  0  0  0  0  0
    4.3117   23.9078    7.0592 H   0  0  0  0  0  0
    5.7435   27.2938    4.8598 H   0  0  0  0  0  0
    5.3899   24.8515    5.0418 H   0  0  0  0  0  0
  1  2  2  0  0  0
  1  4  1  0  0  0
  1  8  1  0  0  0
  2  3  1  0  0  0
  2  7  1  0  0  0
  3 10  1  0  0  0
  3  9  2  0  0  0
  4  6  1  0  0  0
  4 18  2  0  0  0
  5  6  2  0  0  0
  5 12  1  0  0  0
  5  7  1  0  0  0
  6 30  1  0  0  0
  8 11  2  0  0  0
  8 21  1  0  0  0
  9 11  1  0  0  0
  9 22  1  0  0  0
 10 13  1  0  0  0
 10 15  1  0  0  0
 10 31  1  0  0  0
 11 32  1  0  0  0
 12 16  1  0  0  0
 13 17  1  0  0  0
 13 23  1  0  0  0
 13 33  1  0  0  0
 14 20  1  0  0  0
 14 25  1  0  0  0
 14 17  1  0  0  0
 15 20  1  0  0  0
 15 34  1  0  0  0
 15 35  1  0  0  0
 16 19  1  0  0  0
 16 26  2  0  0  0
 17 36  1  0  0  0
 17 37  1  0  0  0
 19 24  1  0  0  0
 19 27  2  0  0  0
 20 38  1  0  0  0
 20 39  1  0  0  0
 21 40  1  0  0  0
 22 41  1  0  0  0
 23 42  1  0  0  0
 25 43  1  0  0  0
 25 44  1  0  0  0
 25 45  1  0  0  0
 26 28  1  0  0  0
 26 46  1  0  0  0
 27 29  1  0  0  0
 27 47  1  0  0  0
 28 29  2  0  0  0
 28 48  1  0  0  0
 29 49  1  0  0  0
M  END
> <s_m_entry_id>
33190

> <s_m_entry_name>
dock_pv.591

> <s_m_Source_Path>
/home/csk/Desktop/cluster/DUD-E-result/cdk2

> <s_m_Source_File>
dock_pv.maegz

> <i_m_Source_File_Index>
591

> <chembl_id>
CHEMBL326275

> <chembl_pref_name>
None

> <i_lp_mmshare_version>
53161

> <i_f3d_flags>
0

> <r_lp_tautomer_probability>
1

> <s_lp_Force_Field>
OPLS_2005

> <r_lp_Energy>
34.012997

> <b_lp_Chiralities_Consistent>
1

> <s_lp_Variant>
CHEMBL301_lig275-1

> <s_i_glide_gridfile>
glide-grid_1h00

> <i_i_glide_lignum>
431

> <i_i_glide_rotatable_bonds>
6

> <r_i_docking_score>
-6.81425572177558

> <r_i_glide_ligand_efficiency>
-0.234974335233641

> <r_i_glide_ligand_efficiency_sa>
-0.721915602932359

> <r_i_glide_ligand_efficiency_ln>
-1.56029176567063

> <r_i_glide_gscore>
-6.81425572177558

> <r_i_glide_lipo>
-3.40875731120903

> <r_i_glide_hbond>
-0.16

> <r_i_glide_metal>
0

> <r_i_glide_rewards>
-0.626853257575757

> <r_i_glide_evdw>
-42.0593795776367

> <r_i_glide_ecoul>
-5.70244264602661

> <r_i_glide_erotb>
0.339690222795039

> <r_i_glide_esite>
0

> <r_i_glide_emodel>
-63.5233277193559

> <r_i_glide_energy>
-47.7618222236633

> <r_i_glide_einternal>
5.67520475387573

> <i_i_glide_confnum>
10

> <i_i_glide_posenum>
224

> <r_i_glide_eff_state_penalty>
0

> <s_user_duplicate_titles>
CHEMBL301_lig275

> <s_m_subgroup_title>
dock_pv

> <s_m_subgroupid>
dock_pv

> <b_m_subgroup_collapsed>
1

$$$$
CHEMBL301_lig1103
                    3D
 Schrodinger Suite 2021-1.
 57 61  0  0  1  0            999 V2000
   -2.0772   28.6758   11.5876 N   0  0  0  0  0  0
   -1.1100   27.7315   11.5979 C   0  0  0  0  0  0
    0.0567   27.7763   10.9095 N   0  0  0  0  0  0
    0.3253   28.8476   10.1023 C   0  0  0  0  0  0
   -1.4189   26.6325   12.4076 N   0  0  0  0  0  0
   -0.8816   25.3436   12.5790 C   0  0  0  0  0  0
    0.2977   24.8960   11.9707 C   0  0  0  0  0  0
    0.7316   23.5820   12.1482 C   0  0  0  0  0  0
   -0.0090   22.6985   12.9317 C   0  0  0  0  0  0
   -1.1757   23.1287   13.5640 C   0  0  0  0  0  0
   -1.6026   24.4555   13.3845 C   0  0  0  0  0  0
   -1.8049   29.7079   10.7921 C   0  0  0  0  0  0
   -0.6451   29.8758    9.9988 C   0  0  0  0  0  0
   -0.7349   31.0489    9.2835 N   0  0  0  0  0  0
   -1.8684   31.5889    9.6588 C   0  0  0  0  0  0
   -2.5572   30.8299   10.5730 N   0  0  0  0  0  0
    1.6447   28.7987    9.3759 C   0  0  0  0  0  0
   -1.8879   22.1628   14.2980 N   0  0  0  0  0  0
    2.6152   27.8517    9.7352 C   0  0  0  0  0  0
    3.7590   27.6679    8.9712 C   0  0  0  0  0  0
    3.9903   28.4469    7.8381 C   0  0  0  0  0  0
    3.0815   29.4520    7.5250 C   0  0  0  0  0  0
    1.9296   29.6349    8.2854 C   0  0  0  0  0  0
    5.0583   28.2678    6.9841 O   0  0  0  0  0  0
    5.8439   27.0848    7.1064 C   0  0  0  0  0  0
   -2.8005   22.3525   15.2706 C   0  0  0  0  0  0
   -3.1214   23.4419   15.7516 O   0  0  0  0  0  0
   -3.3234   21.1848   15.6778 N   0  0  0  0  0  0
   -4.2940   21.0243   16.7677 C   0  0  1  0  0  0
   -5.6228   21.7757   16.5634 C   0  0  0  0  0  0
   -6.6955   20.6831   16.5396 C   0  0  0  0  0  0
   -6.0101   19.4520   16.1852 N   0  0  1  0  0  0
   -4.7395   19.5616   16.8836 C   0  0  0  0  0  0
   -2.2857   26.7911   12.8988 H   0  0  0  0  0  0
    0.8947   25.5411   11.3494 H   0  0  0  0  0  0
    1.6365   23.2468   11.6625 H   0  0  0  0  0  0
    0.3326   21.6770   13.0405 H   0  0  0  0  0  0
   -2.5248   24.7988   13.8294 H   0  0  0  0  0  0
   -2.2627   32.5418    9.3365 H   0  0  0  0  0  0
   -3.4170   31.0902   11.0429 H   0  0  0  0  0  0
   -1.6478   21.2070   14.0768 H   0  0  0  0  0  0
    2.4777   27.2085   10.5915 H   0  0  0  0  0  0
    4.4533   26.9003    9.2663 H   0  0  0  0  0  0
    3.2575   30.0664    6.6565 H   0  0  0  0  0  0
    1.2358   30.3893    7.9570 H   0  0  0  0  0  0
    6.5728   27.0521    6.3002 H   0  0  0  0  0  0
    6.3865   27.0523    8.0522 H   0  0  0  0  0  0
    5.2281   26.1874    7.0222 H   0  0  0  0  0  0
   -2.8491   20.3391   15.3937 H   0  0  0  0  0  0
   -3.8192   21.2692   17.7198 H   0  0  0  0  0  0
   -5.6516   22.3302   15.6241 H   0  0  0  0  0  0
   -5.8112   22.4748   17.3793 H   0  0  0  0  0  0
   -7.4549   20.8946   15.7830 H   0  0  0  0  0  0
   -7.2072   20.5988   17.5014 H   0  0  0  0  0  0
   -6.5145   18.6642   16.5764 H   0  0  0  0  0  0
   -4.9648   19.3370   17.9263 H   0  0  0  0  0  0
   -3.9847   18.8356   16.5787 H   0  0  0  0  0  0
  1  2  2  0  0  0
  1 12  1  0  0  0
  2  5  1  0  0  0
  2  3  1  0  0  0
  3  4  2  0  0  0
  4 17  1  0  0  0
  4 13  1  0  0  0
  5  6  1  0  0  0
  5 34  1  0  0  0
  6 11  1  0  0  0
  6  7  2  0  0  0
  7  8  1  0  0  0
  7 35  1  0  0  0
  8  9  2  0  0  0
  8 36  1  0  0  0
  9 10  1  0  0  0
  9 37  1  0  0  0
 10 18  1  0  0  0
 10 11  2  0  0  0
 11 38  1  0  0  0
 12 16  1  0  0  0
 12 13  2  0  0  0
 13 14  1  0  0  0
 14 15  2  0  0  0
 15 16  1  0  0  0
 15 39  1  0  0  0
 16 40  1  0  0  0
 17 19  2  0  0  0
 17 23  1  0  0  0
 18 26  1  0  0  0
 18 41  1  0  0  0
 19 20  1  0  0  0
 19 42  1  0  0  0
 20 21  2  0  0  0
 20 43  1  0  0  0
 21 22  1  0  0  0
 21 24  1  0  0  0
 22 23  2  0  0  0
 22 44  1  0  0  0
 23 45  1  0  0  0
 24 25  1  0  0  0
 25 46  1  0  0  0
 25 47  1  0  0  0
 25 48  1  0  0  0
 26 27  2  0  0  0
 26 28  1  0  0  0
 28 29  1  0  0  0
 28 49  1  0  0  0
 29 30  1  0  0  0
 29 33  1  0  0  0
 29 50  1  0  0  0
 30 31  1  0  0  0
 30 51  1  0  0  0
 30 52  1  0  0  0
 31 32  1  0  0  0
 31 53  1  0  0  0
 31 54  1  0  0  0
 32 33  1  0  0  0
 32 55  1  0  0  0
 33 56  1  0  0  0
 33 57  1  0  0  0
M  END
> <s_m_entry_id>
33191

> <s_m_entry_name>
dock_pv.592

> <s_m_Source_Path>
/home/csk/Desktop/cluster/DUD-E-result/cdk2

> <s_m_Source_File>
dock_pv.maegz

> <i_m_Source_File_Index>
592

> <chembl_id>
CHEMBL2023413

> <chembl_pref_name>
None

> <i_lp_mmshare_version>
53161

> <i_f3d_flags>
0

> <r_lp_tautomer_probability>
1

> <s_lp_Force_Field>
OPLS_2005

> <r_lp_Energy>
44.584936

> <b_lp_Chiralities_Consistent>
1

> <s_lp_Variant>
CHEMBL301_lig1103-2

> <s_i_glide_gridfile>
glide-grid_1h00

> <i_i_glide_lignum>
1509

> <i_i_glide_rotatable_bonds>
8

> <r_i_docking_score>
-6.80897568084922

> <r_i_glide_ligand_efficiency>
-0.20633259638937

> <r_i_glide_ligand_efficiency_sa>
-0.661818885544726

> <r_i_glide_ligand_efficiency_ln>
-1.5142809364316

> <r_i_glide_gscore>
-6.80897568084922

> <r_i_glide_lipo>
-2.40788461650478

> <r_i_glide_hbond>
-0.342964358151838

> <r_i_glide_metal>
0

> <r_i_glide_rewards>
-1.09260475851246

> <r_i_glide_evdw>
-45.2625541687012

> <r_i_glide_ecoul>
-7.78729915618896

> <r_i_glide_erotb>
0.607389248544189

> <r_i_glide_esite>
-0.141688614360928

> <r_i_glide_emodel>
-72.8038555409744

> <r_i_glide_energy>
-53.0498533248901

> <r_i_glide_einternal>
5.84824275970459

> <i_i_glide_confnum>
38

> <i_i_glide_posenum>
219

> <r_i_glide_eff_state_penalty>
0

> <s_user_duplicate_titles>
CHEMBL301_lig1103

> <s_m_subgroup_title>
dock_pv

> <s_m_subgroupid>
dock_pv

> <b_m_subgroup_collapsed>
1

$$$$
CHEMBL301_lig241
                    3D
 Schrodinger Suite 2021-1.
 48 51  0  0  1  0            999 V2000
    0.1490   29.6061    9.2517 C   0  0  0  0  0  0
   -0.1289   30.8793    8.7354 C   0  0  0  0  0  0
    2.2022   29.5155    8.0510 C   0  0  0  0  0  0
    1.3513   28.9878    8.9760 O   0  0  0  0  0  0
   -0.7420   28.9312   10.1059 C   0  0  0  0  0  0
    0.8385   31.5048    7.7760 C   0  0  0  0  0  0
    1.9538   30.6754    7.4204 C   0  0  0  0  0  0
   -1.2714   31.5416    9.2005 C   0  0  0  0  0  0
   -1.9007   29.6127   10.5078 C   0  0  0  0  0  0
   -0.4028   27.5145   10.6355 C   0  0  1  0  0  0
   -2.1478   30.9078   10.0715 C   0  0  0  0  0  0
    3.3210   28.6050    7.6913 C   0  0  0  0  0  0
    0.1244   27.5064   12.0903 C   0  0  2  0  0  0
   -0.5695   25.0656   12.2895 N   0  0  1  0  0  0
   -1.4916   26.4366   10.4350 C   0  0  0  0  0  0
    0.4580   26.0778   12.5891 C   0  0  0  0  0  0
    0.7244   32.6547    7.3760 O   0  0  0  0  0  0
    3.8402   27.6378    8.5760 C   0  0  0  0  0  0
   -0.9977   25.0513   10.8884 C   0  0  0  0  0  0
   -1.5420   32.8345    8.8492 O   0  0  0  0  0  0
   -2.7960   29.0520   11.3760 O   0  0  0  0  0  0
   -0.7420   28.1426   13.0059 O   0  0  0  0  0  0
    3.2580   27.4520   10.1975 Cl  0  0  0  0  0  0
    3.8554   28.6520    6.3891 C   0  0  0  0  0  0
   -0.1386   23.7395   12.7196 C   0  0  0  0  0  0
    4.8383   26.7600    8.1468 C   0  0  0  0  0  0
    4.8580   27.7816    5.9756 C   0  0  0  0  0  0
    5.3521   26.8308    6.8573 C   0  0  0  0  0  0
    2.6298   31.0440    6.6685 H   0  0  0  0  0  0
    0.4179   27.1475   10.0194 H   0  0  0  0  0  0
   -3.0234   31.4378   10.4196 H   0  0  0  0  0  0
    1.0339   28.1066   12.1017 H   0  0  0  0  0  0
   -1.7282   26.3478    9.3760 H   0  0  0  0  0  0
   -2.4135   26.6477   10.9760 H   0  0  0  0  0  0
    0.6174   26.1000   13.6671 H   0  0  0  0  0  0
    1.4035   25.7616   12.1444 H   0  0  0  0  0  0
   -1.8042   24.3258   10.7718 H   0  0  0  0  0  0
   -0.1766   24.7063   10.2565 H   0  0  0  0  0  0
   -0.8520   33.1800    8.2683 H   0  0  0  0  0  0
   -3.2956   29.7216   11.8726 H   0  0  0  0  0  0
   -1.6005   28.2501   12.5760 H   0  0  0  0  0  0
    3.4895   29.3615    5.6626 H   0  0  0  0  0  0
    0.1022   23.7392   13.7835 H   0  0  0  0  0  0
   -0.9315   23.0061   12.5664 H   0  0  0  0  0  0
    0.7437   23.4073   12.1699 H   0  0  0  0  0  0
    5.2143   26.0028    8.8138 H   0  0  0  0  0  0
    5.2546   27.8462    4.9726 H   0  0  0  0  0  0
    6.1287   26.1499    6.5405 H   0  0  0  0  0  0
  1  2  2  0  0  0
  1  4  1  0  0  0
  1  5  1  0  0  0
  2  6  1  0  0  0
  2  8  1  0  0  0
  3  4  1  0  0  0
  3  7  2  0  0  0
  3 12  1  0  0  0
  5  9  2  0  0  0
  5 10  1  0  0  0
  6 17  2  0  0  0
  6  7  1  0  0  0
  7 29  1  0  0  0
  8 20  1  0  0  0
  8 11  2  0  0  0
  9 11  1  0  0  0
  9 21  1  0  0  0
 10 13  1  0  0  0
 10 15  1  0  0  0
 10 30  1  0  0  0
 11 31  1  0  0  0
 12 18  2  0  0  0
 12 24  1  0  0  0
 13 16  1  0  0  0
 13 22  1  0  0  0
 13 32  1  0  0  0
 14 19  1  0  0  0
 14 25  1  0  0  0
 14 16  1  0  0  0
 15 19  1  0  0  0
 15 33  1  0  0  0
 15 34  1  0  0  0
 16 35  1  0  0  0
 16 36  1  0  0  0
 18 23  1  0  0  0
 18 26  1  0  0  0
 19 37  1  0  0  0
 19 38  1  0  0  0
 20 39  1  0  0  0
 21 40  1  0  0  0
 22 41  1  0  0  0
 24 27  2  0  0  0
 24 42  1  0  0  0
 25 43  1  0  0  0
 25 44  1  0  0  0
 25 45  1  0  0  0
 26 28  2  0  0  0
 26 46  1  0  0  0
 27 28  1  0  0  0
 27 47  1  0  0  0
 28 48  1  0  0  0
M  END
> <s_m_entry_id>
33192

> <s_m_entry_name>
dock_pv.593

> <s_m_Source_Path>
/home/csk/Desktop/cluster/DUD-E-result/cdk2

> <s_m_Source_File>
dock_pv.maegz

> <i_m_Source_File_Index>
593

> <chembl_id>
CHEMBL418203

> <chembl_pref_name>
None

> <i_lp_mmshare_version>
53161

> <i_f3d_flags>
0

> <r_lp_tautomer_probability>
1

> <s_lp_Force_Field>
OPLS_2005

> <r_lp_Energy>
43.926537

> <b_lp_Chiralities_Consistent>
1

> <s_lp_Variant>
CHEMBL301_lig241-2

> <s_i_glide_gridfile>
glide-grid_1h00

> <i_i_glide_lignum>
384

> <i_i_glide_rotatable_bonds>
5

> <r_i_docking_score>
-6.8066011846221

> <r_i_glide_ligand_efficiency>
-0.243092899450789

> <r_i_glide_ligand_efficiency_sa>
-0.738173216793631

> <r_i_glide_ligand_efficiency_ln>
-1.57116340390561

> <r_i_glide_gscore>
-6.8066011846221

> <r_i_glide_lipo>
-3.36828189016943

> <r_i_glide_hbond>
0

> <r_i_glide_metal>
0

> <r_i_glide_rewards>
-0.860940075757575

> <r_i_glide_evdw>
-36.8894119262695

> <r_i_glide_ecoul>
-6.50595140457153

> <r_i_glide_erotb>
0.242984088304113

> <r_i_glide_esite>
0

> <r_i_glide_emodel>
-59.4467796750329

> <r_i_glide_energy>
-43.3953633308411

> <r_i_glide_einternal>
3.89003109931946

> <i_i_glide_confnum>
5

> <i_i_glide_posenum>
64

> <r_i_glide_eff_state_penalty>
0

> <s_user_duplicate_titles>
CHEMBL301_lig241

> <s_m_subgroup_title>
dock_pv

> <s_m_subgroupid>
dock_pv

> <b_m_subgroup_collapsed>
1

$$$$
CHEMBL301_lig563
                    3D
 Schrodinger Suite 2021-1.
 35 38  0  0  1  0            999 V2000
   -2.3419   28.4208   11.7493 N   0  0  0  0  0  0
   -2.0649   29.4496   10.9779 C   0  0  0  0  0  0
   -0.8992   29.3124   10.2206 C   0  0  0  0  0  0
   -1.3458   27.5396   11.5464 N   0  0  0  0  0  0
   -0.4186   28.0216   10.6043 C   0  0  0  0  0  0
    0.6602   27.1611   10.3183 C   0  0  0  0  0  0
    0.7332   25.9300   10.9725 C   0  0  0  0  0  0
   -0.2564   25.5784   11.8896 C   0  0  0  0  0  0
   -1.3184   26.3636   12.2006 N   0  0  0  0  0  0
   -0.3049   30.2928    9.2598 C   0  0  0  0  0  0
   -0.7894   31.5952    9.0855 C   0  0  0  0  0  0
   -0.1085   32.4109    8.1760 C   0  0  0  0  0  0
    0.9492   31.9673    7.4438 N   0  0  0  0  0  0
    1.3635   30.6975    7.6878 C   0  0  0  0  0  0
    0.7806   29.8520    8.5757 N   0  0  0  0  0  0
    2.4580   30.2519    6.9343 N   0  0  0  0  0  0
    3.2908   29.1333    7.0688 C   0  0  0  0  0  0
    3.5222   28.5365    8.3066 C   0  0  0  0  0  0
    4.3627   27.4372    8.4005 C   0  0  0  0  0  0
    5.0062   26.9486    7.2588 C   0  0  0  0  0  0
    4.8049   27.5644    6.0244 C   0  0  0  0  0  0
    3.9448   28.6521    5.9334 C   0  0  0  0  0  0
    5.8932   25.7990    7.3319 C   0  0  0  0  0  0
    6.5989   24.8837    7.3777 N   0  0  0  0  0  0
   -2.7236   30.3078   10.9767 H   0  0  0  0  0  0
    1.4164   27.4363    9.6025 H   0  0  0  0  0  0
    1.5553   25.2593   10.7679 H   0  0  0  0  0  0
   -0.2073   24.6294   12.4024 H   0  0  0  0  0  0
   -1.6374   31.9693    9.6391 H   0  0  0  0  0  0
   -0.4174   33.4319    7.9991 H   0  0  0  0  0  0
    2.7547   30.8892    6.2090 H   0  0  0  0  0  0
    3.0687   28.9260    9.2046 H   0  0  0  0  0  0
    4.4845   26.9922    9.3759 H   0  0  0  0  0  0
    5.3083   27.2119    5.1339 H   0  0  0  0  0  0
    3.7993   29.1291    4.9766 H   0  0  0  0  0  0
  1  2  2  0  0  0
  1  4  1  0  0  0
  2  3  1  0  0  0
  2 25  1  0  0  0
  3  5  2  0  0  0
  3 10  1  0  0  0
  4  5  1  0  0  0
  4  9  1  0  0  0
  5  6  1  0  0  0
  6  7  2  0  0  0
  6 26  1  0  0  0
  7  8  1  0  0  0
  7 27  1  0  0  0
  8  9  2  0  0  0
  8 28  1  0  0  0
 10 15  1  0  0  0
 10 11  2  0  0  0
 11 12  1  0  0  0
 11 29  1  0  0  0
 12 13  2  0  0  0
 12 30  1  0  0  0
 13 14  1  0  0  0
 14 15  2  0  0  0
 14 16  1  0  0  0
 16 17  1  0  0  0
 16 31  1  0  0  0
 17 18  2  0  0  0
 17 22  1  0  0  0
 18 19  1  0  0  0
 18 32  1  0  0  0
 19 20  2  0  0  0
 19 33  1  0  0  0
 20 21  1  0  0  0
 20 23  1  0  0  0
 21 22  2  0  0  0
 21 34  1  0  0  0
 22 35  1  0  0  0
 23 24  3  0  0  0
M  END
> <s_m_entry_id>
33193

> <s_m_entry_name>
dock_pv.594

> <s_m_Source_Path>
/home/csk/Desktop/cluster/DUD-E-result/cdk2

> <s_m_Source_File>
dock_pv.maegz

> <i_m_Source_File_Index>
594

> <chembl_id>
CHEMBL359794

> <chembl_pref_name>
None

> <i_lp_mmshare_version>
53161

> <i_f3d_flags>
0

> <r_lp_tautomer_probability>
0.999999987636

> <s_lp_Force_Field>
OPLS_2005

> <r_lp_Energy>
15.399984

> <b_lp_Chiralities_Consistent>
1

> <s_lp_Variant>
CHEMBL301_lig563-1

> <s_i_glide_gridfile>
glide-grid_1h00

> <i_i_glide_lignum>
793

> <i_i_glide_rotatable_bonds>
3

> <r_i_docking_score>
-6.80232290499144

> <r_i_glide_ligand_efficiency>
-0.28343012104131

> <r_i_glide_ligand_efficiency_sa>
-0.817553939701935

> <r_i_glide_ligand_efficiency_ln>
-1.62810800942336

> <r_i_glide_gscore>
-6.80232290499144

> <r_i_glide_lipo>
-2.38127150637343

> <r_i_glide_hbond>
-0.139241560135924

> <r_i_glide_metal>
0

> <r_i_glide_rewards>
-2.40756253347663

> <r_i_glide_evdw>
-37.4725227355957

> <r_i_glide_ecoul>
-3.78796529769897

> <r_i_glide_erotb>
0.567573626429179

> <r_i_glide_esite>
0

> <r_i_glide_emodel>
-57.6771582533128

> <r_i_glide_energy>
-41.2604880332947

> <r_i_glide_einternal>
2.19885087013245

> <i_i_glide_confnum>
3

> <i_i_glide_posenum>
266

> <r_i_glide_eff_state_penalty>
0

> <s_user_duplicate_titles>
CHEMBL301_lig563,313040

> <s_m_subgroup_title>
dock_pv

> <s_m_subgroupid>
dock_pv

> <b_m_subgroup_collapsed>
1

$$$$
CHEMBL301_lig1050
                    3D
 Schrodinger Suite 2021-1.
 54 58  0  0  1  0            999 V2000
   -0.4563   24.2094   12.0895 C   0  0  0  0  0  0
   -0.2565   24.9903   10.9432 C   0  0  0  0  0  0
   -0.8594   26.2346   10.8116 C   0  0  0  0  0  0
   -1.6296   26.7655   11.8505 C   0  0  0  0  0  0
   -1.8169   26.0103   13.0067 C   0  0  0  0  0  0
   -1.2395   24.7446   13.1227 C   0  0  0  0  0  0
   -2.2601   28.0195   11.7520 N   0  0  0  0  0  0
   -2.0696   29.0615   10.8303 C   0  0  0  0  0  0
   -3.1423   29.8522   10.5760 N   0  0  0  0  0  0
   -2.9671   30.8813    9.7120 C   0  0  0  0  0  0
   -1.7559   31.1009    9.0586 C   0  0  0  0  0  0
   -0.7135   30.2073    9.3364 C   0  0  0  0  0  0
   -0.8593   29.2073   10.2397 N   0  0  0  0  0  0
    0.5684   30.2530    8.5759 C   0  0  0  0  0  0
    0.9262   31.1356    7.5594 C   0  0  0  0  0  0
    2.0581   30.8573    6.9692 N   0  0  0  0  0  0
    1.6723   29.4197    8.7006 N   0  0  0  0  0  0
    2.5516   29.8036    7.6657 C   0  0  0  0  0  0
    3.7480   29.0778    7.4851 C   0  0  0  0  0  0
    4.0559   28.0340    8.3562 C   0  0  0  0  0  0
    3.1799   27.6821    9.3759 C   0  0  0  0  0  0
    1.9825   28.3707    9.5385 C   0  0  0  0  0  0
    0.1125   22.9377   12.2048 N   0  0  0  0  0  0
   -0.6468   21.8020   12.7618 C   0  0  0  0  0  0
    0.2041   20.7041   13.4626 C   0  0  0  0  0  0
    1.5624   20.6326   12.8915 N   0  0  0  0  0  0
    1.7078   21.0314   11.4884 C   0  0  0  0  0  0
    1.1806   22.4741   11.2930 C   0  0  0  0  0  0
    2.6458   20.2800   13.6294 C   0  0  0  0  0  0
    3.8057   20.4086   13.2302 O   0  0  0  0  0  0
    2.4258   19.5739   14.9710 C   0  0  0  0  0  0
    0.3401   24.6385   10.1169 H   0  0  0  0  0  0
   -0.7252   26.7645    9.8830 H   0  0  0  0  0  0
   -2.4165   26.4022   13.8163 H   0  0  0  0  0  0
   -1.3976   24.1884   14.0337 H   0  0  0  0  0  0
   -3.0628   28.1536   12.3548 H   0  0  0  0  0  0
   -3.8212   31.5199    9.5400 H   0  0  0  0  0  0
   -1.6523   31.9073    8.3494 H   0  0  0  0  0  0
    0.3388   31.9766    7.2259 H   0  0  0  0  0  0
    4.4347   29.3551    6.6986 H   0  0  0  0  0  0
    4.9851   27.4918    8.2451 H   0  0  0  0  0  0
    3.4380   26.8750   10.0481 H   0  0  0  0  0  0
    1.2994   28.1248   10.3326 H   0  0  0  0  0  0
   -1.4634   22.1195   13.4097 H   0  0  0  0  0  0
   -1.1170   21.3420   11.8908 H   0  0  0  0  0  0
   -0.3160   19.7454   13.4412 H   0  0  0  0  0  0
    0.3000   21.0502   14.4910 H   0  0  0  0  0  0
    2.6962   20.8701   11.0541 H   0  0  0  0  0  0
    1.0414   20.3560   10.9489 H   0  0  0  0  0  0
    2.0205   23.1412   11.4931 H   0  0  0  0  0  0
    0.8583   22.5528   10.2557 H   0  0  0  0  0  0
    1.7443   18.7306   14.8477 H   0  0  0  0  0  0
    2.0069   20.2513   15.7124 H   0  0  0  0  0  0
    3.3681   19.1828   15.3560 H   0  0  0  0  0  0
  1 23  1  0  0  0
  1  6  2  0  0  0
  1  2  1  0  0  0
  2  3  2  0  0  0
  2 32  1  0  0  0
  3  4  1  0  0  0
  3 33  1  0  0  0
  4  7  1  0  0  0
  4  5  2  0  0  0
  5  6  1  0  0  0
  5 34  1  0  0  0
  6 35  1  0  0  0
  7  8  1  0  0  0
  7 36  1  0  0  0
  8  9  1  0  0  0
  8 13  2  0  0  0
  9 10  2  0  0  0
 10 11  1  0  0  0
 10 37  1  0  0  0
 11 12  2  0  0  0
 11 38  1  0  0  0
 12 13  1  0  0  0
 12 14  1  0  0  0
 14 17  1  0  0  0
 14 15  2  0  0  0
 15 16  1  0  0  0
 15 39  1  0  0  0
 16 18  2  0  0  0
 17 18  1  0  0  0
 17 22  1  0  0  0
 18 19  1  0  0  0
 19 20  2  0  0  0
 19 40  1  0  0  0
 20 21  1  0  0  0
 20 41  1  0  0  0
 21 22  2  0  0  0
 21 42  1  0  0  0
 22 43  1  0  0  0
 23 24  1  0  0  0
 23 28  1  0  0  0
 24 25  1  0  0  0
 24 44  1  0  0  0
 24 45  1  0  0  0
 25 26  1  0  0  0
 25 46  1  0  0  0
 25 47  1  0  0  0
 26 27  1  0  0  0
 26 29  1  0  0  0
 27 28  1  0  0  0
 27 48  1  0  0  0
 27 49  1  0  0  0
 28 50  1  0  0  0
 28 51  1  0  0  0
 29 30  2  0  0  0
 29 31  1  0  0  0
 31 52  1  0  0  0
 31 53  1  0  0  0
 31 54  1  0  0  0
M  END
> <s_m_entry_id>
33194

> <s_m_entry_name>
dock_pv.595

> <s_m_Source_Path>
/home/csk/Desktop/cluster/DUD-E-result/cdk2

> <s_m_Source_File>
dock_pv.maegz

> <i_m_Source_File_Index>
595

> <chembl_id>
CHEMBL1809191

> <chembl_pref_name>
None

> <i_lp_mmshare_version>
53161

> <i_f3d_flags>
0

> <r_lp_tautomer_probability>
0.999999987636

> <s_lp_Force_Field>
OPLS_2005

> <r_lp_Energy>
40.023447

> <b_lp_Chiralities_Consistent>
1

> <s_lp_Variant>
CHEMBL301_lig1050-1

> <s_i_glide_gridfile>
glide-grid_1h00

> <i_i_glide_lignum>
1451

> <i_i_glide_rotatable_bonds>
5

> <r_i_docking_score>
-6.80003160124351

> <r_i_glide_ligand_efficiency>
-0.219355858104629

> <r_i_glide_ligand_efficiency_sa>
-0.68908024784983

> <r_i_glide_ligand_efficiency_ln>
-1.53361552202158

> <r_i_glide_gscore>
-6.80003160124351

> <r_i_glide_lipo>
-2.59594694083215

> <r_i_glide_hbond>
-0.057429913649441

> <r_i_glide_metal>
0

> <r_i_glide_rewards>
-1.57012844603885

> <r_i_glide_evdw>
-46.184497833252

> <r_i_glide_ecoul>
-4.08474159240723

> <r_i_glide_erotb>
0.461591155036905

> <r_i_glide_esite>
-0.116181325236292

> <r_i_glide_emodel>
-68.9789859981242

> <r_i_glide_energy>
-50.2692394256592

> <r_i_glide_einternal>
2.99674463272095

> <i_i_glide_confnum>
4

> <i_i_glide_posenum>
147

> <r_i_glide_eff_state_penalty>
0

> <s_user_duplicate_titles>
CHEMBL301_lig1050

> <s_m_subgroup_title>
dock_pv

> <s_m_subgroupid>
dock_pv

> <b_m_subgroup_collapsed>
1

$$$$
202566
                    3D
 Schrodinger Suite 2021-1.
 50 53  0  0  1  0            999 V2000
    4.9871   27.0609    8.0387 C   0  0  0  0  0  0
    4.1335   28.1617    8.0677 C   0  0  0  0  0  0
    3.6651   28.7114    6.8716 C   0  0  0  0  0  0
    4.0673   28.1595    5.6524 C   0  0  0  0  0  0
    4.9046   27.0424    5.6209 C   0  0  0  0  0  0
    5.3682   26.4952    6.8215 C   0  0  0  0  0  0
    5.3873   26.3409    4.0442 S   0  0  0  0  0  0
    5.7876   27.4509    3.1741 O   0  0  0  0  0  0
    6.2864   25.2124    4.3040 O   0  0  0  0  0  0
    3.9200   25.6849    3.3760 N   0  0  0  0  0  0
    2.8580   29.8521    6.8380 N   0  0  0  0  0  0
    1.8167   30.2964    7.6553 C   0  0  0  0  0  0
    1.3331   31.5375    7.3745 N   0  0  0  0  0  0
    0.2775   31.8705    8.1245 C   0  0  0  0  0  0
   -0.3612   31.0507    9.0779 C   0  0  0  0  0  0
    0.2301   29.8037    9.2837 C   0  0  0  0  0  0
    1.3451   29.4481    8.5949 N   0  0  0  0  0  0
   -0.3540   28.9499   10.1977 O   0  0  0  0  0  0
    0.2165   27.6656   10.4569 C   0  0  0  0  0  0
   -0.9371   26.6648   10.6939 C   0  0  0  0  0  0
   -0.4576   25.2081   10.8933 C   0  0  0  0  0  0
    0.2934   25.0342   12.2307 C   0  0  0  0  0  0
   -0.5615   25.5078   13.4304 C   0  0  0  0  0  0
   -1.1423   26.9244   13.2309 C   0  0  0  0  0  0
   -1.8671   27.0486   11.8731 C   0  0  0  0  0  0
   -1.4309   31.6795    9.6575 N   0  0  0  0  0  0
   -1.4112   32.8692    9.1161 C   0  0  0  0  0  0
   -0.4124   33.0519    8.1805 N   0  0  0  0  0  0
    3.3045   30.6102    6.3297 H   0  0  0  0  0  0
    5.3526   26.6519    8.9676 H   0  0  0  0  0  0
    3.8552   28.5925    9.0176 H   0  0  0  0  0  0
    3.7243   28.5915    4.7238 H   0  0  0  0  0  0
    6.0295   25.6408    6.8145 H   0  0  0  0  0  0
    4.0578   25.4315    2.3803 H   0  0  0  0  0  0
    3.6599   24.8157    3.8460 H   0  0  0  0  0  0
   -0.2410   33.9160    7.6758 H   0  0  0  0  0  0
    0.8790   27.7412   11.3196 H   0  0  0  0  0  0
    0.8237   27.2875    9.6343 H   0  0  0  0  0  0
   -1.5418   26.6655    9.7868 H   0  0  0  0  0  0
    0.1969   24.9113   10.0717 H   0  0  0  0  0  0
   -1.3136   24.5303   10.8659 H   0  0  0  0  0  0
    1.2317   25.5909   12.2059 H   0  0  0  0  0  0
    0.5695   23.9871   12.3663 H   0  0  0  0  0  0
    0.0323   25.4804   14.3440 H   0  0  0  0  0  0
   -1.3827   24.8046   13.5837 H   0  0  0  0  0  0
   -0.3437   27.6652   13.3003 H   0  0  0  0  0  0
   -1.8358   27.1590   14.0408 H   0  0  0  0  0  0
   -2.7503   26.4072   11.8715 H   0  0  0  0  0  0
   -2.2309   28.0708   11.7566 H   0  0  0  0  0  0
   -2.0804   33.6789    9.3727 H   0  0  0  0  0  0
  1  6  1  0  0  0
  1  2  2  0  0  0
  1 30  1  0  0  0
  2  3  1  0  0  0
  2 31  1  0  0  0
  3  4  2  0  0  0
  3 11  1  0  0  0
  4  5  1  0  0  0
  4 32  1  0  0  0
  5  6  2  0  0  0
  5  7  1  0  0  0
  6 33  1  0  0  0
  7  8  2  0  0  0
  7  9  2  0  0  0
  7 10  1  0  0  0
 10 34  1  0  0  0
 10 35  1  0  0  0
 11 12  1  0  0  0
 11 29  1  0  0  0
 12 13  2  0  0  0
 12 17  1  0  0  0
 13 14  1  0  0  0
 14 28  1  0  0  0
 14 15  2  0  0  0
 15 16  1  0  0  0
 15 26  1  0  0  0
 16 17  2  0  0  0
 16 18  1  0  0  0
 18 19  1  0  0  0
 19 20  1  0  0  0
 19 37  1  0  0  0
 19 38  1  0  0  0
 20 25  1  0  0  0
 20 21  1  0  0  0
 20 39  1  0  0  0
 21 22  1  0  0  0
 21 40  1  0  0  0
 21 41  1  0  0  0
 22 23  1  0  0  0
 22 42  1  0  0  0
 22 43  1  0  0  0
 23 24  1  0  0  0
 23 44  1  0  0  0
 23 45  1  0  0  0
 24 25  1  0  0  0
 24 46  1  0  0  0
 24 47  1  0  0  0
 25 48  1  0  0  0
 25 49  1  0  0  0
 26 27  2  0  0  0
 27 50  1  0  0  0
 27 28  1  0  0  0
 28 36  1  0  0  0
M  END
> <s_m_entry_id>
34506

> <s_m_entry_name>
ligand_docking-pose.3

> <s_m_Source_Path>
/home/csk/Desktop/cluster/DUD-E-result/cdk2

> <s_m_Source_File>
ligand_docking-pose.sdf

> <i_m_Source_File_Index>
3

> <i_lp_mmshare_version>
53161

> <r_lp_tautomer_probability>
0.990858854461918

> <s_lp_Force_Field>
OPLS_2005

> <r_lp_Energy>
24.567912

> <b_lp_Chiralities_Consistent>
1

> <s_lp_Variant>
202566-1

> <s_i_glide_gridfile>
glide-grid_1h00

> <i_i_glide_lignum>
565

> <i_i_glide_rotatable_bonds>
6

> <r_i_docking_score>
-9.31198948181473

> <r_i_glide_ligand_efficiency>
-0.332571052921955

> <r_i_glide_ligand_efficiency_sa>
-1.00988159054617

> <r_i_glide_ligand_efficiency_ln>
-2.14948058429452

> <r_i_glide_gscore>
-9.31198948181473

> <r_i_glide_lipo>
-2.47225634990596

> <r_i_glide_hbond>
-0.71212249839876

> <r_i_glide_metal>
0

> <r_i_glide_rewards>
-2.90172436402563

> <r_i_glide_evdw>
-40.2689018249512

> <r_i_glide_ecoul>
-11.2441396713257

> <r_i_glide_erotb>
0.605744072148332

> <r_i_glide_esite>
-0.131564299686296

> <r_i_glide_emodel>
-77.9565619590336

> <r_i_glide_energy>
-51.5130414962769

> <r_i_glide_einternal>
2.23032546043396

> <i_i_glide_confnum>
208

> <i_i_glide_posenum>
84

> <r_i_glide_eff_state_penalty>
0

> <i_f3d_flags>
0

> <s_user_duplicate_titles>
202566

> <s_m_subgroup_title>
dock_pv

> <s_m_subgroupid>
dock_pv1

> <b_m_subgroup_collapsed>
0

$$$$
203103
                    3D
 Schrodinger Suite 2021-1.
 49 52  0  0  1  0            999 V2000
    4.9814   26.9605    7.7998 C   0  0  0  0  0  0
    5.3298   26.4660    6.5438 C   0  0  0  0  0  0
    4.8469   27.0762    5.3840 C   0  0  0  0  0  0
    4.0378   28.2120    5.5098 C   0  0  0  0  0  0
    3.6582   28.6996    6.7677 C   0  0  0  0  0  0
    4.1433   28.0691    7.9168 C   0  0  0  0  0  0
    2.8574   29.8520    6.8223 N   0  0  0  0  0  0
    1.8313   30.2820    7.6754 C   0  0  0  0  0  0
    1.3018   31.5033    7.3760 N   0  0  0  0  0  0
    0.2522   31.8280    8.1454 C   0  0  0  0  0  0
   -0.3420   31.0133    9.1327 C   0  0  0  0  0  0
    0.3040   29.7946    9.3683 C   0  0  0  0  0  0
    1.4163   29.4519    8.6638 N   0  0  0  0  0  0
   -0.2034   28.9612   10.3462 O   0  0  0  0  0  0
    0.4864   27.7483   10.6522 C   0  0  0  0  0  0
   -0.3903   26.8567   11.5557 C   0  0  0  0  0  0
    0.3065   25.5095   11.8554 C   0  0  0  0  0  0
   -0.6042   24.5794   12.6824 C   0  0  0  0  0  0
   -1.0614   25.2535   13.9943 C   0  0  0  0  0  0
   -1.6717   26.6518   13.7507 C   0  0  0  0  0  0
   -0.7431   27.5404   12.8973 C   0  0  0  0  0  0
   -1.4214   31.6247    9.7112 N   0  0  0  0  0  0
   -1.4477   32.8043    9.1422 C   0  0  0  0  0  0
   -0.4582   33.0034    8.2006 N   0  0  0  0  0  0
    5.2381   26.5062    4.0191 C   0  0  0  0  0  0
    4.3027   26.7411    2.9761 O   0  0  0  0  0  0
    3.2832   30.6169    6.3065 H   0  0  0  0  0  0
    5.3637   26.4786    8.6863 H   0  0  0  0  0  0
    5.9757   25.6022    6.4766 H   0  0  0  0  0  0
    3.6815   28.6974    4.6159 H   0  0  0  0  0  0
    3.8901   28.4426    8.8980 H   0  0  0  0  0  0
   -0.3170   33.8633    7.6798 H   0  0  0  0  0  0
    0.7138   27.1998    9.7361 H   0  0  0  0  0  0
    1.4357   27.9792   11.1399 H   0  0  0  0  0  0
   -1.3225   26.6427   11.0294 H   0  0  0  0  0  0
    0.5839   25.0204   10.9223 H   0  0  0  0  0  0
    1.2536   25.6833   12.3703 H   0  0  0  0  0  0
   -1.4789   24.3060   12.0896 H   0  0  0  0  0  0
   -0.0819   23.6474   12.9044 H   0  0  0  0  0  0
   -1.7826   24.6173   14.5079 H   0  0  0  0  0  0
   -0.2075   25.3490   14.6672 H   0  0  0  0  0  0
   -2.6336   26.5492   13.2473 H   0  0  0  0  0  0
   -1.8837   27.1429   14.7021 H   0  0  0  0  0  0
    0.1692   27.7865   13.4425 H   0  0  0  0  0  0
   -1.2209   28.5054   12.7137 H   0  0  0  0  0  0
   -2.1478   33.5949    9.3748 H   0  0  0  0  0  0
    5.3308   25.4225    4.1041 H   0  0  0  0  0  0
    6.2130   26.9024    3.7336 H   0  0  0  0  0  0
    4.4049   26.0481    2.3062 H   0  0  0  0  0  0
  1  6  1  0  0  0
  1  2  2  0  0  0
  1 28  1  0  0  0
  2  3  1  0  0  0
  2 29  1  0  0  0
  3  4  2  0  0  0
  3 25  1  0  0  0
  4  5  1  0  0  0
  4 30  1  0  0  0
  5  6  2  0  0  0
  5  7  1  0  0  0
  6 31  1  0  0  0
  7  8  1  0  0  0
  7 27  1  0  0  0
  8  9  2  0  0  0
  8 13  1  0  0  0
  9 10  1  0  0  0
 10 24  1  0  0  0
 10 11  2  0  0  0
 11 12  1  0  0  0
 11 22  1  0  0  0
 12 13  2  0  0  0
 12 14  1  0  0  0
 14 15  1  0  0  0
 15 16  1  0  0  0
 15 33  1  0  0  0
 15 34  1  0  0  0
 16 21  1  0  0  0
 16 17  1  0  0  0
 16 35  1  0  0  0
 17 18  1  0  0  0
 17 36  1  0  0  0
 17 37  1  0  0  0
 18 19  1  0  0  0
 18 38  1  0  0  0
 18 39  1  0  0  0
 19 20  1  0  0  0
 19 40  1  0  0  0
 19 41  1  0  0  0
 20 21  1  0  0  0
 20 42  1  0  0  0
 20 43  1  0  0  0
 21 44  1  0  0  0
 21 45  1  0  0  0
 22 23  2  0  0  0
 23 46  1  0  0  0
 23 24  1  0  0  0
 24 32  1  0  0  0
 25 26  1  0  0  0
 25 47  1  0  0  0
 25 48  1  0  0  0
 26 49  1  0  0  0
M  END
> <s_m_entry_id>
34507

> <s_m_entry_name>
ligand_docking-pose.4

> <s_m_Source_Path>
/home/csk/Desktop/cluster/DUD-E-result/cdk2

> <s_m_Source_File>
ligand_docking-pose.sdf

> <i_m_Source_File_Index>
4

> <i_lp_mmshare_version>
53161

> <r_lp_tautomer_probability>
0.990858854461918

> <s_lp_Force_Field>
OPLS_2005

> <r_lp_Energy>
16.280146

> <b_lp_Chiralities_Consistent>
1

> <s_lp_Variant>
203103-1

> <s_i_glide_gridfile>
glide-grid_1h00

> <i_i_glide_lignum>
421

> <i_i_glide_rotatable_bonds>
7

> <r_i_docking_score>
-9.28194647827468

> <r_i_glide_ligand_efficiency>
-0.356997941472103

> <r_i_glide_ligand_efficiency_sa>
-1.05760499689204

> <r_i_glide_ligand_efficiency_ln>
-2.17983467387227

> <r_i_glide_gscore>
-9.28194647827468

> <r_i_glide_lipo>
-2.40333374860341

> <r_i_glide_hbond>
-0.688439874968905

> <r_i_glide_metal>
0

> <r_i_glide_rewards>
-3.64052050545308

> <r_i_glide_evdw>
-39.7703895568848

> <r_i_glide_ecoul>
-9.77646732330322

> <r_i_glide_erotb>
0.917338100688751

> <r_i_glide_esite>
-0.0120008735983076

> <r_i_glide_emodel>
-75.8787227749046

> <r_i_glide_energy>
-49.546856880188

> <r_i_glide_einternal>
2.37400579452515

> <i_i_glide_confnum>
170

> <i_i_glide_posenum>
313

> <r_i_glide_eff_state_penalty>
0

> <i_f3d_flags>
0

> <s_user_duplicate_titles>
203103

> <s_m_subgroup_title>
dock_pv

> <s_m_subgroupid>
dock_pv1

> <b_m_subgroup_collapsed>
0

$$$$
339602
                    3D
 Schrodinger Suite 2021-1.
 36 38  0  0  1  0            999 V2000
    4.4744   25.6351    4.5768 C   0  0  0  0  0  0
    4.5638   25.1969    5.8973 C   0  0  0  0  0  0
    4.6394   26.1289    6.9311 C   0  0  0  0  0  0
    4.6196   27.4968    6.6395 C   0  0  0  0  0  0
    4.5246   27.9278    5.3118 C   0  0  0  0  0  0
    4.4580   26.9966    4.2791 C   0  0  0  0  0  0
    4.6570   28.5192    7.7691 C   0  0  0  0  0  0
    3.2574   29.0516    8.1005 C   0  0  0  0  0  0
    2.5972   28.5064    8.9831 O   0  0  0  0  0  0
    2.8579   30.1137    7.3752 N   0  0  0  0  0  0
    1.7149   30.8702    7.5288 C   0  0  0  0  0  0
    0.5590   30.6504    8.2881 C   0  0  0  0  0  0
   -0.1689   31.7894    8.1806 C   0  0  0  0  0  0
    0.5655   32.6526    7.4273 N   0  0  0  0  0  0
    1.6769   32.0671    6.9745 N   0  0  0  0  0  0
   -1.4639   31.7399    8.9097 C   0  0  0  0  0  0
   -1.3833   30.4067    9.5215 N   0  0  0  0  0  0
   -0.1347   29.6894    9.2041 C   0  0  0  0  0  0
   -2.4192   29.8857   10.2050 C   0  0  0  0  0  0
   -3.5421   30.3701   10.1760 O   0  0  0  0  0  0
   -2.1427   28.8351   10.9762 N   0  0  0  0  0  0
    0.3069   33.6043    7.1860 H   0  0  0  0  0  0
    4.4165   24.9155    3.7718 H   0  0  0  0  0  0
    4.5718   24.1394    6.1178 H   0  0  0  0  0  0
    4.6988   25.7904    7.9557 H   0  0  0  0  0  0
    4.5078   28.9824    5.0797 H   0  0  0  0  0  0
    4.3925   27.3227    3.2518 H   0  0  0  0  0  0
    5.0869   28.0803    8.6724 H   0  0  0  0  0  0
    5.3125   29.3462    7.4886 H   0  0  0  0  0  0
    3.5450   30.5175    6.7478 H   0  0  0  0  0  0
   -1.5490   32.5098    9.6774 H   0  0  0  0  0  0
   -2.3280   31.8174    8.2483 H   0  0  0  0  0  0
   -0.3436   28.7345    8.7197 H   0  0  0  0  0  0
    0.4388   29.4972   10.1120 H   0  0  0  0  0  0
   -2.8536   28.5052   11.6118 H   0  0  0  0  0  0
   -1.2089   28.4578   11.0150 H   0  0  0  0  0  0
  1  6  1  0  0  0
  1  2  2  0  0  0
  1 23  1  0  0  0
  2  3  1  0  0  0
  2 24  1  0  0  0
  3  4  2  0  0  0
  3 25  1  0  0  0
  4  5  1  0  0  0
  4  7  1  0  0  0
  5  6  2  0  0  0
  5 26  1  0  0  0
  6 27  1  0  0  0
  7  8  1  0  0  0
  7 28  1  0  0  0
  7 29  1  0  0  0
  8  9  2  0  0  0
  8 10  1  0  0  0
 10 30  1  0  0  0
 10 11  1  0  0  0
 11 15  2  0  0  0
 11 12  1  0  0  0
 12 13  2  0  0  0
 12 18  1  0  0  0
 13 14  1  0  0  0
 13 16  1  0  0  0
 14 15  1  0  0  0
 14 22  1  0  0  0
 16 17  1  0  0  0
 16 31  1  0  0  0
 16 32  1  0  0  0
 17 18  1  0  0  0
 17 19  1  0  0  0
 18 33  1  0  0  0
 18 34  1  0  0  0
 19 20  2  0  0  0
 19 21  1  0  0  0
 21 35  1  0  0  0
 21 36  1  0  0  0
M  END
> <s_m_entry_id>
34510

> <s_m_entry_name>
ligand_docking-pose.7

> <s_m_Source_Path>
/home/csk/Desktop/cluster/DUD-E-result/cdk2

> <s_m_Source_File>
ligand_docking-pose.sdf

> <i_m_Source_File_Index>
7

> <i_lp_mmshare_version>
53161

> <r_lp_tautomer_probability>
0.5

> <s_lp_Force_Field>
OPLS_2005

> <r_lp_Energy>
40.110639

> <b_lp_Chiralities_Consistent>
1

> <s_lp_Variant>
339602-2

> <s_i_glide_gridfile>
glide-grid_1h00

> <i_i_glide_lignum>
253

> <i_i_glide_rotatable_bonds>
5

> <r_i_docking_score>
-9.23309363439442

> <r_i_glide_ligand_efficiency>
-0.439671125447353

> <r_i_glide_ligand_efficiency_sa>
-1.21301929642238

> <r_i_glide_ligand_efficiency_ln>
-2.2828637438816

> <r_i_glide_gscore>
-9.23309363439442

> <r_i_glide_lipo>
-2.53390031917372

> <r_i_glide_hbond>
-0.864

> <r_i_glide_metal>
0

> <r_i_glide_rewards>
-3.58383980529626

> <r_i_glide_evdw>
-32.117805480957

> <r_i_glide_ecoul>
-7.41066646575928

> <r_i_glide_erotb>
0.468038327930364

> <r_i_glide_esite>
-0.0019015939430632

> <r_i_glide_emodel>
-59.2184919322115

> <r_i_glide_energy>
-39.5284719467163

> <r_i_glide_einternal>
7.07000827789307

> <i_i_glide_confnum>
6

> <i_i_glide_posenum>
55

> <r_i_glide_eff_state_penalty>
0

> <i_f3d_flags>
0

> <s_user_duplicate_titles>
339602

> <s_m_subgroup_title>
dock_pv

> <s_m_subgroupid>
dock_pv1

> <b_m_subgroup_collapsed>
0

$$$$
310927
                    3D
 Schrodinger Suite 2021-1.
 65 69  0  0  1  0            999 V2000
    6.4659   24.6502    7.5202 C   0  0  0  0  0  0
    6.1534   25.6489    6.5627 O   0  0  0  0  0  0
    5.2663   26.6478    6.9066 C   0  0  0  0  0  0
    4.9438   27.5561    5.9043 C   0  0  0  0  0  0
    4.0584   28.5949    6.1590 C   0  0  0  0  0  0
    3.4825   28.7311    7.4250 C   0  0  0  0  0  0
    3.8113   27.8404    8.4427 C   0  0  0  0  0  0
    4.6882   26.7944    8.1756 C   0  0  0  0  0  0
    2.4579   29.7744    7.6468 C   0  0  0  0  0  0
    1.3076   29.8553    8.4145 C   0  0  0  0  0  0
    0.7476   31.0809    8.0908 C   0  0  0  0  0  0
    1.4301   31.7647    7.2137 N   0  0  0  0  0  0
    2.4580   30.9621    6.9757 N   0  0  0  0  0  0
   -0.4634   31.3069    8.8327 C   0  0  0  0  0  0
   -1.3256   32.3950    8.8956 C   0  0  0  0  0  0
   -2.4615   32.2929    9.6822 C   0  0  0  0  0  0
   -2.7440   31.1159   10.3560 C   0  0  0  0  0  0
   -1.8405   30.0566   10.3516 C   0  0  0  0  0  0
   -0.6703   30.1515    9.5830 C   0  0  0  0  0  0
    0.4538   29.1845    9.3703 C   0  0  0  0  0  0
    0.6049   28.0685    9.8606 O   0  0  0  0  0  0
   -2.1964   28.9558   11.1169 N   0  0  0  0  0  0
   -1.4444   28.4631   12.1076 C   0  0  0  0  0  0
   -0.4194   28.9983   12.5480 O   0  0  0  0  0  0
   -1.9766   27.3202   12.5627 N   0  0  0  0  0  0
   -1.7504   27.0528   13.8914 N   0  0  0  0  0  0
   -0.8288   26.1569   14.2580 C   0  0  0  0  0  0
   -0.3416   26.2384   15.3760 O   0  0  0  0  0  0
   -0.5851   24.9492   13.3941 C   0  0  0  0  0  0
   -1.2846   23.7694   13.6514 C   0  0  0  0  0  0
   -1.0924   22.6343   12.8539 C   0  0  0  0  0  0
   -0.1596   22.6855   11.8066 C   0  0  0  0  0  0
    0.5797   23.8510   11.5590 C   0  0  0  0  0  0
    0.3440   24.9895   12.3485 C   0  0  0  0  0  0
    1.5159   23.7930   10.5422 O   0  0  0  0  0  0
    2.2590   24.9553   10.1942 C   0  0  0  0  0  0
    0.0092   21.5993   10.9762 O   0  0  0  0  0  0
    0.7623   20.5299   11.5336 C   0  0  0  0  0  0
   -1.7854   21.4522   13.0280 O   0  0  0  0  0  0
   -2.6060   21.2664   14.1744 C   0  0  0  0  0  0
    3.2122   31.2304    6.3477 H   0  0  0  0  0  0
    7.2025   23.9657    7.1010 H   0  0  0  0  0  0
    6.8916   25.0780    8.4294 H   0  0  0  0  0  0
    5.5784   24.0694    7.7754 H   0  0  0  0  0  0
    5.3903   27.4546    4.9260 H   0  0  0  0  0  0
    3.8120   29.2797    5.3621 H   0  0  0  0  0  0
    3.3686   27.9307    9.4252 H   0  0  0  0  0  0
    4.8984   26.1013    8.9723 H   0  0  0  0  0  0
   -1.1263   33.3019    8.3430 H   0  0  0  0  0  0
   -3.1418   33.1198    9.7756 H   0  0  0  0  0  0
   -3.6476   31.0672   10.9422 H   0  0  0  0  0  0
   -3.1856   28.8441   11.2618 H   0  0  0  0  0  0
   -2.8582   26.9488   12.2404 H   0  0  0  0  0  0
   -2.4465   27.4627   14.5025 H   0  0  0  0  0  0
   -1.9984   23.7506   14.4622 H   0  0  0  0  0  0
    0.8892   25.9066   12.1705 H   0  0  0  0  0  0
    2.9483   24.7022    9.3893 H   0  0  0  0  0  0
    1.6037   25.7411    9.8215 H   0  0  0  0  0  0
    2.8524   25.3355   11.0283 H   0  0  0  0  0  0
    0.9075   19.7600   10.7763 H   0  0  0  0  0  0
    1.7478   20.8643   11.8604 H   0  0  0  0  0  0
    0.2507   20.0648   12.3772 H   0  0  0  0  0  0
   -3.0039   20.2511   14.1658 H   0  0  0  0  0  0
   -3.4518   21.9519   14.1768 H   0  0  0  0  0  0
   -2.0384   21.3927   15.0972 H   0  0  0  0  0  0
  1  2  1  0  0  0
  1 42  1  0  0  0
  1 43  1  0  0  0
  1 44  1  0  0  0
  2  3  1  0  0  0
  3  8  1  0  0  0
  3  4  2  0  0  0
  4  5  1  0  0  0
  4 45  1  0  0  0
  5  6  2  0  0  0
  5 46  1  0  0  0
  6  7  1  0  0  0
  6  9  1  0  0  0
  7  8  2  0  0  0
  7 47  1  0  0  0
  8 48  1  0  0  0
  9 13  1  0  0  0
  9 10  2  0  0  0
 10 20  1  0  0  0
 10 11  1  0  0  0
 11 12  2  0  0  0
 11 14  1  0  0  0
 12 13  1  0  0  0
 13 41  1  0  0  0
 14 19  2  0  0  0
 14 15  1  0  0  0
 15 16  2  0  0  0
 15 49  1  0  0  0
 16 17  1  0  0  0
 16 50  1  0  0  0
 17 18  2  0  0  0
 17 51  1  0  0  0
 18 19  1  0  0  0
 18 22  1  0  0  0
 19 20  1  0  0  0
 20 21  2  0  0  0
 22 23  1  0  0  0
 22 52  1  0  0  0
 23 24  2  0  0  0
 23 25  1  0  0  0
 25 26  1  0  0  0
 25 53  1  0  0  0
 26 27  1  0  0  0
 26 54  1  0  0  0
 27 28  2  0  0  0
 27 29  1  0  0  0
 29 34  1  0  0  0
 29 30  2  0  0  0
 30 31  1  0  0  0
 30 55  1  0  0  0
 31 32  2  0  0  0
 31 39  1  0  0  0
 32 33  1  0  0  0
 32 37  1  0  0  0
 33 34  2  0  0  0
 33 35  1  0  0  0
 34 56  1  0  0  0
 35 36  1  0  0  0
 36 57  1  0  0  0
 36 58  1  0  0  0
 36 59  1  0  0  0
 37 38  1  0  0  0
 38 60  1  0  0  0
 38 61  1  0  0  0
 38 62  1  0  0  0
 39 40  1  0  0  0
 40 63  1  0  0  0
 40 64  1  0  0  0
 40 65  1  0  0  0
M  END
> <s_m_entry_id>
34512

> <s_m_entry_name>
ligand_docking-pose.9

> <s_m_Source_Path>
/home/csk/Desktop/cluster/DUD-E-result/cdk2

> <s_m_Source_File>
ligand_docking-pose.sdf

> <i_m_Source_File_Index>
9

> <i_lp_mmshare_version>
53161

> <r_lp_tautomer_probability>
1

> <s_lp_Force_Field>
OPLS_2005

> <r_lp_Energy>
82.50606

> <b_lp_Chiralities_Consistent>
1

> <s_lp_Variant>
310927-1

> <s_i_glide_gridfile>
glide-grid_1h00

> <i_i_glide_lignum>
1653

> <i_i_glide_rotatable_bonds>
11

> <r_i_docking_score>
-9.20757455964137

> <r_i_glide_ligand_efficiency>
-0.230189363991034

> <r_i_glide_ligand_efficiency_sa>
-0.787236550242944

> <r_i_glide_ligand_efficiency_ln>
-1.96370468674831

> <r_i_glide_gscore>
-9.20757455964137

> <r_i_glide_lipo>
-3.24368451107639

> <r_i_glide_hbond>
-0.545416241611312

> <r_i_glide_metal>
0

> <r_i_glide_rewards>
-1.4242630745464

> <r_i_glide_evdw>
-49.5272636413574

> <r_i_glide_ecoul>
-12.6335163116455

> <r_i_glide_erotb>
0.490315518665603

> <r_i_glide_esite>
-0.11313562225817

> <r_i_glide_emodel>
-81.4739949921991

> <r_i_glide_energy>
-62.1607799530029

> <r_i_glide_einternal>
22.9171524047852

> <i_i_glide_confnum>
9

> <i_i_glide_posenum>
25

> <r_i_glide_eff_state_penalty>
0

> <i_f3d_flags>
0

> <s_user_duplicate_titles>
310927

> <s_m_subgroup_title>
dock_pv

> <s_m_subgroupid>
dock_pv1

> <b_m_subgroup_collapsed>
0

$$$$
347749
                    3D
 Schrodinger Suite 2021-1.
 48 51  0  0  1  0            999 V2000
    5.4308   28.3455    8.5701 C   0  0  0  0  0  0
    4.5345   28.3802    7.3335 C   0  0  1  0  0  0
    4.4659   26.9934    6.6759 C   0  0  0  0  0  0
    4.4579   25.8262    7.4486 C   0  0  0  0  0  0
    4.4252   24.5765    6.8446 C   0  0  0  0  0  0
    4.3733   24.4494    5.4464 C   0  0  0  0  0  0
    4.4053   25.6283    4.6788 C   0  0  0  0  0  0
    4.4568   26.8826    5.2847 C   0  0  0  0  0  0
    4.2783   23.1857    4.7838 N   0  0  0  0  0  0
    4.2577   23.0730    3.3186 C   0  0  0  0  0  0
    4.3687   21.6045    2.9965 C   0  0  0  0  0  0
    3.8299   20.9426    4.2334 C   0  0  1  0  0  0
    4.0404   21.9645    5.3620 C   0  0  0  0  0  0
    3.9628   21.6655    6.5546 O   0  0  0  0  0  0
    2.4580   20.5962    4.1325 O   0  0  0  0  0  0
    3.1611   28.9657    7.7449 C   0  0  0  0  0  0
    2.5466   28.4769    8.6966 O   0  0  0  0  0  0
    2.7364   30.0399    7.0542 N   0  0  0  0  0  0
    1.6584   30.8452    7.3760 C   0  0  0  0  0  0
    0.5099   30.5699    8.1439 C   0  0  0  0  0  0
   -0.1852   31.7650    8.2578 C   0  0  0  0  0  0
    0.5896   32.6518    7.5555 N   0  0  0  0  0  0
    1.6581   32.0953    6.9760 N   0  0  0  0  0  0
   -1.4727   32.1750    8.9449 C   0  0  0  0  0  0
   -2.5556   31.1556    9.2139 C   0  0  0  0  0  0
   -1.7654   31.7445   10.3611 C   0  0  0  0  0  0
    5.0096   29.0519    6.6153 H   0  0  0  0  0  0
    4.4123   20.0483    4.4594 H   0  0  0  0  0  0
    0.3666   33.6323    7.4228 H   0  0  0  0  0  0
    4.9270   27.8316    9.3765 H   0  0  0  0  0  0
    6.3479   27.7849    8.4074 H   0  0  0  0  0  0
    5.6579   29.3534    8.9079 H   0  0  0  0  0  0
    4.4655   25.8700    8.5275 H   0  0  0  0  0  0
    4.4163   23.7270    7.5051 H   0  0  0  0  0  0
    4.3771   25.5983    3.5994 H   0  0  0  0  0  0
    4.4812   27.7684    4.6667 H   0  0  0  0  0  0
    3.3185   23.4851    2.9456 H   0  0  0  0  0  0
    5.0781   23.6311    2.8651 H   0  0  0  0  0  0
    3.8533   21.3357    2.0729 H   0  0  0  0  0  0
    5.4203   21.3427    2.8632 H   0  0  0  0  0  0
    1.9634   21.3916    3.8846 H   0  0  0  0  0  0
    3.4065   30.4586    6.4170 H   0  0  0  0  0  0
    0.2416   29.6253    8.5922 H   0  0  0  0  0  0
   -1.8140   33.1741    8.6758 H   0  0  0  0  0  0
   -2.3893   30.1071    8.9762 H   0  0  0  0  0  0
   -3.5959   31.4516    9.0771 H   0  0  0  0  0  0
   -2.2698   32.4431   11.0292 H   0  0  0  0  0  0
   -1.0422   31.1145   10.8808 H   0  0  0  0  0  0
  1  2  1  0  0  0
  1 30  1  0  0  0
  1 31  1  0  0  0
  1 32  1  0  0  0
  2 27  1  0  0  0
  2  3  1  0  0  0
  2 16  1  0  0  0
  3  8  1  0  0  0
  3  4  2  0  0  0
  4  5  1  0  0  0
  4 33  1  0  0  0
  5  6  2  0  0  0
  5 34  1  0  0  0
  6  7  1  0  0  0
  6  9  1  0  0  0
  7  8  2  0  0  0
  7 35  1  0  0  0
  8 36  1  0  0  0
  9 13  1  0  0  0
  9 10  1  0  0  0
 10 11  1  0  0  0
 10 37  1  0  0  0
 10 38  1  0  0  0
 11 12  1  0  0  0
 11 39  1  0  0  0
 11 40  1  0  0  0
 12 28  1  0  0  0
 12 13  1  0  0  0
 12 15  1  0  0  0
 13 14  2  0  0  0
 15 41  1  0  0  0
 16 17  2  0  0  0
 16 18  1  0  0  0
 18 42  1  0  0  0
 18 19  1  0  0  0
 19 23  2  0  0  0
 19 20  1  0  0  0
 20 21  2  0  0  0
 20 43  1  0  0  0
 21 22  1  0  0  0
 21 24  1  0  0  0
 22 23  1  0  0  0
 22 29  1  0  0  0
 24 26  1  0  0  0
 24 25  1  0  0  0
 24 44  1  0  0  0
 25 26  1  0  0  0
 25 45  1  0  0  0
 25 46  1  0  0  0
 26 47  1  0  0  0
 26 48  1  0  0  0
M  END
> <s_m_entry_id>
34513

> <s_m_entry_name>
ligand_docking-pose.10

> <s_m_Source_Path>
/home/csk/Desktop/cluster/DUD-E-result/cdk2

> <s_m_Source_File>
ligand_docking-pose.sdf

> <i_m_Source_File_Index>
10

> <i_lp_mmshare_version>
53161

> <r_lp_tautomer_probability>
0.5

> <s_lp_Force_Field>
OPLS_2005

> <r_lp_Energy>
40.57628

> <b_lp_Chiralities_Consistent>
1

> <s_lp_Variant>
347749-2

> <s_i_glide_gridfile>
glide-grid_1h00

> <i_i_glide_lignum>
1295

> <i_i_glide_rotatable_bonds>
7

> <r_i_docking_score>
-9.1223308388929

> <r_i_glide_ligand_efficiency>
-0.350858878418958

> <r_i_glide_ligand_efficiency_sa>
-1.03941804675314

> <r_i_glide_ligand_efficiency_ln>
-2.14234946470509

> <r_i_glide_gscore>
-9.1223308388929

> <r_i_glide_lipo>
-2.74244518207739

> <r_i_glide_hbond>
-0.96

> <r_i_glide_metal>
0

> <r_i_glide_rewards>
-2.52367036928022

> <r_i_glide_evdw>
-28.9619407653809

> <r_i_glide_ecoul>
-13.8472185134888

> <r_i_glide_erotb>
0.638964660231924

> <r_i_glide_esite>
-0.0100001324748571

> <r_i_glide_emodel>
-59.4888751273505

> <r_i_glide_energy>
-42.8091592788696

> <r_i_glide_einternal>
9.39573192596436

> <i_i_glide_confnum>
19

> <i_i_glide_posenum>
26

> <r_i_glide_eff_state_penalty>
0

> <i_f3d_flags>
0

> <s_user_duplicate_titles>
347749

> <s_m_subgroup_title>
dock_pv

> <s_m_subgroupid>
dock_pv1

> <b_m_subgroup_collapsed>
0

$$$$
303769
                    3D
 Schrodinger Suite 2021-1.
 56 60  0  0  1  0            999 V2000
    3.7130   28.2221    8.2338 C   0  0  0  0  0  0
    4.4082   27.0208    8.1050 C   0  0  0  0  0  0
    4.9028   26.6000    6.8631 C   0  0  0  0  0  0
    4.7386   27.4416    5.7515 C   0  0  0  0  0  0
    4.0566   28.6455    5.8842 C   0  0  0  0  0  0
    3.5252   29.0273    7.1129 C   0  0  0  0  0  0
    2.8580   30.2459    7.1553 N   0  0  0  0  0  0
    1.6591   30.6528    7.7278 C   0  0  0  0  0  0
    1.2572   31.8952    7.3760 N   0  0  0  0  0  0
    0.1041   32.3129    7.9547 C   0  0  0  0  0  0
   -0.6919   31.5025    8.8017 C   0  0  0  0  0  0
   -1.9214   31.9154    9.3460 C   0  0  0  0  0  0
   -2.6212   31.0507   10.1751 C   0  0  0  0  0  0
   -2.1238   29.7905   10.5009 C   0  0  0  0  0  0
   -0.9035   29.3237    9.9774 C   0  0  0  0  0  0
   -0.1757   30.2033    9.1028 C   0  0  0  0  0  0
    1.0196   29.8152    8.5738 N   0  0  0  0  0  0
   -0.2638   27.9620   10.3881 C   0  0  0  0  0  0
    0.3688   27.9779   11.7800 C   0  0  0  0  0  0
   -0.6289   27.3128   12.7355 C   0  0  0  0  0  0
   -1.4673   26.3569   11.8715 C   0  0  0  0  0  0
   -1.1214   26.6812   10.4085 C   0  0  0  0  0  0
   -2.8668   29.0517   11.3760 O   0  0  0  0  0  0
    5.2389   27.1212    4.5356 F   0  0  0  0  0  0
    5.6299   25.4233    6.8015 N   0  0  0  0  0  0
    6.8944   25.2884    7.5293 C   0  0  0  0  0  0
    8.1177   25.3299    6.5815 C   0  0  0  0  0  0
    8.0388   24.2558    5.5964 N   0  0  0  0  0  0
    6.8202   24.4279    4.8069 C   0  0  0  0  0  0
    5.5533   24.4483    5.7014 C   0  0  0  0  0  0
    3.3318   28.5231    9.1983 H   0  0  0  0  0  0
    4.5446   26.3989    8.9757 H   0  0  0  0  0  0
    3.9481   29.2840    5.0203 H   0  0  0  0  0  0
    3.3365   30.9528    6.5985 H   0  0  0  0  0  0
   -0.2192   33.3151    7.7083 H   0  0  0  0  0  0
   -2.3139   32.8965    9.1176 H   0  0  0  0  0  0
   -3.5665   31.3801   10.5822 H   0  0  0  0  0  0
    0.5211   27.7606    9.6610 H   0  0  0  0  0  0
    0.7198   28.9616   12.0946 H   0  0  0  0  0  0
    1.2688   27.3660   11.7469 H   0  0  0  0  0  0
   -1.2665   28.0695   13.1959 H   0  0  0  0  0  0
   -0.1225   26.7941   13.5511 H   0  0  0  0  0  0
   -2.5324   26.4922   12.0625 H   0  0  0  0  0  0
   -1.2399   25.3160   12.1039 H   0  0  0  0  0  0
   -0.4945   25.8621   10.0482 H   0  0  0  0  0  0
   -1.9420   26.6674    9.7016 H   0  0  0  0  0  0
   -3.3663   29.6269   11.9806 H   0  0  0  0  0  0
    6.9982   26.0914    8.2604 H   0  0  0  0  0  0
    6.8579   24.3608    8.1003 H   0  0  0  0  0  0
    9.0446   25.2238    7.1461 H   0  0  0  0  0  0
    8.1879   26.2966    6.0765 H   0  0  0  0  0  0
    8.8457   24.2914    4.9867 H   0  0  0  0  0  0
    6.7559   23.6209    4.0766 H   0  0  0  0  0  0
    6.8969   25.3423    4.2162 H   0  0  0  0  0  0
    5.3670   23.4595    6.1205 H   0  0  0  0  0  0
    4.6895   24.6718    5.0755 H   0  0  0  0  0  0
  1  6  1  0  0  0
  1  2  2  0  0  0
  1 31  1  0  0  0
  2  3  1  0  0  0
  2 32  1  0  0  0
  3  4  2  0  0  0
  3 25  1  0  0  0
  4  5  1  0  0  0
  4 24  1  0  0  0
  5  6  2  0  0  0
  5 33  1  0  0  0
  6  7  1  0  0  0
  7  8  1  0  0  0
  7 34  1  0  0  0
  8 17  1  0  0  0
  8  9  2  0  0  0
  9 10  1  0  0  0
 10 11  2  0  0  0
 10 35  1  0  0  0
 11 16  1  0  0  0
 11 12  1  0  0  0
 12 13  2  0  0  0
 12 36  1  0  0  0
 13 14  1  0  0  0
 13 37  1  0  0  0
 14 15  2  0  0  0
 14 23  1  0  0  0
 15 16  1  0  0  0
 15 18  1  0  0  0
 16 17  2  0  0  0
 18 22  1  0  0  0
 18 19  1  0  0  0
 18 38  1  0  0  0
 19 20  1  0  0  0
 19 39  1  0  0  0
 19 40  1  0  0  0
 20 21  1  0  0  0
 20 41  1  0  0  0
 20 42  1  0  0  0
 21 22  1  0  0  0
 21 43  1  0  0  0
 21 44  1  0  0  0
 22 45  1  0  0  0
 22 46  1  0  0  0
 23 47  1  0  0  0
 25 30  1  0  0  0
 25 26  1  0  0  0
 26 27  1  0  0  0
 26 48  1  0  0  0
 26 49  1  0  0  0
 27 28  1  0  0  0
 27 50  1  0  0  0
 27 51  1  0  0  0
 28 29  1  0  0  0
 28 52  1  0  0  0
 29 30  1  0  0  0
 29 53  1  0  0  0
 29 54  1  0  0  0
 30 55  1  0  0  0
 30 56  1  0  0  0
M  END
> <s_m_entry_id>
34514

> <s_m_entry_name>
ligand_docking-pose.11

> <s_m_Source_Path>
/home/csk/Desktop/cluster/DUD-E-result/cdk2

> <s_m_Source_File>
ligand_docking-pose.sdf

> <i_m_Source_File_Index>
11

> <i_lp_mmshare_version>
53161

> <r_lp_tautomer_probability>
1

> <s_lp_Force_Field>
OPLS_2005

> <r_lp_Energy>
59.716655

> <b_lp_Chiralities_Consistent>
1

> <s_lp_Variant>
303769-1

> <s_i_glide_gridfile>
glide-grid_1h00

> <i_i_glide_lignum>
423

> <i_i_glide_rotatable_bonds>
5

> <r_i_docking_score>
-9.12161051512482

> <r_i_glide_ligand_efficiency>
-0.304053683837494

> <r_i_glide_ligand_efficiency_sa>
-0.944765488903768

> <r_i_glide_ligand_efficiency_ln>
-2.07252929694327

> <r_i_glide_gscore>
-9.12161051512482

> <r_i_glide_lipo>
-3.40541332106367

> <r_i_glide_hbond>
-0.452540001390297

> <r_i_glide_metal>
0

> <r_i_glide_rewards>
-2.41492590758618

> <r_i_glide_evdw>
-37.904727935791

> <r_i_glide_ecoul>
-9.51601505279541

> <r_i_glide_erotb>
0.473907369624185

> <r_i_glide_esite>
0

> <r_i_glide_emodel>
-73.3934649809379

> <r_i_glide_energy>
-47.4207429885864

> <r_i_glide_einternal>
3.78620719909668

> <i_i_glide_confnum>
12

> <i_i_glide_posenum>
124

> <r_i_glide_eff_state_penalty>
0

> <i_f3d_flags>
0

> <s_user_duplicate_titles>
303769

> <s_m_subgroup_title>
dock_pv

> <s_m_subgroupid>
dock_pv1

> <b_m_subgroup_collapsed>
0

$$$$
310686
                    3D
 Schrodinger Suite 2021-1.
 55 59  0  0  1  0            999 V2000
    7.3616   25.4516    7.4966 C   0  0  0  0  0  0
    6.5576   26.0337    6.4780 O   0  0  0  0  0  0
    5.5670   26.9285    6.8298 C   0  0  0  0  0  0
    4.8972   27.5581    5.7835 C   0  0  0  0  0  0
    3.9229   28.5116    6.0479 C   0  0  0  0  0  0
    3.5710   28.8076    7.3679 C   0  0  0  0  0  0
    4.2066   28.1572    8.4213 C   0  0  0  0  0  0
    5.2155   27.2380    8.1504 C   0  0  0  0  0  0
    2.5046   29.8074    7.6146 C   0  0  0  0  0  0
    1.3721   29.8524    8.4069 C   0  0  0  0  0  0
    0.7603   31.0526    8.1028 C   0  0  0  0  0  0
    1.4052   31.7630    7.2174 N   0  0  0  0  0  0
    2.4579   30.9971    6.9523 N   0  0  0  0  0  0
   -0.4484   31.2160    8.8701 C   0  0  0  0  0  0
   -1.3584   32.2595    8.9486 C   0  0  0  0  0  0
   -2.4868   32.0983    9.7340 C   0  0  0  0  0  0
   -2.7090   30.9006   10.4075 C   0  0  0  0  0  0
   -1.7343   29.8998   10.4291 C   0  0  0  0  0  0
   -0.5888   30.0525    9.6273 C   0  0  0  0  0  0
    0.5701   29.1374    9.3777 C   0  0  0  0  0  0
    0.7773   28.0245    9.8585 O   0  0  0  0  0  0
   -1.9830   28.7885   11.2407 N   0  0  0  0  0  0
   -1.1724   28.3979   12.2381 C   0  0  0  0  0  0
   -0.3419   29.1379   12.7755 O   0  0  0  0  0  0
   -1.3570   27.0970   12.5258 N   0  0  0  0  0  0
   -0.8401   26.6873   13.7454 N   0  0  0  0  0  0
   -1.3515   25.5599   14.2666 C   0  0  0  0  0  0
   -1.9417   25.5742   15.3480 O   0  0  0  0  0  0
   -1.1124   24.2565   13.5213 C   0  0  0  0  0  0
   -0.2056   24.1793   12.4484 C   0  0  0  0  0  0
   -0.0035   22.9797   11.7740 C   0  0  0  0  0  0
   -0.6870   21.8384   12.1772 C   0  0  0  0  0  0
   -1.5481   21.8810   13.2687 C   0  0  0  0  0  0
   -1.7730   23.0880   13.9301 C   0  0  0  0  0  0
   -0.5270   20.6520   11.4691 N   0  0  0  0  0  0
    3.1942   31.2931    6.3171 H   0  0  0  0  0  0
    8.1122   24.8095    7.0369 H   0  0  0  0  0  0
    7.8883   26.2113    8.0760 H   0  0  0  0  0  0
    6.7675   24.8358    8.1721 H   0  0  0  0  0  0
    5.1661   27.3291    4.7627 H   0  0  0  0  0  0
    3.4322   29.0071    5.2244 H   0  0  0  0  0  0
    3.9332   28.3699    9.4441 H   0  0  0  0  0  0
    5.7191   26.7686    8.9760 H   0  0  0  0  0  0
   -1.2049   33.1769    8.3985 H   0  0  0  0  0  0
   -3.1813   32.9125    9.8171 H   0  0  0  0  0  0
   -3.6168   30.7917   10.9760 H   0  0  0  0  0  0
   -2.9551   28.5718   11.3973 H   0  0  0  0  0  0
   -1.0080   26.4737   11.8122 H   0  0  0  0  0  0
   -0.4196   27.4399   14.2714 H   0  0  0  0  0  0
    0.3562   25.0417   12.1182 H   0  0  0  0  0  0
    0.6780   22.9464   10.9365 H   0  0  0  0  0  0
   -2.0677   20.9869   13.5844 H   0  0  0  0  0  0
   -2.4644   23.1041   14.7605 H   0  0  0  0  0  0
    0.2233   20.5722   10.7998 H   0  0  0  0  0  0
   -0.9705   19.8002   11.8262 H   0  0  0  0  0  0
  1  2  1  0  0  0
  1 37  1  0  0  0
  1 38  1  0  0  0
  1 39  1  0  0  0
  2  3  1  0  0  0
  3  8  1  0  0  0
  3  4  2  0  0  0
  4  5  1  0  0  0
  4 40  1  0  0  0
  5  6  2  0  0  0
  5 41  1  0  0  0
  6  7  1  0  0  0
  6  9  1  0  0  0
  7  8  2  0  0  0
  7 42  1  0  0  0
  8 43  1  0  0  0
  9 13  1  0  0  0
  9 10  2  0  0  0
 10 20  1  0  0  0
 10 11  1  0  0  0
 11 12  2  0  0  0
 11 14  1  0  0  0
 12 13  1  0  0  0
 13 36  1  0  0  0
 14 19  2  0  0  0
 14 15  1  0  0  0
 15 16  2  0  0  0
 15 44  1  0  0  0
 16 17  1  0  0  0
 16 45  1  0  0  0
 17 18  2  0  0  0
 17 46  1  0  0  0
 18 19  1  0  0  0
 18 22  1  0  0  0
 19 20  1  0  0  0
 20 21  2  0  0  0
 22 23  1  0  0  0
 22 47  1  0  0  0
 23 24  2  0  0  0
 23 25  1  0  0  0
 25 26  1  0  0  0
 25 48  1  0  0  0
 26 27  1  0  0  0
 26 49  1  0  0  0
 27 28  2  0  0  0
 27 29  1  0  0  0
 29 34  1  0  0  0
 29 30  2  0  0  0
 30 31  1  0  0  0
 30 50  1  0  0  0
 31 32  2  0  0  0
 31 51  1  0  0  0
 32 33  1  0  0  0
 32 35  1  0  0  0
 33 34  2  0  0  0
 33 52  1  0  0  0
 34 53  1  0  0  0
 35 54  1  0  0  0
 35 55  1  0  0  0
M  END
> <s_m_entry_id>
34516

> <s_m_entry_name>
ligand_docking-pose.13

> <s_m_Source_Path>
/home/csk/Desktop/cluster/DUD-E-result/cdk2

> <s_m_Source_File>
ligand_docking-pose.sdf

> <i_m_Source_File_Index>
13

> <i_lp_mmshare_version>
53161

> <r_lp_tautomer_probability>
1

> <s_lp_Force_Field>
OPLS_2005

> <r_lp_Energy>
67.883635

> <b_lp_Chiralities_Consistent>
1

> <s_lp_Variant>
310686-1

> <s_i_glide_gridfile>
glide-grid_1h00

> <i_i_glide_lignum>
1644

> <i_i_glide_rotatable_bonds>
8

> <r_i_docking_score>
-9.02376530333925

> <r_i_glide_ligand_efficiency>
-0.257821865809693

> <r_i_glide_ligand_efficiency_sa>
-0.843352418280579

> <r_i_glide_ligand_efficiency_ln>
-1.98091675576352

> <r_i_glide_gscore>
-9.02376530333925

> <r_i_glide_lipo>
-3.34335966764964

> <r_i_glide_hbond>
-0.454200354869848

> <r_i_glide_metal>
0

> <r_i_glide_rewards>
-1.76527704659319

> <r_i_glide_evdw>
-46.66357421875

> <r_i_glide_ecoul>
-11.0880298614502

> <r_i_glide_erotb>
0.643998367267771

> <r_i_glide_esite>
-0.108543411339309

> <r_i_glide_emodel>
-77.0931150557799

> <r_i_glide_energy>
-57.7516040802002

> <r_i_glide_einternal>
23.9750671386719

> <i_i_glide_confnum>
42

> <i_i_glide_posenum>
43

> <r_i_glide_eff_state_penalty>
0

> <i_f3d_flags>
0

> <s_user_duplicate_titles>
310686

> <s_m_subgroup_title>
dock_pv

> <s_m_subgroupid>
dock_pv1

> <b_m_subgroup_collapsed>
0

$$$$
303742
                    3D
 Schrodinger Suite 2021-1.
 55 59  0  0  1  0            999 V2000
    3.8090   28.6701    7.9994 C   0  0  0  0  0  0
    4.7432   27.6368    8.0609 C   0  0  0  0  0  0
    5.1507   26.9709    6.8977 C   0  0  0  0  0  0
    4.5833   27.3461    5.6768 C   0  0  0  0  0  0
    3.6579   28.3784    5.6137 C   0  0  0  0  0  0
    3.2731   29.0559    6.7674 C   0  0  0  0  0  0
    2.4580   30.1968    6.6329 N   0  0  0  0  0  0
    1.4934   30.7122    7.4902 C   0  0  0  0  0  0
    1.1574   32.0143    7.3443 N   0  0  0  0  0  0
    0.0974   32.4307    8.0812 C   0  0  0  0  0  0
   -0.6235   31.5851    8.9532 C   0  0  0  0  0  0
   -1.7439   31.9963    9.6841 C   0  0  0  0  0  0
   -2.3179   31.1072   10.5759 C   0  0  0  0  0  0
   -1.8099   29.8217   10.7779 C   0  0  0  0  0  0
   -0.7438   29.3430   10.0085 C   0  0  0  0  0  0
   -0.1318   30.2508    9.0891 C   0  0  0  0  0  0
    0.9344   29.8520    8.3570 N   0  0  0  0  0  0
   -0.1827   27.9062   10.1751 C   0  0  0  0  0  0
    0.5899   27.6233   11.4652 C   0  0  0  0  0  0
    0.4227   26.1212   11.7662 C   0  0  0  0  0  0
   -0.3842   25.5278   10.6057 C   0  0  0  0  0  0
   -1.1421   26.7172   10.0193 C   0  0  0  0  0  0
   -2.3427   29.0520   11.7757 O   0  0  0  0  0  0
    6.1340   25.9887    6.9115 N   0  0  0  0  0  0
    7.1506   25.8312    7.9609 C   0  0  0  0  0  0
    8.5059   25.4752    7.3077 C   0  0  0  0  0  0
    8.3811   24.2584    6.5769 O   0  0  0  0  0  0
    7.4002   24.3440    5.5484 C   0  0  0  0  0  0
    6.0290   24.7350    6.1453 C   0  0  0  0  0  0
    3.5344   29.1916    8.9040 H   0  0  0  0  0  0
    5.1618   27.3719    9.0175 H   0  0  0  0  0  0
    4.8901   26.8720    4.7563 H   0  0  0  0  0  0
    3.2667   28.6517    4.6514 H   0  0  0  0  0  0
    2.9422   30.9251    6.1223 H   0  0  0  0  0  0
   -0.2050   33.4593    7.9504 H   0  0  0  0  0  0
   -2.1283   33.0013    9.5763 H   0  0  0  0  0  0
   -3.1429   31.4732   11.1542 H   0  0  0  0  0  0
    0.5319   27.7255    9.3760 H   0  0  0  0  0  0
    0.1631   28.1807   12.3002 H   0  0  0  0  0  0
    1.6348   27.9268   11.3782 H   0  0  0  0  0  0
   -0.1161   25.9872   12.7059 H   0  0  0  0  0  0
    1.3882   25.6253   11.8782 H   0  0  0  0  0  0
   -1.0524   24.7274   10.9265 H   0  0  0  0  0  0
    0.2897   25.1125    9.8539 H   0  0  0  0  0  0
   -1.4853   26.5856    8.9926 H   0  0  0  0  0  0
   -2.0452   26.8762   10.6014 H   0  0  0  0  0  0
   -2.9709   29.5501   12.3226 H   0  0  0  0  0  0
    7.2578   26.7294    8.5647 H   0  0  0  0  0  0
    6.8486   25.0520    8.6593 H   0  0  0  0  0  0
    9.2704   25.3518    8.0732 H   0  0  0  0  0  0
    8.8515   26.2815    6.6564 H   0  0  0  0  0  0
    7.3291   23.3757    5.0528 H   0  0  0  0  0  0
    7.7122   25.0610    4.7862 H   0  0  0  0  0  0
    5.6470   23.9435    6.7915 H   0  0  0  0  0  0
    5.3149   24.8266    5.3275 H   0  0  0  0  0  0
  1  6  1  0  0  0
  1  2  2  0  0  0
  1 30  1  0  0  0
  2  3  1  0  0  0
  2 31  1  0  0  0
  3  4  2  0  0  0
  3 24  1  0  0  0
  4  5  1  0  0  0
  4 32  1  0  0  0
  5  6  2  0  0  0
  5 33  1  0  0  0
  6  7  1  0  0  0
  7  8  1  0  0  0
  7 34  1  0  0  0
  8 17  1  0  0  0
  8  9  2  0  0  0
  9 10  1  0  0  0
 10 11  2  0  0  0
 10 35  1  0  0  0
 11 16  1  0  0  0
 11 12  1  0  0  0
 12 13  2  0  0  0
 12 36  1  0  0  0
 13 14  1  0  0  0
 13 37  1  0  0  0
 14 15  2  0  0  0
 14 23  1  0  0  0
 15 16  1  0  0  0
 15 18  1  0  0  0
 16 17  2  0  0  0
 18 22  1  0  0  0
 18 19  1  0  0  0
 18 38  1  0  0  0
 19 20  1  0  0  0
 19 39  1  0  0  0
 19 40  1  0  0  0
 20 21  1  0  0  0
 20 41  1  0  0  0
 20 42  1  0  0  0
 21 22  1  0  0  0
 21 43  1  0  0  0
 21 44  1  0  0  0
 22 45  1  0  0  0
 22 46  1  0  0  0
 23 47  1  0  0  0
 24 29  1  0  0  0
 24 25  1  0  0  0
 25 26  1  0  0  0
 25 48  1  0  0  0
 25 49  1  0  0  0
 26 27  1  0  0  0
 26 50  1  0  0  0
 26 51  1  0  0  0
 27 28  1  0  0  0
 28 29  1  0  0  0
 28 52  1  0  0  0
 28 53  1  0  0  0
 29 54  1  0  0  0
 29 55  1  0  0  0
M  END
> <s_m_entry_id>
34521

> <s_m_entry_name>
ligand_docking-pose.18

> <s_m_Source_Path>
/home/csk/Desktop/cluster/DUD-E-result/cdk2

> <s_m_Source_File>
ligand_docking-pose.sdf

> <i_m_Source_File_Index>
18

> <i_lp_mmshare_version>
53161

> <r_lp_tautomer_probability>
1

> <s_lp_Force_Field>
OPLS_2005

> <r_lp_Energy>
46.116128

> <b_lp_Chiralities_Consistent>
1

> <s_lp_Variant>
303742-1

> <s_i_glide_gridfile>
glide-grid_1h00

> <i_i_glide_lignum>
425

> <i_i_glide_rotatable_bonds>
5

> <r_i_docking_score>
-8.96696078543221

> <r_i_glide_ligand_efficiency>
-0.309205544325248

> <r_i_glide_ligand_efficiency_sa>
-0.949977395359527

> <r_i_glide_ligand_efficiency_ln>
-2.05320663735756

> <r_i_glide_gscore>
-8.96696078543221

> <r_i_glide_lipo>
-3.64149336878493

> <r_i_glide_hbond>
-0.420986224443005

> <r_i_glide_metal>
0

> <r_i_glide_rewards>
-2.50849806191604

> <r_i_glide_evdw>
-39.3135757446289

> <r_i_glide_ecoul>
-6.27998399734497

> <r_i_glide_erotb>
0.511693256544953

> <r_i_glide_esite>
0

> <r_i_glide_emodel>
-70.4990425053441

> <r_i_glide_energy>
-45.5935597419739

> <r_i_glide_einternal>
3.27976226806641

> <i_i_glide_confnum>
126

> <i_i_glide_posenum>
393

> <r_i_glide_eff_state_penalty>
0

> <i_f3d_flags>
0

> <s_user_duplicate_titles>
303742

> <s_m_subgroup_title>
dock_pv

> <s_m_subgroupid>
dock_pv1

> <b_m_subgroup_collapsed>
0

$$$$
249154
                    3D
 Schrodinger Suite 2021-1.
 64 68  0  0  1  0            999 V2000
    5.2683   27.8854    8.7999 C   0  0  0  0  0  0
    4.8490   28.3629    7.4022 C   0  0  1  0  0  0
    4.6075   27.2671    6.3578 C   0  0  0  0  0  0
    4.6051   27.6168    5.0008 C   0  0  0  0  0  0
    4.4577   26.6396    4.0202 C   0  0  0  0  0  0
    4.2960   25.3075    4.3929 C   0  0  0  0  0  0
    4.2948   24.9450    5.7374 C   0  0  0  0  0  0
    4.4580   25.9198    6.7187 C   0  0  0  0  0  0
    3.8211   29.4052    7.3763 N   0  0  0  0  0  0
    2.5901   29.4515    8.0447 C   0  0  0  0  0  0
    1.7297   30.5266    7.7759 C   0  0  0  0  0  0
    0.5190   30.5467    8.4978 C   0  0  0  0  0  0
    0.1158   29.6207    9.3669 N   0  0  0  0  0  0
    1.0389   28.6500    9.5916 C   0  0  0  0  0  0
    2.2427   28.5206    8.9760 N   0  0  0  0  0  0
    0.7681   27.6865   10.5686 N   0  0  0  0  0  0
   -0.5512   27.5331   11.1951 C   0  0  2  0  0  0
   -0.3862   27.2459   12.7003 C   0  0  0  0  0  0
    0.2204   25.8535   12.9684 C   0  0  0  0  0  0
   -0.5655   24.7234   12.2649 C   0  0  1  0  0  0
   -0.7221   25.0055   10.7523 C   0  0  0  0  0  0
   -1.3326   26.4005   10.4934 C   0  0  0  0  0  0
   -0.0128   23.4127   12.5391 N   0  0  0  0  0  0
   -0.0541   31.7635    8.1956 N   0  0  0  0  0  0
    0.8575   32.3922    7.3756 C   0  0  0  0  0  0
    1.8502   31.6381    6.9788 N   0  0  0  0  0  0
   -1.2817   32.3454    8.7478 C   0  0  0  0  0  0
   -2.5371   31.4656    8.5350 C   0  0  0  0  0  0
   -3.2617   31.3768    9.8844 C   0  0  0  0  0  0
   -2.6576   32.4989   10.7213 C   0  0  0  0  0  0
   -1.2051   32.5394   10.2659 C   0  0  0  0  0  0
    5.7271   28.8698    7.0040 H   0  0  0  0  0  0
    6.0736   27.1515    8.7465 H   0  0  0  0  0  0
    5.6526   28.7223    9.3753 H   0  0  0  0  0  0
    4.4589   27.4379    9.3708 H   0  0  0  0  0  0
    4.7384   28.6485    4.7070 H   0  0  0  0  0  0
    4.4611   26.9079    2.9736 H   0  0  0  0  0  0
    4.1675   24.5524    3.6307 H   0  0  0  0  0  0
    4.1614   23.9097    6.0187 H   0  0  0  0  0  0
    4.4534   25.6221    7.7560 H   0  0  0  0  0  0
    3.9984   30.1726    6.7349 H   0  0  0  0  0  0
    1.4466   26.9509   10.6867 H   0  0  0  0  0  0
   -1.1315   28.4524   11.0884 H   0  0  0  0  0  0
    0.2372   28.0145   13.1605 H   0  0  0  0  0  0
   -1.3583   27.3223   13.1892 H   0  0  0  0  0  0
    0.2416   25.6881   14.0457 H   0  0  0  0  0  0
    1.2532   25.8502   12.6150 H   0  0  0  0  0  0
   -1.5722   24.7459   12.6848 H   0  0  0  0  0  0
   -1.3608   24.2519   10.2922 H   0  0  0  0  0  0
    0.2485   24.9428   10.2598 H   0  0  0  0  0  0
   -2.3564   26.4071   10.8626 H   0  0  0  0  0  0
   -1.3939   26.5888    9.4202 H   0  0  0  0  0  0
    0.0297   23.2653   13.5364 H   0  0  0  0  0  0
   -0.6203   22.6961   12.1716 H   0  0  0  0  0  0
    0.6571   33.3983    7.0370 H   0  0  0  0  0  0
   -1.4308   33.3094    8.2591 H   0  0  0  0  0  0
   -3.1883   31.8973    7.7777 H   0  0  0  0  0  0
   -2.2806   30.4652    8.1983 H   0  0  0  0  0  0
   -4.3444   31.4541    9.7904 H   0  0  0  0  0  0
   -3.0503   30.4167   10.3576 H   0  0  0  0  0  0
   -3.1433   33.4523   10.5194 H   0  0  0  0  0  0
   -2.7417   32.3095   11.7859 H   0  0  0  0  0  0
   -0.6894   31.6995   10.7359 H   0  0  0  0  0  0
   -0.7022   33.4519   10.5752 H   0  0  0  0  0  0
  1  2  1  0  0  0
  1 33  1  0  0  0
  1 34  1  0  0  0
  1 35  1  0  0  0
  2 32  1  0  0  0
  2  3  1  0  0  0
  2  9  1  0  0  0
  3  8  1  0  0  0
  3  4  2  0  0  0
  4  5  1  0  0  0
  4 36  1  0  0  0
  5  6  2  0  0  0
  5 37  1  0  0  0
  6  7  1  0  0  0
  6 38  1  0  0  0
  7  8  2  0  0  0
  7 39  1  0  0  0
  8 40  1  0  0  0
  9 10  1  0  0  0
  9 41  1  0  0  0
 10 15  1  0  0  0
 10 11  2  0  0  0
 11 26  1  0  0  0
 11 12  1  0  0  0
 12 13  2  0  0  0
 12 24  1  0  0  0
 13 14  1  0  0  0
 14 15  2  0  0  0
 14 16  1  0  0  0
 16 17  1  0  0  0
 16 42  1  0  0  0
 17 22  1  0  0  0
 17 18  1  0  0  0
 17 43  1  0  0  0
 18 19  1  0  0  0
 18 44  1  0  0  0
 18 45  1  0  0  0
 19 20  1  0  0  0
 19 46  1  0  0  0
 19 47  1  0  0  0
 20 21  1  0  0  0
 20 23  1  0  0  0
 20 48  1  0  0  0
 21 22  1  0  0  0
 21 49  1  0  0  0
 21 50  1  0  0  0
 22 51  1  0  0  0
 22 52  1  0  0  0
 23 53  1  0  0  0
 23 54  1  0  0  0
 24 25  1  0  0  0
 24 27  1  0  0  0
 25 26  2  0  0  0
 25 55  1  0  0  0
 27 31  1  0  0  0
 27 28  1  0  0  0
 27 56  1  0  0  0
 28 29  1  0  0  0
 28 57  1  0  0  0
 28 58  1  0  0  0
 29 30  1  0  0  0
 29 59  1  0  0  0
 29 60  1  0  0  0
 30 31  1  0  0  0
 30 61  1  0  0  0
 30 62  1  0  0  0
 31 63  1  0  0  0
 31 64  1  0  0  0
M  END
> <s_m_entry_id>
34523

> <s_m_entry_name>
ligand_docking-pose.20

> <s_m_Source_Path>
/home/csk/Desktop/cluster/DUD-E-result/cdk2

> <s_m_Source_File>
ligand_docking-pose.sdf

> <i_m_Source_File_Index>
20

> <i_lp_mmshare_version>
53161

> <r_lp_tautomer_probability>
1

> <s_lp_Force_Field>
OPLS_2005

> <r_lp_Energy>
46.244584

> <b_lp_Chiralities_Consistent>
1

> <s_lp_Variant>
249154-1

> <s_i_glide_gridfile>
glide-grid_1h00

> <i_i_glide_lignum>
1306

> <i_i_glide_rotatable_bonds>
6

> <r_i_docking_score>
-8.93178936490837

> <r_i_glide_ligand_efficiency>
-0.288122237577689

> <r_i_glide_ligand_efficiency_sa>
-0.905101621614233

> <r_i_glide_ligand_efficiency_ln>
-2.01439222825756

> <r_i_glide_gscore>
-8.93178936490837

> <r_i_glide_lipo>
-3.34774546732701

> <r_i_glide_hbond>
-0.488522285070153

> <r_i_glide_metal>
0

> <r_i_glide_rewards>
-2.713137507166

> <r_i_glide_evdw>
-41.8365898132324

> <r_i_glide_ecoul>
-5.08393573760986

> <r_i_glide_erotb>
0.472035745957892

> <r_i_glide_esite>
0

> <r_i_glide_emodel>
-62.7079336030715

> <r_i_glide_energy>
-46.9205255508423

> <r_i_glide_einternal>
6.98990678787231

> <i_i_glide_confnum>
59

> <i_i_glide_posenum>
252

> <r_i_glide_eff_state_penalty>
0

> <i_f3d_flags>
0

> <s_user_duplicate_titles>
249154

> <s_m_subgroup_title>
dock_pv

> <s_m_subgroupid>
dock_pv1

> <b_m_subgroup_collapsed>
0

$$$$
310632
                    3D
 Schrodinger Suite 2021-1.
 55 59  0  0  1  0            999 V2000
    7.0589   25.3538    5.7137 C   0  0  0  0  0  0
    6.2745   25.5033    6.8927 O   0  0  0  0  0  0
    5.3812   26.5538    6.9731 C   0  0  0  0  0  0
    4.6976   26.7014    8.1760 C   0  0  0  0  0  0
    3.8105   27.7524    8.3801 C   0  0  0  0  0  0
    3.5564   28.6520    7.3464 C   0  0  0  0  0  0
    4.2258   28.5034    6.1254 C   0  0  0  0  0  0
    5.1308   27.4629    5.9387 C   0  0  0  0  0  0
    2.5146   29.7049    7.5115 C   0  0  0  0  0  0
    1.3929   29.8520    8.3115 C   0  0  0  0  0  0
    0.8189   31.0523    7.9304 C   0  0  0  0  0  0
    1.4705   31.6661    6.9799 N   0  0  0  0  0  0
    2.4580   30.8181    6.7280 N   0  0  0  0  0  0
   -0.3850   31.2976    8.6907 C   0  0  0  0  0  0
   -1.2727   32.3642    8.7081 C   0  0  0  0  0  0
   -2.4302   32.2514    9.4634 C   0  0  0  0  0  0
   -2.7011   31.0925   10.1779 C   0  0  0  0  0  0
   -1.7522   30.0729   10.2581 C   0  0  0  0  0  0
   -0.5720   30.1740    9.4991 C   0  0  0  0  0  0
    0.5741   29.2272    9.3328 C   0  0  0  0  0  0
    0.7497   28.1382    9.8764 O   0  0  0  0  0  0
   -2.0932   28.9903   11.0679 N   0  0  0  0  0  0
   -1.3491   28.5401   12.0892 C   0  0  0  0  0  0
   -0.3418   29.1129   12.5210 O   0  0  0  0  0  0
   -1.8575   27.3930   12.5752 N   0  0  0  0  0  0
   -1.5420   27.1206   13.8903 N   0  0  0  0  0  0
   -0.8117   26.0516   14.2484 C   0  0  0  0  0  0
   -0.3420   26.0216   15.3760 O   0  0  0  0  0  0
   -0.7232   24.8149   13.3899 C   0  0  0  0  0  0
   -0.1581   24.8631   12.1121 C   0  0  0  0  0  0
    0.0029   23.6921   11.3758 C   0  0  0  0  0  0
   -0.4085   22.4590   11.8895 C   0  0  0  0  0  0
   -0.9792   22.3989   13.1695 C   0  0  0  0  0  0
   -1.1181   23.5743   13.9126 C   0  0  0  0  0  0
   -1.4075   21.2160   13.7302 O   0  0  0  0  0  0
   -0.2488   21.3354   11.1145 O   0  0  0  0  0  0
    3.2010   31.0523    6.0773 H   0  0  0  0  0  0
    7.7292   24.5028    5.8327 H   0  0  0  0  0  0
    6.4352   25.1626    4.8390 H   0  0  0  0  0  0
    7.6754   26.2355    5.5285 H   0  0  0  0  0  0
    4.8590   25.9940    8.9733 H   0  0  0  0  0  0
    3.3027   27.8374    9.3299 H   0  0  0  0  0  0
    4.0441   29.1848    5.3075 H   0  0  0  0  0  0
    5.6378   27.3872    4.9890 H   0  0  0  0  0  0
   -1.0899   33.2565    8.1279 H   0  0  0  0  0  0
   -3.1419   33.0519    9.4907 H   0  0  0  0  0  0
   -3.6238   31.0303   10.7348 H   0  0  0  0  0  0
   -3.0845   28.8476   11.1847 H   0  0  0  0  0  0
   -2.7826   27.0700   12.3334 H   0  0  0  0  0  0
   -2.1736   27.5828   14.5310 H   0  0  0  0  0  0
    0.1943   25.7975   11.6943 H   0  0  0  0  0  0
    0.4599   23.7590   10.3999 H   0  0  0  0  0  0
   -1.5371   23.5134   14.9068 H   0  0  0  0  0  0
   -1.5406   20.4648   13.1385 H   0  0  0  0  0  0
   -0.3926   20.4991   11.5684 H   0  0  0  0  0  0
  1  2  1  0  0  0
  1 38  1  0  0  0
  1 39  1  0  0  0
  1 40  1  0  0  0
  2  3  1  0  0  0
  3  8  1  0  0  0
  3  4  2  0  0  0
  4  5  1  0  0  0
  4 41  1  0  0  0
  5  6  2  0  0  0
  5 42  1  0  0  0
  6  7  1  0  0  0
  6  9  1  0  0  0
  7  8  2  0  0  0
  7 43  1  0  0  0
  8 44  1  0  0  0
  9 13  1  0  0  0
  9 10  2  0  0  0
 10 20  1  0  0  0
 10 11  1  0  0  0
 11 12  2  0  0  0
 11 14  1  0  0  0
 12 13  1  0  0  0
 13 37  1  0  0  0
 14 19  2  0  0  0
 14 15  1  0  0  0
 15 16  2  0  0  0
 15 45  1  0  0  0
 16 17  1  0  0  0
 16 46  1  0  0  0
 17 18  2  0  0  0
 17 47  1  0  0  0
 18 19  1  0  0  0
 18 22  1  0  0  0
 19 20  1  0  0  0
 20 21  2  0  0  0
 22 23  1  0  0  0
 22 48  1  0  0  0
 23 24  2  0  0  0
 23 25  1  0  0  0
 25 26  1  0  0  0
 25 49  1  0  0  0
 26 27  1  0  0  0
 26 50  1  0  0  0
 27 28  2  0  0  0
 27 29  1  0  0  0
 29 34  1  0  0  0
 29 30  2  0  0  0
 30 31  1  0  0  0
 30 51  1  0  0  0
 31 32  2  0  0  0
 31 52  1  0  0  0
 32 33  1  0  0  0
 32 36  1  0  0  0
 33 34  2  0  0  0
 33 35  1  0  0  0
 34 53  1  0  0  0
 35 54  1  0  0  0
 36 55  1  0  0  0
M  END
> <s_m_entry_id>
34526

> <s_m_entry_name>
ligand_docking-pose.23

> <s_m_Source_Path>
/home/csk/Desktop/cluster/DUD-E-result/cdk2

> <s_m_Source_File>
ligand_docking-pose.sdf

> <i_m_Source_File_Index>
23

> <i_lp_mmshare_version>
53161

> <r_lp_tautomer_probability>
0.999999999999776

> <s_lp_Force_Field>
OPLS_2005

> <r_lp_Energy>
66.353274

> <b_lp_Chiralities_Consistent>
1

> <s_lp_Variant>
310632-1

> <s_i_glide_gridfile>
glide-grid_1h00

> <i_i_glide_lignum>
1654

> <i_i_glide_rotatable_bonds>
10

> <r_i_docking_score>
-8.86853417503158

> <r_i_glide_ligand_efficiency>
-0.246348171528655

> <r_i_glide_ligand_efficiency_sa>
-0.813423739314193

> <r_i_glide_ligand_efficiency_ln>
-1.93487455688768

> <r_i_glide_gscore>
-8.86853417503158

> <r_i_glide_lipo>
-3.20255035147627

> <r_i_glide_hbond>
-0.294162264150098

> <r_i_glide_metal>
0

> <r_i_glide_rewards>
-1.31942387855902

> <r_i_glide_evdw>
-42.9820518493652

> <r_i_glide_ecoul>
-16.1788139343262

> <r_i_glide_erotb>
0.603438000988126

> <r_i_glide_esite>
-0.079910999217129

> <r_i_glide_emodel>
-83.3383230722914

> <r_i_glide_energy>
-59.1608657836914

> <r_i_glide_einternal>
19.094669342041

> <i_i_glide_confnum>
24

> <i_i_glide_posenum>
70

> <r_i_glide_eff_state_penalty>
0

> <i_f3d_flags>
0

> <s_user_duplicate_titles>
310632

> <s_m_subgroup_title>
dock_pv

> <s_m_subgroupid>
dock_pv1

> <b_m_subgroup_collapsed>
0

$$$$
321254
                    3D
 Schrodinger Suite 2021-1.
 33 35  0  0  1  0            999 V2000
    4.4301   25.6798    4.2543 C   0  0  0  0  0  0
    4.4569   27.0475    3.9954 C   0  0  0  0  0  0
    4.5061   27.9493    5.0546 C   0  0  0  0  0  0
    4.5382   27.4861    6.3735 C   0  0  0  0  0  0
    4.5191   26.1075    6.6252 C   0  0  0  0  0  0
    4.4578   25.2056    5.5650 C   0  0  0  0  0  0
    4.6308   28.4871    7.5283 C   0  0  1  0  0  0
    3.2580   29.0518    7.9519 C   0  0  0  0  0  0
    2.6901   28.6316    8.9638 O   0  0  0  0  0  0
    2.7738   30.0361    7.1672 N   0  0  0  0  0  0
    1.6657   30.8166    7.4271 C   0  0  0  0  0  0
    0.5112   30.5288    8.1762 C   0  0  0  0  0  0
   -0.2030   31.7138    8.2757 C   0  0  0  0  0  0
    0.5661   32.6034    7.5634 N   0  0  0  0  0  0
    1.6438   32.0532    6.9869 N   0  0  0  0  0  0
   -1.5033   32.1031    8.9585 C   0  0  0  0  0  0
   -2.5766   31.0654    9.2028 C   0  0  0  0  0  0
   -1.8140   31.6594   10.3645 C   0  0  0  0  0  0
    5.2532   27.9421    8.5760 F   0  0  0  0  0  0
    0.3298   33.5802    7.4175 H   0  0  0  0  0  0
    4.3853   24.9833    3.4278 H   0  0  0  0  0  0
    4.4362   27.4025    2.9761 H   0  0  0  0  0  0
    4.5366   29.0105    4.8518 H   0  0  0  0  0  0
    4.5421   25.7332    7.6394 H   0  0  0  0  0  0
    4.4370   24.1430    5.7558 H   0  0  0  0  0  0
    5.2800   29.3139    7.2319 H   0  0  0  0  0  0
    3.4256   30.4413    6.5039 H   0  0  0  0  0  0
    0.2620   29.5868    8.6412 H   0  0  0  0  0  0
   -1.8565   33.0974    8.6884 H   0  0  0  0  0  0
   -3.6179   31.3501    9.0560 H   0  0  0  0  0  0
   -2.3933   30.0164    8.9762 H   0  0  0  0  0  0
   -1.0855   31.0432   10.8958 H   0  0  0  0  0  0
   -2.3402   32.3464   11.0303 H   0  0  0  0  0  0
  1  6  1  0  0  0
  1  2  2  0  0  0
  1 21  1  0  0  0
  2  3  1  0  0  0
  2 22  1  0  0  0
  3  4  2  0  0  0
  3 23  1  0  0  0
  4  5  1  0  0  0
  4  7  1  0  0  0
  5  6  2  0  0  0
  5 24  1  0  0  0
  6 25  1  0  0  0
  7  8  1  0  0  0
  7 19  1  0  0  0
  7 26  1  0  0  0
  8  9  2  0  0  0
  8 10  1  0  0  0
 10 11  1  0  0  0
 10 27  1  0  0  0
 11 15  2  0  0  0
 11 12  1  0  0  0
 12 13  2  0  0  0
 12 28  1  0  0  0
 13 14  1  0  0  0
 13 16  1  0  0  0
 14 20  1  0  0  0
 14 15  1  0  0  0
 16 18  1  0  0  0
 16 17  1  0  0  0
 16 29  1  0  0  0
 17 18  1  0  0  0
 17 30  1  0  0  0
 17 31  1  0  0  0
 18 32  1  0  0  0
 18 33  1  0  0  0
M  END
> <s_m_entry_id>
34529

> <s_m_entry_name>
ligand_docking-pose.26

> <s_m_Source_Path>
/home/csk/Desktop/cluster/DUD-E-result/cdk2

> <s_m_Source_File>
ligand_docking-pose.sdf

> <i_m_Source_File_Index>
26

> <i_lp_mmshare_version>
53161

> <r_lp_tautomer_probability>
0.5

> <s_lp_Force_Field>
OPLS_2005

> <r_lp_Energy>
14.605223

> <b_lp_Chiralities_Consistent>
1

> <s_lp_Variant>
321254-1

> <s_i_glide_gridfile>
glide-grid_1h00

> <i_i_glide_lignum>
264

> <i_i_glide_rotatable_bonds>
5

> <r_i_docking_score>
-8.84380503518081

> <r_i_glide_ligand_efficiency>
-0.465463422904253

> <r_i_glide_ligand_efficiency_sa>
-1.24204336387843

> <r_i_glide_ligand_efficiency_ln>
-2.24209452393398

> <r_i_glide_gscore>
-8.84380503518081

> <r_i_glide_lipo>
-2.68221956759537

> <r_i_glide_hbond>
-0.851615789066965

> <r_i_glide_metal>
0

> <r_i_glide_rewards>
-3.32320149077913

> <r_i_glide_evdw>
-31.4546508789062

> <r_i_glide_ecoul>
-7.66970157623291

> <r_i_glide_erotb>
0.736419592640904

> <r_i_glide_esite>
0

> <r_i_glide_emodel>
-56.6777488313329

> <r_i_glide_energy>
-39.1243524551392

> <r_i_glide_einternal>
4.80099153518677

> <i_i_glide_confnum>
3

> <i_i_glide_posenum>
186

> <r_i_glide_eff_state_penalty>
0

> <i_f3d_flags>
0

> <s_user_duplicate_titles>
321254

> <s_m_subgroup_title>
dock_pv

> <s_m_subgroupid>
dock_pv1

> <b_m_subgroup_collapsed>
0

$$$$
124031
                    3D
 Schrodinger Suite 2021-1.
 57 59  0  0  1  0            999 V2000
   -3.1110   30.3562    9.3968 C   0  0  0  0  0  0
   -1.9646   31.1959    9.9661 C   0  0  0  0  0  0
   -2.3297   32.6885   10.0275 C   0  0  0  0  0  0
   -0.7429   30.9516    9.1888 N   0  0  0  0  0  0
   -0.1980   31.7273    8.1780 C   0  0  0  0  0  0
    0.9418   31.2915    7.7093 N   0  0  0  0  0  0
    1.1991   30.1745    8.4600 C   0  0  0  0  0  0
    0.1298   29.8857    9.3320 C   0  0  0  0  0  0
    0.0658   28.8408   10.1605 N   0  0  0  0  0  0
    1.1701   28.0340   10.1376 C   0  0  0  0  0  0
    2.2822   28.2521    9.3762 N   0  0  0  0  0  0
    2.3103   29.3238    8.5401 C   0  0  0  0  0  0
    3.4538   29.5992    7.7761 N   0  0  0  0  0  0
    4.7049   28.8604    7.9150 C   0  0  0  0  0  0
    4.6809   27.5712    7.1090 C   0  0  0  0  0  0
    4.8833   26.3584    7.7621 C   0  0  0  0  0  0
    4.8185   25.1663    7.0487 C   0  0  0  0  0  0
    4.5686   25.1718    5.6774 C   0  0  0  0  0  0
    4.4096   26.4004    5.0135 C   0  0  0  0  0  0
    4.4617   27.5944    5.7288 C   0  0  0  0  0  0
    4.4891   23.9354    5.0669 O   0  0  0  0  0  0
    4.2445   23.8673    3.6663 C   0  0  0  0  0  0
    1.1670   26.8892   10.9756 N   0  0  0  0  0  0
    2.3679   26.0542   11.0937 C   0  0  0  0  0  0
    2.6244   25.0048    9.9942 C   0  0  0  0  0  0
    1.6155   24.0494    9.7760 O   0  0  0  0  0  0
    0.0607   26.6320   11.9005 C   0  0  0  0  0  0
   -1.1081   25.8440   11.3009 C   0  0  0  0  0  0
   -1.9420   25.2962   12.2951 O   0  0  0  0  0  0
   -4.0055   30.4561   10.0101 H   0  0  0  0  0  0
   -2.8350   29.3044    9.3921 H   0  0  0  0  0  0
   -3.3643   30.6537    8.3766 H   0  0  0  0  0  0
   -1.7631   30.8662   10.9881 H   0  0  0  0  0  0
   -3.1694   32.8584   10.7017 H   0  0  0  0  0  0
   -1.4976   33.2957   10.3849 H   0  0  0  0  0  0
   -2.6235   33.0518    9.0451 H   0  0  0  0  0  0
   -0.6901   32.6339    7.8582 H   0  0  0  0  0  0
    3.4751   30.4528    7.2320 H   0  0  0  0  0  0
    5.5279   29.4808    7.5615 H   0  0  0  0  0  0
    4.9050   28.6550    8.9684 H   0  0  0  0  0  0
    5.0604   26.3438    8.8244 H   0  0  0  0  0  0
    4.9494   24.2254    7.5636 H   0  0  0  0  0  0
    4.2246   26.4430    3.9503 H   0  0  0  0  0  0
    4.3177   28.5375    5.2187 H   0  0  0  0  0  0
    4.1990   22.8243    3.3578 H   0  0  0  0  0  0
    3.2944   24.3295    3.3886 H   0  0  0  0  0  0
    5.0492   24.3417    3.1019 H   0  0  0  0  0  0
    3.2581   26.6473   11.2833 H   0  0  0  0  0  0
    2.3496   25.5074   12.0370 H   0  0  0  0  0  0
    2.4476   25.5802    9.0847 H   0  0  0  0  0  0
    3.6594   24.7597    9.7753 H   0  0  0  0  0  0
    1.5973   23.8496    8.8258 H   0  0  0  0  0  0
    0.4123   26.1239   12.7990 H   0  0  0  0  0  0
   -0.3277   27.5417   12.3636 H   0  0  0  0  0  0
   -1.5587   26.3244   10.4316 H   0  0  0  0  0  0
   -0.6774   25.0021   10.7586 H   0  0  0  0  0  0
   -2.7851   25.0498   11.8939 H   0  0  0  0  0  0
  1  2  1  0  0  0
  1 30  1  0  0  0
  1 31  1  0  0  0
  1 32  1  0  0  0
  2  3  1  0  0  0
  2  4  1  0  0  0
  2 33  1  0  0  0
  3 34  1  0  0  0
  3 35  1  0  0  0
  3 36  1  0  0  0
  4  8  1  0  0  0
  4  5  1  0  0  0
  5  6  2  0  0  0
  5 37  1  0  0  0
  6  7  1  0  0  0
  7 12  2  0  0  0
  7  8  1  0  0  0
  8  9  2  0  0  0
  9 10  1  0  0  0
 10 11  2  0  0  0
 10 23  1  0  0  0
 11 12  1  0  0  0
 12 13  1  0  0  0
 13 14  1  0  0  0
 13 38  1  0  0  0
 14 15  1  0  0  0
 14 39  1  0  0  0
 14 40  1  0  0  0
 15 20  1  0  0  0
 15 16  2  0  0  0
 16 17  1  0  0  0
 16 41  1  0  0  0
 17 18  2  0  0  0
 17 42  1  0  0  0
 18 19  1  0  0  0
 18 21  1  0  0  0
 19 20  2  0  0  0
 19 43  1  0  0  0
 20 44  1  0  0  0
 21 22  1  0  0  0
 22 45  1  0  0  0
 22 46  1  0  0  0
 22 47  1  0  0  0
 23 24  1  0  0  0
 23 27  1  0  0  0
 24 25  1  0  0  0
 24 48  1  0  0  0
 24 49  1  0  0  0
 25 26  1  0  0  0
 25 50  1  0  0  0
 25 51  1  0  0  0
 26 52  1  0  0  0
 27 28  1  0  0  0
 27 53  1  0  0  0
 27 54  1  0  0  0
 28 29  1  0  0  0
 28 55  1  0  0  0
 28 56  1  0  0  0
 29 57  1  0  0  0
M  END
> <s_m_entry_id>
34530

> <s_m_entry_name>
ligand_docking-pose.27

> <s_m_Source_Path>
/home/csk/Desktop/cluster/DUD-E-result/cdk2

> <s_m_Source_File>
ligand_docking-pose.sdf

> <i_m_Source_File_Index>
27

> <i_lp_mmshare_version>
53161

> <r_lp_tautomer_probability>
0.999997216410988

> <s_lp_Force_Field>
OPLS_2005

> <r_lp_Energy>
26.257992

> <b_lp_Chiralities_Consistent>
1

> <s_lp_Variant>
124031-1

> <s_i_glide_gridfile>
glide-grid_1h00

> <i_i_glide_lignum>
1257

> <i_i_glide_rotatable_bonds>
12

> <r_i_docking_score>
-8.82985125037557

> <r_i_glide_ligand_efficiency>
-0.304477629323295

> <r_i_glide_ligand_efficiency_sa>
-0.935451742564918

> <r_i_glide_ligand_efficiency_ln>
-2.02181203062741

> <r_i_glide_gscore>
-8.82985125037557

> <r_i_glide_lipo>
-2.55943859407038

> <r_i_glide_hbond>
-0.819781588313079

> <r_i_glide_metal>
0

> <r_i_glide_rewards>
-2.63418168387113

> <r_i_glide_evdw>
-41.8441925048828

> <r_i_glide_ecoul>
-11.186429977417

> <r_i_glide_erotb>
0.977909847962078

> <r_i_glide_esite>
-0.0241851102263721

> <r_i_glide_emodel>
-78.7616782170345

> <r_i_glide_energy>
-53.0306224822998

> <r_i_glide_einternal>
7.21258306503296

> <i_i_glide_confnum>
316

> <i_i_glide_posenum>
354

> <r_i_glide_eff_state_penalty>
0

> <i_f3d_flags>
0

> <s_user_duplicate_titles>
124031

> <s_m_subgroup_title>
dock_pv

> <s_m_subgroupid>
dock_pv1

> <b_m_subgroup_collapsed>
0

$$$$
78067
                    3D
 Schrodinger Suite 2021-1.
 52 54  0  0  1  0            999 V2000
   -1.4112   25.3009   10.1753 C   0  0  0  0  0  0
   -0.9863   25.7208   11.5883 C   0  0  0  0  0  0
   -0.5840   27.2079   11.7000 C   0  0  1  0  0  0
   -0.3788   27.6500   13.1653 C   0  0  0  0  0  0
   -1.5420   27.4518   13.9495 O   0  0  0  0  0  0
    0.6330   27.4567   10.9225 N   0  0  0  0  0  0
    0.7829   28.4827    9.9871 C   0  0  0  0  0  0
    1.9843   28.4805    9.3593 N   0  0  0  0  0  0
    2.2290   29.4521    8.4367 C   0  0  0  0  0  0
    1.2559   30.4326    8.1769 C   0  0  0  0  0  0
    0.0579   30.3376    8.9295 C   0  0  0  0  0  0
   -0.2307   29.3732    9.8075 N   0  0  0  0  0  0
   -0.6569   31.4804    8.6080 N   0  0  0  0  0  0
    0.1850   32.1935    7.7760 C   0  0  0  0  0  0
    1.2584   31.5531    7.3857 N   0  0  0  0  0  0
   -1.9680   31.9362    9.0950 C   0  0  0  0  0  0
   -1.8942   32.3141   10.5759 C   0  0  0  0  0  0
   -3.0636   30.8873    8.8343 C   0  0  0  0  0  0
    3.4731   29.5269    7.7913 N   0  0  0  0  0  0
    4.5732   28.5995    8.0430 C   0  0  0  0  0  0
    4.5720   27.4434    7.0511 C   0  0  0  0  0  0
    4.7491   26.1376    7.5175 C   0  0  0  0  0  0
    4.7698   25.0743    6.6179 C   0  0  0  0  0  0
    4.6365   25.3209    5.2527 C   0  0  0  0  0  0
    4.4895   26.6216    4.7768 C   0  0  0  0  0  0
    4.4579   27.6848    5.6763 C   0  0  0  0  0  0
   -1.6799   24.2520   10.1754 H   0  0  0  0  0  0
   -2.2865   25.8518    9.8375 H   0  0  0  0  0  0
   -0.6141   25.4443    9.4452 H   0  0  0  0  0  0
   -0.1645   25.0880   11.9274 H   0  0  0  0  0  0
   -1.8164   25.5070   12.2633 H   0  0  0  0  0  0
   -1.4020   27.8055   11.2939 H   0  0  0  0  0  0
    0.4349   27.0866   13.6238 H   0  0  0  0  0  0
   -0.1183   28.7087   13.2112 H   0  0  0  0  0  0
   -2.1944   28.1455   13.7749 H   0  0  0  0  0  0
    1.4252   26.8465   11.0544 H   0  0  0  0  0  0
   -0.1175   33.1673    7.4155 H   0  0  0  0  0  0
   -2.2266   32.8387    8.5427 H   0  0  0  0  0  0
   -2.8349   32.7466   10.9199 H   0  0  0  0  0  0
   -1.1103   33.0523   10.7491 H   0  0  0  0  0  0
   -1.7007   31.4329   11.1885 H   0  0  0  0  0  0
   -4.0379   31.2551    9.1562 H   0  0  0  0  0  0
   -3.1425   30.6521    7.7761 H   0  0  0  0  0  0
   -2.8791   29.9583    9.3755 H   0  0  0  0  0  0
    3.6446   30.3035    7.1628 H   0  0  0  0  0  0
    5.5141   29.1409    7.9422 H   0  0  0  0  0  0
    4.5352   28.2239    9.0668 H   0  0  0  0  0  0
    4.8571   25.9445    8.5757 H   0  0  0  0  0  0
    4.8892   24.0627    6.9761 H   0  0  0  0  0  0
    4.6539   24.4980    4.5524 H   0  0  0  0  0  0
    4.3992   26.8010    3.7151 H   0  0  0  0  0  0
    4.3507   28.6945    5.3058 H   0  0  0  0  0  0
  1  2  1  0  0  0
  1 27  1  0  0  0
  1 28  1  0  0  0
  1 29  1  0  0  0
  2  3  1  0  0  0
  2 30  1  0  0  0
  2 31  1  0  0  0
  3  4  1  0  0  0
  3  6  1  0  0  0
  3 32  1  0  0  0
  4  5  1  0  0  0
  4 33  1  0  0  0
  4 34  1  0  0  0
  5 35  1  0  0  0
  6  7  1  0  0  0
  6 36  1  0  0  0
  7 12  1  0  0  0
  7  8  2  0  0  0
  8  9  1  0  0  0
  9 10  2  0  0  0
  9 19  1  0  0  0
 10 15  1  0  0  0
 10 11  1  0  0  0
 11 12  2  0  0  0
 11 13  1  0  0  0
 13 14  1  0  0  0
 13 16  1  0  0  0
 14 15  2  0  0  0
 14 37  1  0  0  0
 16 17  1  0  0  0
 16 18  1  0  0  0
 16 38  1  0  0  0
 17 39  1  0  0  0
 17 40  1  0  0  0
 17 41  1  0  0  0
 18 42  1  0  0  0
 18 43  1  0  0  0
 18 44  1  0  0  0
 19 20  1  0  0  0
 19 45  1  0  0  0
 20 21  1  0  0  0
 20 46  1  0  0  0
 20 47  1  0  0  0
 21 26  1  0  0  0
 21 22  2  0  0  0
 22 23  1  0  0  0
 22 48  1  0  0  0
 23 24  2  0  0  0
 23 49  1  0  0  0
 24 25  1  0  0  0
 24 50  1  0  0  0
 25 26  2  0  0  0
 25 51  1  0  0  0
 26 52  1  0  0  0
M  END
> <s_m_entry_id>
34532

> <s_m_entry_name>
ligand_docking-pose.29

> <s_m_Source_Path>
/home/csk/Desktop/cluster/DUD-E-result/cdk2

> <s_m_Source_File>
ligand_docking-pose.sdf

> <i_m_Source_File_Index>
29

> <i_lp_mmshare_version>
53161

> <r_lp_tautomer_probability>
1

> <s_lp_Force_Field>
OPLS_2005

> <r_lp_Energy>
21.418751

> <b_lp_Chiralities_Consistent>
1

> <s_lp_Variant>
78067-2

> <s_i_glide_gridfile>
glide-grid_1h00

> <i_i_glide_lignum>
1234

> <i_i_glide_rotatable_bonds>
9

> <r_i_docking_score>
-8.78010323654292

> <r_i_glide_ligand_efficiency>
-0.337696278328574

> <r_i_glide_ligand_efficiency_sa>
-1.00042389577771

> <r_i_glide_ligand_efficiency_ln>
-2.06197843523355

> <r_i_glide_gscore>
-8.78010323654292

> <r_i_glide_lipo>
-3.11179254553246

> <r_i_glide_hbond>
-0.449900438572487

> <r_i_glide_metal>
0

> <r_i_glide_rewards>
-3.25775271299548

> <r_i_glide_evdw>
-39.5036964416504

> <r_i_glide_ecoul>
-5.98711252212524

> <r_i_glide_erotb>
0.912594160958804

> <r_i_glide_esite>
0

> <r_i_glide_emodel>
-69.6532215477418

> <r_i_glide_energy>
-45.4908089637756

> <r_i_glide_einternal>
5.24255275726318

> <i_i_glide_confnum>
17

> <i_i_glide_posenum>
87

> <r_i_glide_eff_state_penalty>
0

> <i_f3d_flags>
0

> <s_user_duplicate_titles>
78067

> <s_m_subgroup_title>
dock_pv

> <s_m_subgroupid>
dock_pv1

> <b_m_subgroup_collapsed>
0

$$$$
248407
                    3D
 Schrodinger Suite 2021-1.
 51 55  0  0  1  0            999 V2000
    7.0322   25.3641    5.7204 C   0  0  0  0  0  0
    6.2559   25.5290    6.9030 O   0  0  0  0  0  0
    5.3510   26.5699    6.9711 C   0  0  0  0  0  0
    4.6744   26.7294    8.1760 C   0  0  0  0  0  0
    3.7723   27.7703    8.3687 C   0  0  0  0  0  0
    3.5037   28.6510    7.3226 C   0  0  0  0  0  0
    4.1649   28.4889    6.0990 C   0  0  0  0  0  0
    5.0790   27.4548    5.9219 C   0  0  0  0  0  0
    2.4584   29.6924    7.4796 C   0  0  0  0  0  0
    1.3280   29.8522    8.2712 C   0  0  0  0  0  0
    0.8070   31.0841    7.9129 C   0  0  0  0  0  0
    1.4839   31.6885    6.9761 N   0  0  0  0  0  0
    2.4540   30.8221    6.7224 N   0  0  0  0  0  0
   -0.3420   31.4167    8.7250 C   0  0  0  0  0  0
   -1.1233   32.5629    8.7811 C   0  0  0  0  0  0
   -2.1368   32.6335    9.7222 C   0  0  0  0  0  0
   -2.3663   31.5625   10.5755 C   0  0  0  0  0  0
   -1.5647   30.4154   10.5525 C   0  0  0  0  0  0
   -0.5307   30.3387    9.5949 C   0  0  0  0  0  0
    0.4797   29.2694    9.2910 C   0  0  0  0  0  0
    0.5760   28.1462    9.7766 O   0  0  0  0  0  0
   -1.8759   29.4446   11.5189 N   0  0  0  0  0  0
   -0.9920   28.8295   12.3244 C   0  0  0  0  0  0
    0.1877   29.1529   12.4338 O   0  0  0  0  0  0
   -1.5420   27.8103   12.9990 N   0  0  0  0  0  0
   -0.8026   26.7644   13.7133 C   0  0  0  0  0  0
   -0.4805   25.5421   12.8642 C   0  0  0  0  0  0
   -1.1168   24.3177   13.1009 C   0  0  0  0  0  0
   -0.7408   23.2069   12.3426 C   0  0  0  0  0  0
    0.2115   23.2621   11.3762 N   0  0  0  0  0  0
    0.8226   24.4543   11.1578 C   0  0  0  0  0  0
    0.5181   25.6050   11.8852 C   0  0  0  0  0  0
    3.2184   31.0517    6.0946 H   0  0  0  0  0  0
    7.7203   24.5301    5.8562 H   0  0  0  0  0  0
    6.4055   25.1383    4.8569 H   0  0  0  0  0  0
    7.6306   26.2513    5.5078 H   0  0  0  0  0  0
    4.8571   26.0320    8.9759 H   0  0  0  0  0  0
    3.2643   27.8625    9.3189 H   0  0  0  0  0  0
    3.9710   29.1541    5.2725 H   0  0  0  0  0  0
    5.5799   27.3689    4.9710 H   0  0  0  0  0  0
   -0.9327   33.4022    8.1271 H   0  0  0  0  0  0
   -2.7380   33.5214    9.8057 H   0  0  0  0  0  0
   -3.1420   31.6853   11.3089 H   0  0  0  0  0  0
   -2.8038   29.5231   11.9108 H   0  0  0  0  0  0
   -2.5508   27.7598   13.0410 H   0  0  0  0  0  0
   -1.3777   26.4707   14.5916 H   0  0  0  0  0  0
    0.1467   27.1476   14.0910 H   0  0  0  0  0  0
   -1.8808   24.2246   13.8587 H   0  0  0  0  0  0
   -1.1999   22.2429   12.5088 H   0  0  0  0  0  0
    1.5781   24.4790   10.3858 H   0  0  0  0  0  0
    1.0489   26.5289   11.7005 H   0  0  0  0  0  0
  1  2  1  0  0  0
  1 34  1  0  0  0
  1 35  1  0  0  0
  1 36  1  0  0  0
  2  3  1  0  0  0
  3  8  1  0  0  0
  3  4  2  0  0  0
  4  5  1  0  0  0
  4 37  1  0  0  0
  5  6  2  0  0  0
  5 38  1  0  0  0
  6  7  1  0  0  0
  6  9  1  0  0  0
  7  8  2  0  0  0
  7 39  1  0  0  0
  8 40  1  0  0  0
  9 13  1  0  0  0
  9 10  2  0  0  0
 10 20  1  0  0  0
 10 11  1  0  0  0
 11 12  2  0  0  0
 11 14  1  0  0  0
 12 13  1  0  0  0
 13 33  1  0  0  0
 14 19  2  0  0  0
 14 15  1  0  0  0
 15 16  2  0  0  0
 15 41  1  0  0  0
 16 17  1  0  0  0
 16 42  1  0  0  0
 17 18  2  0  0  0
 17 43  1  0  0  0
 18 19  1  0  0  0
 18 22  1  0  0  0
 19 20  1  0  0  0
 20 21  2  0  0  0
 22 23  1  0  0  0
 22 44  1  0  0  0
 23 24  2  0  0  0
 23 25  1  0  0  0
 25 26  1  0  0  0
 25 45  1  0  0  0
 26 27  1  0  0  0
 26 46  1  0  0  0
 26 47  1  0  0  0
 27 32  1  0  0  0
 27 28  2  0  0  0
 28 29  1  0  0  0
 28 48  1  0  0  0
 29 30  2  0  0  0
 29 49  1  0  0  0
 30 31  1  0  0  0
 31 32  2  0  0  0
 31 50  1  0  0  0
 32 51  1  0  0  0
M  END
> <s_m_entry_id>
34534

> <s_m_entry_name>
ligand_docking-pose.31

> <s_m_Source_Path>
/home/csk/Desktop/cluster/DUD-E-result/cdk2

> <s_m_Source_File>
ligand_docking-pose.sdf

> <i_m_Source_File_Index>
31

> <i_lp_mmshare_version>
53161

> <r_lp_tautomer_probability>
1

> <s_lp_Force_Field>
OPLS_2005

> <r_lp_Energy>
58.527751

> <b_lp_Chiralities_Consistent>
1

> <s_lp_Variant>
248407-1

> <s_i_glide_gridfile>
glide-grid_1h00

> <i_i_glide_lignum>
1636

> <i_i_glide_rotatable_bonds>
7

> <r_i_docking_score>
-8.73749979019996

> <r_i_glide_ligand_efficiency>
-0.273046868443749

> <r_i_glide_ligand_efficiency_sa>
-0.866869771407012

> <r_i_glide_ligand_efficiency_ln>
-1.95656437827461

> <r_i_glide_gscore>
-8.73749979019996

> <r_i_glide_lipo>
-3.21769363602124

> <r_i_glide_hbond>
-0.41913858895805

> <r_i_glide_metal>
0

> <r_i_glide_rewards>
-1.98964396919748

> <r_i_glide_evdw>
-38.8956756591797

> <r_i_glide_ecoul>
-10.8903074264526

> <r_i_glide_erotb>
0.547994020824306

> <r_i_glide_esite>
-0.080687719920621

> <r_i_glide_emodel>
-75.2891618108277

> <r_i_glide_energy>
-49.7859830856323

> <r_i_glide_einternal>
6.69544696807861

> <i_i_glide_confnum>
10

> <i_i_glide_posenum>
72

> <r_i_glide_eff_state_penalty>
0

> <i_f3d_flags>
0

> <s_user_duplicate_titles>
248407

> <s_m_subgroup_title>
dock_pv

> <s_m_subgroupid>
dock_pv1

> <b_m_subgroup_collapsed>
0

$$$$
202597
                    3D
 Schrodinger Suite 2021-1.
 50 53  0  0  1  0            999 V2000
    5.4439   24.1532    5.4693 C   0  0  0  0  0  0
    6.2291   24.8855    6.9831 S   0  0  1  0  0  0
    7.6466   25.3169    6.6016 O   0  0  0  0  0  0
    5.2327   26.4070    7.0268 C   0  0  0  0  0  0
    4.4643   26.6725    8.1551 C   0  0  0  0  0  0
    3.7058   27.8356    8.2219 C   0  0  0  0  0  0
    3.6599   28.7011    7.1246 C   0  0  0  0  0  0
    4.4484   28.4327    6.0013 C   0  0  0  0  0  0
    5.2470   27.2931    5.9534 C   0  0  0  0  0  0
    2.8579   29.8522    7.0816 N   0  0  0  0  0  0
    1.7169   30.2687    7.7801 C   0  0  0  0  0  0
    1.2268   31.4960    7.4423 N   0  0  0  0  0  0
    0.1559   31.8541    8.1760 C   0  0  0  0  0  0
   -0.5011   31.0564    9.1427 C   0  0  0  0  0  0
    0.0860   29.8152    9.3932 C   0  0  0  0  0  0
    1.2146   29.4516    8.7356 N   0  0  0  0  0  0
   -0.4691   28.9851   10.3508 O   0  0  0  0  0  0
    0.2094   27.7653   10.6662 C   0  0  0  0  0  0
   -0.6288   26.8757   11.6071 C   0  0  0  0  0  0
    0.0720   25.5156   11.8478 C   0  0  0  0  0  0
   -0.7883   24.5847   12.7261 C   0  0  0  0  0  0
   -1.1453   25.2529   14.0724 C   0  0  0  0  0  0
   -1.7637   26.6526   13.8790 C   0  0  0  0  0  0
   -0.8889   27.5477   12.9746 C   0  0  0  0  0  0
   -1.5708   31.7041    9.6985 N   0  0  0  0  0  0
   -1.5372   32.8861    9.1396 C   0  0  0  0  0  0
   -0.5173   33.0520    8.2200 N   0  0  0  0  0  0
    3.2882   30.5966    6.5420 H   0  0  0  0  0  0
    4.3649   24.0561    5.6023 H   0  0  0  0  0  0
    5.6352   24.7750    4.5934 H   0  0  0  0  0  0
    5.8662   23.1668    5.2783 H   0  0  0  0  0  0
    4.4587   25.9776    8.9766 H   0  0  0  0  0  0
    3.1490   28.0276    9.1240 H   0  0  0  0  0  0
    4.4467   29.1077    5.1568 H   0  0  0  0  0  0
    5.8702   27.1034    5.0895 H   0  0  0  0  0  0
   -0.3313   33.9115    7.7111 H   0  0  0  0  0  0
    1.1742   27.9924   11.1253 H   0  0  0  0  0  0
    0.4064   27.2034    9.7528 H   0  0  0  0  0  0
   -1.5939   26.6787   11.1354 H   0  0  0  0  0  0
    1.0528   25.6752   12.3026 H   0  0  0  0  0  0
    0.2820   25.0306   10.8929 H   0  0  0  0  0  0
   -0.2655   23.6443   12.9034 H   0  0  0  0  0  0
   -1.7071   24.3283   12.1949 H   0  0  0  0  0  0
   -0.2437   25.3408   14.6802 H   0  0  0  0  0  0
   -1.8293   24.6176   14.6355 H   0  0  0  0  0  0
   -1.9103   27.1345   14.8449 H   0  0  0  0  0  0
   -2.7587   26.5583   13.4403 H   0  0  0  0  0  0
   -1.3680   28.5169   12.8295 H   0  0  0  0  0  0
    0.0590   27.7790   13.4632 H   0  0  0  0  0  0
   -2.2028   33.7044    9.3758 H   0  0  0  0  0  0
  1  2  1  0  0  0
  1 29  1  0  0  0
  1 30  1  0  0  0
  1 31  1  0  0  0
  2  3  2  0  0  0
  2  4  1  0  0  0
  4  9  1  0  0  0
  4  5  2  0  0  0
  5  6  1  0  0  0
  5 32  1  0  0  0
  6  7  2  0  0  0
  6 33  1  0  0  0
  7  8  1  0  0  0
  7 10  1  0  0  0
  8  9  2  0  0  0
  8 34  1  0  0  0
  9 35  1  0  0  0
 10 11  1  0  0  0
 10 28  1  0  0  0
 11 12  2  0  0  0
 11 16  1  0  0  0
 12 13  1  0  0  0
 13 27  1  0  0  0
 13 14  2  0  0  0
 14 15  1  0  0  0
 14 25  1  0  0  0
 15 16  2  0  0  0
 15 17  1  0  0  0
 17 18  1  0  0  0
 18 19  1  0  0  0
 18 37  1  0  0  0
 18 38  1  0  0  0
 19 24  1  0  0  0
 19 20  1  0  0  0
 19 39  1  0  0  0
 20 21  1  0  0  0
 20 40  1  0  0  0
 20 41  1  0  0  0
 21 22  1  0  0  0
 21 42  1  0  0  0
 21 43  1  0  0  0
 22 23  1  0  0  0
 22 44  1  0  0  0
 22 45  1  0  0  0
 23 24  1  0  0  0
 23 46  1  0  0  0
 23 47  1  0  0  0
 24 48  1  0  0  0
 24 49  1  0  0  0
 25 26  2  0  0  0
 26 50  1  0  0  0
 26 27  1  0  0  0
 27 36  1  0  0  0
M  END
> <s_m_entry_id>
34537

> <s_m_entry_name>
ligand_docking-pose.34

> <s_m_Source_Path>
/home/csk/Desktop/cluster/DUD-E-result/cdk2

> <s_m_Source_File>
ligand_docking-pose.sdf

> <i_m_Source_File_Index>
34

> <i_lp_mmshare_version>
53161

> <r_lp_tautomer_probability>
0.990858854461918

> <s_lp_Force_Field>
OPLS_2005

> <r_lp_Energy>
16.364207

> <b_lp_Chiralities_Consistent>
1

> <s_lp_Variant>
202597-2

> <s_i_glide_gridfile>
glide-grid_1h00

> <i_i_glide_lignum>
1754

> <i_i_glide_rotatable_bonds>
6

> <r_i_docking_score>
-8.69199483304783

> <r_i_glide_ligand_efficiency>
-0.321925734557327

> <r_i_glide_ligand_efficiency_sa>
-0.965777202610967

> <r_i_glide_ligand_efficiency_ln>
-2.02335309839931

> <r_i_glide_gscore>
-8.69199483304783

> <r_i_glide_lipo>
-2.01335152207142

> <r_i_glide_hbond>
-0.608

> <r_i_glide_metal>
0

> <r_i_glide_rewards>
-3.51115165861063

> <r_i_glide_evdw>
-41.3408622741699

> <r_i_glide_ecoul>
-7.64677286148071

> <r_i_glide_erotb>
0.654567390564816

> <r_i_glide_esite>
0

> <r_i_glide_emodel>
-73.468298285344

> <r_i_glide_energy>
-48.9876351356506

> <r_i_glide_einternal>
3.58235144615173

> <i_i_glide_confnum>
84

> <i_i_glide_posenum>
387

> <r_i_glide_eff_state_penalty>
0

> <i_f3d_flags>
0

> <s_user_duplicate_titles>
202597

> <s_m_subgroup_title>
dock_pv

> <s_m_subgroupid>
dock_pv1

> <b_m_subgroup_collapsed>
0

$$$$
234747
                    3D
 Schrodinger Suite 2021-1.
 70 75  0  0  1  0            999 V2000
    3.5765   28.0760    8.3289 C   0  0  0  0  0  0
    4.2192   26.8479    8.1760 C   0  0  0  0  0  0
    4.8411   26.5243    6.9649 C   0  0  0  0  0  0
    4.8579   27.4462    5.9236 C   0  0  0  0  0  0
    4.1910   28.6518    6.0617 C   0  0  0  0  0  0
    3.5322   28.9603    7.2501 C   0  0  0  0  0  0
    2.8580   30.1824    7.2734 N   0  0  0  0  0  0
    1.6338   30.6080    7.7769 C   0  0  0  0  0  0
    1.2577   31.8490    7.3759 N   0  0  0  0  0  0
    0.1112   32.3352    7.9219 C   0  0  0  0  0  0
   -0.6669   31.5830    8.8045 C   0  0  0  0  0  0
   -1.9566   32.0204    9.3336 C   0  0  0  0  0  0
   -2.6708   31.1854   10.1130 C   0  0  0  0  0  0
   -2.2523   29.8329   10.4545 C   0  0  0  0  0  0
   -3.0533   29.0635   10.9761 O   0  0  0  0  0  0
   -0.9539   29.5213   10.1162 N   0  0  0  0  0  0
   -0.1908   30.3166    9.1896 C   0  0  0  0  0  0
    0.9571   29.8172    8.6485 N   0  0  0  0  0  0
   -0.2936   28.2898   10.6707 C   0  0  1  0  0  0
   -0.4301   27.9934   12.1936 C   0  0  0  0  0  0
   -0.6473   26.4607   12.2283 C   0  0  2  0  0  0
    0.5894   25.7019   11.6977 C   0  0  0  0  0  0
    0.5180   25.9629   10.1760 C   0  0  0  0  0  0
   -0.6943   26.9197   10.0443 C   0  0  1  0  0  0
   -1.6237   26.2663   11.0752 C   0  0  0  0  0  0
    5.4759   25.3193    6.7551 N   0  0  0  0  0  0
    6.8591   25.1801    7.2127 C   0  0  0  0  0  0
    7.6265   24.1572    6.3478 C   0  0  0  0  0  0
    6.8471   22.8686    5.9741 C   0  0  0  0  0  0
    5.3050   22.9434    6.1142 C   0  0  0  0  0  0
    4.7821   24.0612    7.0394 C   0  0  0  0  0  0
    7.3890   22.0747    4.7564 C   0  0  0  0  0  0
    6.8534   22.4681    3.3533 C   0  0  0  0  0  0
    7.0902   23.9308    2.9320 C   0  0  0  0  0  0
    6.8594   24.1115    1.5468 O   0  0  0  0  0  0
    3.0871   28.3163    9.2608 H   0  0  0  0  0  0
    4.2120   26.1306    8.9780 H   0  0  0  0  0  0
    5.3623   27.2160    4.9961 H   0  0  0  0  0  0
    4.1836   29.3477    5.2345 H   0  0  0  0  0  0
    3.3389   30.8800    6.7118 H   0  0  0  0  0  0
   -0.1914   33.3235    7.6070 H   0  0  0  0  0  0
   -2.3328   33.0129    9.1217 H   0  0  0  0  0  0
   -3.6147   31.5245   10.5171 H   0  0  0  0  0  0
    0.7843   28.3690   10.5241 H   0  0  0  0  0  0
    0.4583   28.2963   12.7485 H   0  0  0  0  0  0
   -1.2796   28.4921   12.6616 H   0  0  0  0  0  0
   -1.0073   26.0945   13.1908 H   0  0  0  0  0  0
    1.5184   26.0641   12.1392 H   0  0  0  0  0  0
    0.5173   24.6340   11.9125 H   0  0  0  0  0  0
    0.3384   25.0355    9.6303 H   0  0  0  0  0  0
    1.4410   26.3897    9.7789 H   0  0  0  0  0  0
   -1.1007   26.9866    9.0341 H   0  0  0  0  0  0
   -2.5762   26.7622   11.2351 H   0  0  0  0  0  0
   -1.8486   25.2182   10.8602 H   0  0  0  0  0  0
    6.8947   24.9450    8.2759 H   0  0  0  0  0  0
    7.3610   26.1437    7.1008 H   0  0  0  0  0  0
    8.6089   23.9244    6.7582 H   0  0  0  0  0  0
    7.8489   24.7122    5.4391 H   0  0  0  0  0  0
    7.0925   22.2498    6.8390 H   0  0  0  0  0  0
    4.8744   23.1938    5.1450 H   0  0  0  0  0  0
    4.8787   21.9704    6.3590 H   0  0  0  0  0  0
    4.8582   23.7930    8.0948 H   0  0  0  0  0  0
    3.7185   24.1979    6.8302 H   0  0  0  0  0  0
    7.1718   21.0157    4.9113 H   0  0  0  0  0  0
    8.4783   22.1388    4.7459 H   0  0  0  0  0  0
    5.7897   22.2387    3.2791 H   0  0  0  0  0  0
    7.3368   21.8169    2.6239 H   0  0  0  0  0  0
    8.1269   24.2012    3.1286 H   0  0  0  0  0  0
    6.4890   24.6182    3.5252 H   0  0  0  0  0  0
    5.9112   24.2443    1.3781 H   0  0  0  0  0  0
  1  6  1  0  0  0
  1  2  2  0  0  0
  1 36  1  0  0  0
  2  3  1  0  0  0
  2 37  1  0  0  0
  3  4  2  0  0  0
  3 26  1  0  0  0
  4  5  1  0  0  0
  4 38  1  0  0  0
  5  6  2  0  0  0
  5 39  1  0  0  0
  6  7  1  0  0  0
  7  8  1  0  0  0
  7 40  1  0  0  0
  8 18  1  0  0  0
  8  9  2  0  0  0
  9 10  1  0  0  0
 10 11  2  0  0  0
 10 41  1  0  0  0
 11 17  1  0  0  0
 11 12  1  0  0  0
 12 13  2  0  0  0
 12 42  1  0  0  0
 13 14  1  0  0  0
 13 43  1  0  0  0
 14 15  2  0  0  0
 14 16  1  0  0  0
 16 17  1  0  0  0
 16 19  1  0  0  0
 17 18  2  0  0  0
 19 24  1  0  0  0
 19 20  1  0  0  0
 19 44  1  0  0  0
 20 21  1  0  0  0
 20 45  1  0  0  0
 20 46  1  0  0  0
 21 25  1  0  0  0
 21 22  1  0  0  0
 21 47  1  0  0  0
 22 23  1  0  0  0
 22 48  1  0  0  0
 22 49  1  0  0  0
 23 24  1  0  0  0
 23 50  1  0  0  0
 23 51  1  0  0  0
 24 25  1  0  0  0
 24 52  1  0  0  0
 25 53  1  0  0  0
 25 54  1  0  0  0
 26 31  1  0  0  0
 26 27  1  0  0  0
 27 28  1  0  0  0
 27 55  1  0  0  0
 27 56  1  0  0  0
 28 29  1  0  0  0
 28 57  1  0  0  0
 28 58  1  0  0  0
 29 30  1  0  0  0
 29 32  1  0  0  0
 29 59  1  0  0  0
 30 31  1  0  0  0
 30 60  1  0  0  0
 30 61  1  0  0  0
 31 62  1  0  0  0
 31 63  1  0  0  0
 32 33  1  0  0  0
 32 64  1  0  0  0
 32 65  1  0  0  0
 33 34  1  0  0  0
 33 66  1  0  0  0
 33 67  1  0  0  0
 34 35  1  0  0  0
 34 68  1  0  0  0
 34 69  1  0  0  0
 35 70  1  0  0  0
M  END
> <s_m_entry_id>
34539

> <s_m_entry_name>
ligand_docking-pose.36

> <s_m_Source_Path>
/home/csk/Desktop/cluster/DUD-E-result/cdk2

> <s_m_Source_File>
ligand_docking-pose.sdf

> <i_m_Source_File_Index>
36

> <i_lp_mmshare_version>
53161

> <r_lp_tautomer_probability>
1

> <s_lp_Force_Field>
OPLS_2005

> <r_lp_Energy>
82.655883

> <b_lp_Chiralities_Consistent>
1

> <s_lp_Variant>
234747-2

> <s_i_glide_gridfile>
glide-grid_1h00

> <i_i_glide_lignum>
427

> <i_i_glide_rotatable_bonds>
8

> <r_i_docking_score>
-8.67684573326398

> <r_i_glide_ligand_efficiency>
-0.247909878093257

> <r_i_glide_ligand_efficiency_sa>
-0.810929649232766

> <r_i_glide_ligand_efficiency_ln>
-1.90476021066698

> <r_i_glide_gscore>
-8.67684573326398

> <r_i_glide_lipo>
-3.18322437864602

> <r_i_glide_hbond>
-0.456

> <r_i_glide_metal>
0

> <r_i_glide_rewards>
-2.3945718297308

> <r_i_glide_evdw>
-39.1697006225586

> <r_i_glide_ecoul>
-8.77234363555908

> <r_i_glide_erotb>
0.631287051574629

> <r_i_glide_esite>
0

> <r_i_glide_emodel>
-67.1503837450281

> <r_i_glide_energy>
-47.9420442581177

> <r_i_glide_einternal>
9.68537139892578

> <i_i_glide_confnum>
6

> <i_i_glide_posenum>
155

> <r_i_glide_eff_state_penalty>
0

> <i_f3d_flags>
0

> <s_user_duplicate_titles>
234747

> <s_m_subgroup_title>
dock_pv

> <s_m_subgroupid>
dock_pv1

> <b_m_subgroup_collapsed>
0

$$$$
202791
                    3D
 Schrodinger Suite 2021-1.
 49 52  0  0  1  0            999 V2000
    4.9509   27.1223    5.7314 C   0  0  0  0  0  0
    4.2048   28.2925    5.8128 C   0  0  0  0  0  0
    3.6423   28.6879    7.0270 C   0  0  0  0  0  0
    3.8638   27.9264    8.1760 C   0  0  0  0  0  0
    4.6017   26.7507    8.0927 C   0  0  0  0  0  0
    5.1417   26.3441    6.8723 C   0  0  0  0  0  0
    5.9482   25.0604    6.7884 C   0  0  0  0  0  0
    5.1458   23.8691    7.1165 C   0  0  0  0  0  0
    4.5170   22.9319    7.3760 N   0  0  0  0  0  0
    2.8579   29.8522    7.0238 N   0  0  0  0  0  0
    1.7556   30.2802    7.7737 C   0  0  0  0  0  0
    1.2579   31.5050    7.4355 N   0  0  0  0  0  0
    0.1962   31.8584    8.1751 C   0  0  0  0  0  0
   -0.4617   31.0530    9.1306 C   0  0  0  0  0  0
    0.1191   29.8060    9.3623 C   0  0  0  0  0  0
    1.2617   29.4519    8.7233 N   0  0  0  0  0  0
   -0.4919   28.9568   10.2626 O   0  0  0  0  0  0
    0.0823   27.6764   10.5416 C   0  0  0  0  0  0
   -1.0588   26.6808   10.8630 C   0  0  0  0  0  0
   -0.5642   25.2359   11.1086 C   0  0  0  0  0  0
    0.2341   25.1237   12.4248 C   0  0  0  0  0  0
   -0.5733   25.6530   13.6347 C   0  0  0  0  0  0
   -1.1719   27.0555   13.3870 C   0  0  0  0  0  0
   -1.9494   27.1086   12.0566 C   0  0  0  0  0  0
   -1.5369   31.6949    9.6841 N   0  0  0  0  0  0
   -1.4921   32.8845    9.1418 C   0  0  0  0  0  0
   -0.4795   33.0518    8.2183 N   0  0  0  0  0  0
    3.3022   30.6019    6.5030 H   0  0  0  0  0  0
    5.3770   26.8241    4.7846 H   0  0  0  0  0  0
    4.0583   28.8880    4.9243 H   0  0  0  0  0  0
    3.4592   28.2253    9.1300 H   0  0  0  0  0  0
    4.7437   26.1470    8.9760 H   0  0  0  0  0  0
    6.7843   25.1098    7.4847 H   0  0  0  0  0  0
    6.3653   24.9213    5.7913 H   0  0  0  0  0  0
   -0.2904   33.9112    7.7129 H   0  0  0  0  0  0
    0.6463   27.2710    9.7010 H   0  0  0  0  0  0
    0.7866   27.7790   11.3680 H   0  0  0  0  0  0
   -1.7013   26.6303    9.9833 H   0  0  0  0  0  0
   -1.4187   24.5550   11.1414 H   0  0  0  0  0  0
    0.0626   24.9065   10.2768 H   0  0  0  0  0  0
    0.5208   24.0853   12.5982 H   0  0  0  0  0  0
    1.1690   25.6828   12.3398 H   0  0  0  0  0  0
   -1.3835   24.9552   13.8580 H   0  0  0  0  0  0
    0.0579   25.6768   14.5240 H   0  0  0  0  0  0
   -1.8326   27.3318   14.2115 H   0  0  0  0  0  0
   -0.3750   27.8024   13.3790 H   0  0  0  0  0  0
   -2.3277   28.1216   11.9099 H   0  0  0  0  0  0
   -2.8276   26.4630   12.1201 H   0  0  0  0  0  0
   -2.1602   33.7023    9.3762 H   0  0  0  0  0  0
  1  6  1  0  0  0
  1  2  2  0  0  0
  1 29  1  0  0  0
  2  3  1  0  0  0
  2 30  1  0  0  0
  3  4  2  0  0  0
  3 10  1  0  0  0
  4  5  1  0  0  0
  4 31  1  0  0  0
  5  6  2  0  0  0
  5 32  1  0  0  0
  6  7  1  0  0  0
  7  8  1  0  0  0
  7 33  1  0  0  0
  7 34  1  0  0  0
  8  9  3  0  0  0
 10 11  1  0  0  0
 10 28  1  0  0  0
 11 12  2  0  0  0
 11 16  1  0  0  0
 12 13  1  0  0  0
 13 27  1  0  0  0
 13 14  2  0  0  0
 14 15  1  0  0  0
 14 25  1  0  0  0
 15 16  2  0  0  0
 15 17  1  0  0  0
 17 18  1  0  0  0
 18 19  1  0  0  0
 18 36  1  0  0  0
 18 37  1  0  0  0
 19 24  1  0  0  0
 19 20  1  0  0  0
 19 38  1  0  0  0
 20 21  1  0  0  0
 20 39  1  0  0  0
 20 40  1  0  0  0
 21 22  1  0  0  0
 21 41  1  0  0  0
 21 42  1  0  0  0
 22 23  1  0  0  0
 22 43  1  0  0  0
 22 44  1  0  0  0
 23 24  1  0  0  0
 23 45  1  0  0  0
 23 46  1  0  0  0
 24 47  1  0  0  0
 24 48  1  0  0  0
 25 26  2  0  0  0
 26 49  1  0  0  0
 26 27  1  0  0  0
 27 35  1  0  0  0
M  END
> <s_m_entry_id>
34540

> <s_m_entry_name>
ligand_docking-pose.37

> <s_m_Source_Path>
/home/csk/Desktop/cluster/DUD-E-result/cdk2

> <s_m_Source_File>
ligand_docking-pose.sdf

> <i_m_Source_File_Index>
37

> <i_lp_mmshare_version>
53161

> <r_lp_tautomer_probability>
0.990858854461918

> <s_lp_Force_Field>
OPLS_2005

> <r_lp_Energy>
16.852349

> <b_lp_Chiralities_Consistent>
1

> <s_lp_Variant>
202791-1

> <s_i_glide_gridfile>
glide-grid_1h00

> <i_i_glide_lignum>
231

> <i_i_glide_rotatable_bonds>
6

> <r_i_docking_score>
-8.64761513400667

> <r_i_glide_ligand_efficiency>
-0.320282042000247

> <r_i_glide_ligand_efficiency_sa>
-0.960846124945144

> <r_i_glide_ligand_efficiency_ln>
-2.01302223611905

> <r_i_glide_gscore>
-8.64761513400667

> <r_i_glide_lipo>
-2.31556773590244

> <r_i_glide_hbond>
-0.608

> <r_i_glide_metal>
0

> <r_i_glide_rewards>
-3.56145042631825

> <r_i_glide_evdw>
-38.9232559204102

> <r_i_glide_ecoul>
-7.25643682479858

> <r_i_glide_erotb>
0.877103554616152

> <r_i_glide_esite>
-0.00507220666183448

> <r_i_glide_emodel>
-70.1085529579877

> <r_i_glide_energy>
-46.1796927452087

> <r_i_glide_einternal>
0.826319396495819

> <i_i_glide_confnum>
71

> <i_i_glide_posenum>
10

> <r_i_glide_eff_state_penalty>
0

> <i_f3d_flags>
0

> <s_user_duplicate_titles>
202791

> <s_m_subgroup_title>
dock_pv

> <s_m_subgroupid>
dock_pv1

> <b_m_subgroup_collapsed>
0

$$$$
250326
                    3D
 Schrodinger Suite 2021-1.
 61 65  0  0  1  0            999 V2000
    4.4514   24.6144    5.3562 C   0  0  0  0  0  0
    4.6488   25.8279    4.7018 C   0  0  0  0  0  0
    4.8579   26.9849    5.4481 C   0  0  0  0  0  0
    4.8583   26.9253    6.8460 C   0  0  0  0  0  0
    4.6570   25.7056    7.4955 C   0  0  0  0  0  0
    4.4517   24.5475    6.7491 C   0  0  0  0  0  0
    5.1022   28.1859    7.6617 C   0  0  0  0  0  0
    4.0745   29.1891    7.4124 N   0  0  0  0  0  0
    2.8551   29.2170    8.0963 C   0  0  0  0  0  0
    1.9230   30.2432    7.8421 C   0  0  0  0  0  0
    0.7169   30.1782    8.5762 C   0  0  0  0  0  0
    0.3958   29.2191    9.4462 N   0  0  0  0  0  0
    1.3793   28.2996    9.6466 C   0  0  0  0  0  0
    2.5795   28.2573    9.0213 N   0  0  0  0  0  0
    1.1778   27.2760   10.5759 N   0  0  0  0  0  0
   -0.0840   27.0771   11.2868 C   0  0  2  0  0  0
   -0.2659   28.1630   12.3712 C   0  0  0  0  0  0
   -1.5147   27.9024   13.2272 C   0  0  0  0  0  0
   -1.5236   26.4917   13.8573 C   0  0  2  0  0  0
   -1.3030   25.4046   12.7840 C   0  0  0  0  0  0
   -0.0434   25.6764   11.9348 C   0  0  0  0  0  0
   -2.7046   26.2520   14.6618 N   0  0  0  0  0  0
    0.0207   31.3260    8.2400 N   0  0  0  0  0  0
    0.8580   32.0009    7.3760 C   0  0  0  0  0  0
    1.9400   31.3483    7.0286 N   0  0  0  0  0  0
   -1.2574   31.8325    8.7659 C   0  0  0  0  0  0
   -2.4247   30.8260    8.7631 C   0  0  0  0  0  0
   -3.3318   31.1840    9.9479 C   0  0  0  0  0  0
   -2.6268   32.3295   10.6797 C   0  0  0  0  0  0
   -1.1657   32.2378   10.2355 C   0  0  0  0  0  0
    4.2870   23.7172    4.7766 H   0  0  0  0  0  0
    4.6438   25.8675    3.6209 H   0  0  0  0  0  0
    5.0244   27.9265    4.9444 H   0  0  0  0  0  0
    4.6514   25.6572    8.5752 H   0  0  0  0  0  0
    4.2830   23.6039    7.2464 H   0  0  0  0  0  0
    5.1748   27.9550    8.7269 H   0  0  0  0  0  0
    6.0577   28.6121    7.3698 H   0  0  0  0  0  0
    4.3019   29.9912    6.8287 H   0  0  0  0  0  0
    1.9829   26.7220   10.8293 H   0  0  0  0  0  0
   -0.8991   27.1338   10.5625 H   0  0  0  0  0  0
    0.6114   28.2225   13.0107 H   0  0  0  0  0  0
   -0.3634   29.1501   11.9200 H   0  0  0  0  0  0
   -2.3917   28.0384   12.5899 H   0  0  0  0  0  0
   -1.5437   28.6658   14.0054 H   0  0  0  0  0  0
   -0.6596   26.4547   14.5230 H   0  0  0  0  0  0
   -2.1662   25.3676   12.1174 H   0  0  0  0  0  0
   -1.2251   24.4226   13.2523 H   0  0  0  0  0  0
    0.0434   24.9101   11.1625 H   0  0  0  0  0  0
    0.8423   25.5764   12.5661 H   0  0  0  0  0  0
   -3.0275   27.1637   14.9764 H   0  0  0  0  0  0
   -3.4362   25.9357   14.0420 H   0  0  0  0  0  0
    0.5600   32.9690    6.9938 H   0  0  0  0  0  0
   -1.5291   32.7101    8.1763 H   0  0  0  0  0  0
   -2.9765   30.8054    7.8227 H   0  0  0  0  0  0
   -2.0529   29.8298    8.9762 H   0  0  0  0  0  0
   -4.3387   31.4521    9.6300 H   0  0  0  0  0  0
   -3.4396   30.3232   10.6103 H   0  0  0  0  0  0
   -3.0471   33.2887   10.3779 H   0  0  0  0  0  0
   -2.7419   32.2555   11.7600 H   0  0  0  0  0  0
   -0.6763   31.4521   10.8141 H   0  0  0  0  0  0
   -0.6191   33.1636   10.3981 H   0  0  0  0  0  0
  1  6  1  0  0  0
  1  2  2  0  0  0
  1 31  1  0  0  0
  2  3  1  0  0  0
  2 32  1  0  0  0
  3  4  2  0  0  0
  3 33  1  0  0  0
  4  5  1  0  0  0
  4  7  1  0  0  0
  5  6  2  0  0  0
  5 34  1  0  0  0
  6 35  1  0  0  0
  7  8  1  0  0  0
  7 36  1  0  0  0
  7 37  1  0  0  0
  8  9  1  0  0  0
  8 38  1  0  0  0
  9 14  1  0  0  0
  9 10  2  0  0  0
 10 25  1  0  0  0
 10 11  1  0  0  0
 11 12  2  0  0  0
 11 23  1  0  0  0
 12 13  1  0  0  0
 13 14  2  0  0  0
 13 15  1  0  0  0
 15 16  1  0  0  0
 15 39  1  0  0  0
 16 21  1  0  0  0
 16 17  1  0  0  0
 16 40  1  0  0  0
 17 18  1  0  0  0
 17 41  1  0  0  0
 17 42  1  0  0  0
 18 19  1  0  0  0
 18 43  1  0  0  0
 18 44  1  0  0  0
 19 20  1  0  0  0
 19 22  1  0  0  0
 19 45  1  0  0  0
 20 21  1  0  0  0
 20 46  1  0  0  0
 20 47  1  0  0  0
 21 48  1  0  0  0
 21 49  1  0  0  0
 22 50  1  0  0  0
 22 51  1  0  0  0
 23 24  1  0  0  0
 23 26  1  0  0  0
 24 25  2  0  0  0
 24 52  1  0  0  0
 26 30  1  0  0  0
 26 27  1  0  0  0
 26 53  1  0  0  0
 27 28  1  0  0  0
 27 54  1  0  0  0
 27 55  1  0  0  0
 28 29  1  0  0  0
 28 56  1  0  0  0
 28 57  1  0  0  0
 29 30  1  0  0  0
 29 58  1  0  0  0
 29 59  1  0  0  0
 30 60  1  0  0  0
 30 61  1  0  0  0
M  END
> <s_m_entry_id>
34543

> <s_m_entry_name>
ligand_docking-pose.40

> <s_m_Source_Path>
/home/csk/Desktop/cluster/DUD-E-result/cdk2

> <s_m_Source_File>
ligand_docking-pose.sdf

> <i_m_Source_File_Index>
40

> <i_lp_mmshare_version>
53161

> <r_lp_tautomer_probability>
1

> <s_lp_Force_Field>
OPLS_2005

> <r_lp_Energy>
37.000701

> <b_lp_Chiralities_Consistent>
1

> <s_lp_Variant>
250326-2

> <s_i_glide_gridfile>
glide-grid_1h00

> <i_i_glide_lignum>
302

> <i_i_glide_rotatable_bonds>
6

> <r_i_docking_score>
-8.6092763136106

> <r_i_glide_ligand_efficiency>
-0.286975877120353

> <r_i_glide_ligand_efficiency_sa>
-0.891700772802032

> <r_i_glide_ligand_efficiency_ln>
-1.956121384031

> <r_i_glide_gscore>
-8.6092763136106

> <r_i_glide_lipo>
-2.76195956046409

> <r_i_glide_hbond>
-0.41657551828792

> <r_i_glide_metal>
0

> <r_i_glide_rewards>
-2.78086422204998

> <r_i_glide_evdw>
-42.8327865600586

> <r_i_glide_ecoul>
-6.73433303833008

> <r_i_glide_erotb>
0.501912270943836

> <r_i_glide_esite>
0

> <r_i_glide_emodel>
-72.092906853048

> <r_i_glide_energy>
-49.5671195983887

> <r_i_glide_einternal>
2.76417660713196

> <i_i_glide_confnum>
2

> <i_i_glide_posenum>
227

> <r_i_glide_eff_state_penalty>
0

> <i_f3d_flags>
0

> <s_user_duplicate_titles>
250326

> <s_m_subgroup_title>
dock_pv

> <s_m_subgroupid>
dock_pv1

> <b_m_subgroup_collapsed>
0

$$$$
248660
                    3D
 Schrodinger Suite 2021-1.
 39 42  0  0  1  0            999 V2000
    7.0391   25.3720    5.7225 C   0  0  0  0  0  0
    6.2609   25.5317    6.9036 O   0  0  0  0  0  0
    5.3584   26.5744    6.9753 C   0  0  0  0  0  0
    4.6712   26.7219    8.1756 C   0  0  0  0  0  0
    3.7659   27.7602    8.3717 C   0  0  0  0  0  0
    3.5061   28.6520    7.3323 C   0  0  0  0  0  0
    4.1822   28.5047    6.1149 C   0  0  0  0  0  0
    5.1009   27.4752    5.9359 C   0  0  0  0  0  0
    2.4582   29.6927    7.4879 C   0  0  0  0  0  0
    1.3243   29.8525    8.2768 C   0  0  0  0  0  0
    0.8067   31.0836    7.9146 C   0  0  0  0  0  0
    1.4836   31.6854    6.9765 N   0  0  0  0  0  0
    2.4577   30.8221    6.7299 N   0  0  0  0  0  0
   -0.3420   31.4194    8.7253 C   0  0  0  0  0  0
   -1.1218   32.5676    8.7759 C   0  0  0  0  0  0
   -2.1353   32.6457    9.7156 C   0  0  0  0  0  0
   -2.3656   31.5811   10.5759 C   0  0  0  0  0  0
   -1.5618   30.4332   10.5618 C   0  0  0  0  0  0
   -0.5319   30.3450    9.6011 C   0  0  0  0  0  0
    0.4738   29.2695    9.2971 C   0  0  0  0  0  0
    0.5650   28.1452    9.7850 O   0  0  0  0  0  0
   -1.8681   29.4807   11.5470 N   0  0  0  0  0  0
   -0.9834   28.8719   12.3512 C   0  0  0  0  0  0
    0.2160   29.1107   12.4111 O   0  0  0  0  0  0
   -1.5419   27.9502   13.1233 N   0  0  0  0  0  0
    3.2239   31.0520    6.1044 H   0  0  0  0  0  0
    7.7089   24.5220    5.8455 H   0  0  0  0  0  0
    6.4113   25.1747    4.8523 H   0  0  0  0  0  0
    7.6545   26.2520    5.5285 H   0  0  0  0  0  0
    4.8463   26.0201    8.9739 H   0  0  0  0  0  0
    3.2493   27.8444    9.3177 H   0  0  0  0  0  0
    3.9964   29.1793    5.2927 H   0  0  0  0  0  0
    5.6113   27.4007    4.9872 H   0  0  0  0  0  0
   -0.9293   33.4015    8.1156 H   0  0  0  0  0  0
   -2.7420   33.5325    9.7922 H   0  0  0  0  0  0
   -3.1420   31.7101   11.3086 H   0  0  0  0  0  0
   -2.7931   29.5612   11.9461 H   0  0  0  0  0  0
   -0.9346   27.3529   13.6578 H   0  0  0  0  0  0
   -2.5184   28.0473   13.3856 H   0  0  0  0  0  0
  1  2  1  0  0  0
  1 27  1  0  0  0
  1 28  1  0  0  0
  1 29  1  0  0  0
  2  3  1  0  0  0
  3  8  1  0  0  0
  3  4  2  0  0  0
  4  5  1  0  0  0
  4 30  1  0  0  0
  5  6  2  0  0  0
  5 31  1  0  0  0
  6  7  1  0  0  0
  6  9  1  0  0  0
  7  8  2  0  0  0
  7 32  1  0  0  0
  8 33  1  0  0  0
  9 13  1  0  0  0
  9 10  2  0  0  0
 10 20  1  0  0  0
 10 11  1  0  0  0
 11 12  2  0  0  0
 11 14  1  0  0  0
 12 13  1  0  0  0
 13 26  1  0  0  0
 14 19  2  0  0  0
 14 15  1  0  0  0
 15 16  2  0  0  0
 15 34  1  0  0  0
 16 17  1  0  0  0
 16 35  1  0  0  0
 17 18  2  0  0  0
 17 36  1  0  0  0
 18 19  1  0  0  0
 18 22  1  0  0  0
 19 20  1  0  0  0
 20 21  2  0  0  0
 22 23  1  0  0  0
 22 37  1  0  0  0
 23 24  2  0  0  0
 23 25  1  0  0  0
 25 38  1  0  0  0
 25 39  1  0  0  0
M  END
> <s_m_entry_id>
34545

> <s_m_entry_name>
ligand_docking-pose.42

> <s_m_Source_Path>
/home/csk/Desktop/cluster/DUD-E-result/cdk2

> <s_m_Source_File>
ligand_docking-pose.sdf

> <i_m_Source_File_Index>
42

> <i_lp_mmshare_version>
53161

> <r_lp_tautomer_probability>
1

> <s_lp_Force_Field>
OPLS_2005

> <r_lp_Energy>
56.528988

> <b_lp_Chiralities_Consistent>
1

> <s_lp_Variant>
248660-1

> <s_i_glide_gridfile>
glide-grid_1h00

> <i_i_glide_lignum>
1633

> <i_i_glide_rotatable_bonds>
4

> <r_i_docking_score>
-8.60750053512529

> <r_i_glide_ligand_efficiency>
-0.344300021405012

> <r_i_glide_ligand_efficiency_sa>
-1.00673936877513

> <r_i_glide_ligand_efficiency_ln>
-2.04023557280077

> <r_i_glide_gscore>
-8.60750053512529

> <r_i_glide_lipo>
-2.62310772325118

> <r_i_glide_hbond>
-0.528518658254999

> <r_i_glide_metal>
0

> <r_i_glide_rewards>
-2.66073616611232

> <r_i_glide_evdw>
-27.8705139160156

> <r_i_glide_ecoul>
-10.9794836044312

> <r_i_glide_erotb>
0.337445588138103

> <r_i_glide_esite>
-0.0921353391794354

> <r_i_glide_emodel>
-59.8600834426604

> <r_i_glide_energy>
-38.8499975204468

> <r_i_glide_einternal>
6.18186616897583

> <i_i_glide_confnum>
6

> <i_i_glide_posenum>
19

> <r_i_glide_eff_state_penalty>
0

> <i_f3d_flags>
0

> <s_user_duplicate_titles>
248660

> <s_m_subgroup_title>
dock_pv

> <s_m_subgroupid>
dock_pv1

> <b_m_subgroup_collapsed>
0

$$$$
147105
                    3D
 Schrodinger Suite 2021-1.
 54 56  0  0  1  0            999 V2000
   -1.9081   32.3741   10.5760 C   0  0  0  0  0  0
   -1.9844   32.0850    9.0784 C   0  0  0  0  0  0
   -3.0881   31.0517    8.7816 C   0  0  0  0  0  0
   -0.6726   31.6497    8.5760 N   0  0  0  0  0  0
    0.1780   32.3901    7.7760 C   0  0  0  0  0  0
    1.2580   31.7593    7.3778 N   0  0  0  0  0  0
    1.2450   30.6146    8.1361 C   0  0  0  0  0  0
    0.0307   30.4897    8.8470 C   0  0  0  0  0  0
   -0.2814   29.4866    9.6654 N   0  0  0  0  0  0
    0.7200   28.5905    9.8555 C   0  0  0  0  0  0
    1.9422   28.6201    9.2696 N   0  0  0  0  0  0
    2.2081   29.6190    8.3824 C   0  0  0  0  0  0
    3.4696   29.7051    7.7760 N   0  0  0  0  0  0
    4.5729   28.7995    8.0854 C   0  0  0  0  0  0
    4.5078   27.5261    7.2547 C   0  0  0  0  0  0
    4.4715   26.2900    7.8979 C   0  0  0  0  0  0
    4.4352   25.1151    7.1550 C   0  0  0  0  0  0
    4.4146   25.1595    5.7628 C   0  0  0  0  0  0
    4.4593   26.4043    5.1136 C   0  0  0  0  0  0
    4.5110   27.5818    5.8580 C   0  0  0  0  0  0
    4.3361   23.9416    5.1178 O   0  0  0  0  0  0
    4.2027   23.9174    3.7023 C   0  0  0  0  0  0
    0.5552   27.5419   10.7675 N   0  0  0  0  0  0
   -0.7136   26.9647   11.2187 C   0  0  1  0  0  0
   -0.3895   25.8852   12.2713 C   0  0  0  0  0  0
   -1.7393   27.9896   11.8133 C   0  0  0  0  0  0
   -2.9817   27.4086   12.1760 O   0  0  0  0  0  0
   -1.3589   26.2686   10.1762 O   0  0  0  0  0  0
   -2.8451   32.7928   10.9461 H   0  0  0  0  0  0
   -1.1173   33.0914   10.7977 H   0  0  0  0  0  0
   -1.7241   31.4522   11.1328 H   0  0  0  0  0  0
   -2.2374   33.0187    8.5759 H   0  0  0  0  0  0
   -4.0571   31.4140    9.1247 H   0  0  0  0  0  0
   -3.1803   30.8492    7.7208 H   0  0  0  0  0  0
   -2.9105   30.1026    9.2866 H   0  0  0  0  0  0
   -0.1213   33.3764    7.4461 H   0  0  0  0  0  0
    3.6703   30.5009    7.1799 H   0  0  0  0  0  0
    5.5138   29.3087    7.8739 H   0  0  0  0  0  0
    4.5825   28.5637    9.1507 H   0  0  0  0  0  0
    4.4582   26.2373    8.9757 H   0  0  0  0  0  0
    4.3917   24.1622    7.6601 H   0  0  0  0  0  0
    4.4543   26.4745    4.0370 H   0  0  0  0  0  0
    4.5505   28.5361    5.3525 H   0  0  0  0  0  0
    4.1143   22.8860    3.3621 H   0  0  0  0  0  0
    3.3054   24.4455    3.3760 H   0  0  0  0  0  0
    5.0756   24.3516    3.2117 H   0  0  0  0  0  0
    1.3263   26.8944   10.7376 H   0  0  0  0  0  0
    0.1054   26.3222   13.1401 H   0  0  0  0  0  0
   -1.2865   25.3788   12.6309 H   0  0  0  0  0  0
    0.2755   25.1173   11.8720 H   0  0  0  0  0  0
   -1.3111   28.4890   12.6835 H   0  0  0  0  0  0
   -2.0257   28.7746   11.1222 H   0  0  0  0  0  0
   -3.4027   27.9972   12.8251 H   0  0  0  0  0  0
   -2.2479   26.0829   10.4935 H   0  0  0  0  0  0
  1  2  1  0  0  0
  1 29  1  0  0  0
  1 30  1  0  0  0
  1 31  1  0  0  0
  2  3  1  0  0  0
  2  4  1  0  0  0
  2 32  1  0  0  0
  3 33  1  0  0  0
  3 34  1  0  0  0
  3 35  1  0  0  0
  4  8  1  0  0  0
  4  5  1  0  0  0
  5  6  2  0  0  0
  5 36  1  0  0  0
  6  7  1  0  0  0
  7 12  2  0  0  0
  7  8  1  0  0  0
  8  9  2  0  0  0
  9 10  1  0  0  0
 10 11  2  0  0  0
 10 23  1  0  0  0
 11 12  1  0  0  0
 12 13  1  0  0  0
 13 14  1  0  0  0
 13 37  1  0  0  0
 14 15  1  0  0  0
 14 38  1  0  0  0
 14 39  1  0  0  0
 15 20  1  0  0  0
 15 16  2  0  0  0
 16 17  1  0  0  0
 16 40  1  0  0  0
 17 18  2  0  0  0
 17 41  1  0  0  0
 18 19  1  0  0  0
 18 21  1  0  0  0
 19 20  2  0  0  0
 19 42  1  0  0  0
 20 43  1  0  0  0
 21 22  1  0  0  0
 22 44  1  0  0  0
 22 45  1  0  0  0
 22 46  1  0  0  0
 23 24  1  0  0  0
 23 47  1  0  0  0
 24 25  1  0  0  0
 24 26  1  0  0  0
 24 28  1  0  0  0
 25 48  1  0  0  0
 25 49  1  0  0  0
 25 50  1  0  0  0
 26 27  1  0  0  0
 26 51  1  0  0  0
 26 52  1  0  0  0
 27 53  1  0  0  0
 28 54  1  0  0  0
M  END
> <s_m_entry_id>
34546

> <s_m_entry_name>
ligand_docking-pose.43

> <s_m_Source_Path>
/home/csk/Desktop/cluster/DUD-E-result/cdk2

> <s_m_Source_File>
ligand_docking-pose.sdf

> <i_m_Source_File_Index>
43

> <i_lp_mmshare_version>
53161

> <r_lp_tautomer_probability>
1

> <s_lp_Force_Field>
OPLS_2005

> <r_lp_Energy>
22.740051

> <b_lp_Chiralities_Consistent>
1

> <s_lp_Variant>
147105-1

> <s_i_glide_gridfile>
glide-grid_1h00

> <i_i_glide_lignum>
1255

> <i_i_glide_rotatable_bonds>
10

> <r_i_docking_score>
-8.57496714690615

> <r_i_glide_ligand_efficiency>
-0.30624882667522

> <r_i_glide_ligand_efficiency_sa>
-0.929951808698903

> <r_i_glide_ligand_efficiency_ln>
-1.97935418948155

> <r_i_glide_gscore>
-8.57496714690615

> <r_i_glide_lipo>
-2.71718219150139

> <r_i_glide_hbond>
-0.304

> <r_i_glide_metal>
0

> <r_i_glide_rewards>
-3.21652073461432

> <r_i_glide_evdw>
-39.067943572998

> <r_i_glide_ecoul>
-7.77224063873291

> <r_i_glide_erotb>
0.781969053669402

> <r_i_glide_esite>
0

> <r_i_glide_emodel>
-70.299475683198

> <r_i_glide_energy>
-46.840184211731

> <r_i_glide_einternal>
6.62981081008911

> <i_i_glide_confnum>
53

> <i_i_glide_posenum>
233

> <r_i_glide_eff_state_penalty>
0

> <i_f3d_flags>
0

> <s_user_duplicate_titles>
147105

> <s_m_subgroup_title>
dock_pv

> <s_m_subgroupid>
dock_pv1

> <b_m_subgroup_collapsed>
0

$$$$
347765
                    3D
 Schrodinger Suite 2021-1.
 48 51  0  0  1  0            999 V2000
    5.4227   28.2707    8.5875 C   0  0  0  0  0  0
    4.5362   28.3819    7.3471 C   0  0  1  0  0  0
    4.4612   27.0378    6.6093 C   0  0  0  0  0  0
    4.4581   27.0150    5.2108 C   0  0  0  0  0  0
    4.4588   25.7999    4.5288 C   0  0  0  0  0  0
    4.4577   24.5930    5.2430 C   0  0  0  0  0  0
    4.4487   24.6144    6.6385 C   0  0  0  0  0  0
    4.4574   25.8265    7.3163 C   0  0  0  0  0  0
    4.4263   23.3475    4.5869 N   0  0  0  0  0  0
    3.4543   22.3039    4.9269 C   0  0  0  0  0  0
    3.8555   21.0982    4.1049 C   0  0  0  0  0  0
    4.6737   21.6786    2.9747 C   0  0  2  0  0  0
    5.1774   23.0310    3.4955 C   0  0  0  0  0  0
    6.0809   23.6874    2.9768 O   0  0  0  0  0  0
    3.9363   21.8520    1.7743 O   0  0  0  0  0  0
    3.1645   28.9694    7.7597 C   0  0  0  0  0  0
    2.5500   28.4843    8.7129 O   0  0  0  0  0  0
    2.7388   30.0395    7.0622 N   0  0  0  0  0  0
    1.6577   30.8442    7.3764 C   0  0  0  0  0  0
    0.5074   30.5687    8.1413 C   0  0  0  0  0  0
   -0.1880   31.7646    8.2539 C   0  0  0  0  0  0
    0.5892   32.6516    7.5545 N   0  0  0  0  0  0
    1.6580   32.0938    6.9761 N   0  0  0  0  0  0
   -1.4762   32.1749    8.9392 C   0  0  0  0  0  0
   -2.5584   31.1563    9.2114 C   0  0  0  0  0  0
   -1.7685   31.7498   10.3569 C   0  0  0  0  0  0
    5.0320   29.0824    6.6722 H   0  0  0  0  0  0
    5.5382   21.0443    2.7727 H   0  0  0  0  0  0
    0.3665   33.6322    7.4209 H   0  0  0  0  0  0
    4.9150   27.7263    9.3759 H   0  0  0  0  0  0
    6.3382   27.7161    8.3960 H   0  0  0  0  0  0
    5.6579   29.2576    8.9758 H   0  0  0  0  0  0
    4.4739   27.9376    4.6489 H   0  0  0  0  0  0
    4.4563   25.7972    3.4475 H   0  0  0  0  0  0
    4.4371   23.6966    7.2065 H   0  0  0  0  0  0
    4.4514   25.8116    8.3962 H   0  0  0  0  0  0
    3.4496   22.0777    5.9934 H   0  0  0  0  0  0
    2.4580   22.6455    4.6533 H   0  0  0  0  0  0
    4.4835   20.4397    4.7080 H   0  0  0  0  0  0
    2.9960   20.5156    3.7717 H   0  0  0  0  0  0
    4.0581   22.7648    1.4546 H   0  0  0  0  0  0
    3.4093   30.4558    6.4236 H   0  0  0  0  0  0
    0.2390   29.6237    8.5898 H   0  0  0  0  0  0
   -1.8183   33.1737    8.6677 H   0  0  0  0  0  0
   -2.3924   30.1071    8.9760 H   0  0  0  0  0  0
   -3.5984   31.4520    9.0742 H   0  0  0  0  0  0
   -2.2716   32.4529   11.0215 H   0  0  0  0  0  0
   -1.0464   31.1210   10.8800 H   0  0  0  0  0  0
  1  2  1  0  0  0
  1 30  1  0  0  0
  1 31  1  0  0  0
  1 32  1  0  0  0
  2 27  1  0  0  0
  2  3  1  0  0  0
  2 16  1  0  0  0
  3  8  1  0  0  0
  3  4  2  0  0  0
  4  5  1  0  0  0
  4 33  1  0  0  0
  5  6  2  0  0  0
  5 34  1  0  0  0
  6  7  1  0  0  0
  6  9  1  0  0  0
  7  8  2  0  0  0
  7 35  1  0  0  0
  8 36  1  0  0  0
  9 13  1  0  0  0
  9 10  1  0  0  0
 10 11  1  0  0  0
 10 37  1  0  0  0
 10 38  1  0  0  0
 11 12  1  0  0  0
 11 39  1  0  0  0
 11 40  1  0  0  0
 12 28  1  0  0  0
 12 13  1  0  0  0
 12 15  1  0  0  0
 13 14  2  0  0  0
 15 41  1  0  0  0
 16 17  2  0  0  0
 16 18  1  0  0  0
 18 42  1  0  0  0
 18 19  1  0  0  0
 19 23  2  0  0  0
 19 20  1  0  0  0
 20 21  2  0  0  0
 20 43  1  0  0  0
 21 22  1  0  0  0
 21 24  1  0  0  0
 22 23  1  0  0  0
 22 29  1  0  0  0
 24 26  1  0  0  0
 24 25  1  0  0  0
 24 44  1  0  0  0
 25 26  1  0  0  0
 25 45  1  0  0  0
 25 46  1  0  0  0
 26 47  1  0  0  0
 26 48  1  0  0  0
M  END
> <s_m_entry_id>
34548

> <s_m_entry_name>
ligand_docking-pose.45

> <s_m_Source_Path>
/home/csk/Desktop/cluster/DUD-E-result/cdk2

> <s_m_Source_File>
ligand_docking-pose.sdf

> <i_m_Source_File_Index>
45

> <i_lp_mmshare_version>
53161

> <r_lp_tautomer_probability>
0.5

> <s_lp_Force_Field>
OPLS_2005

> <r_lp_Energy>
39.540646

> <b_lp_Chiralities_Consistent>
1

> <s_lp_Variant>
347765-2

> <s_i_glide_gridfile>
glide-grid_1h00

> <i_i_glide_lignum>
1297

> <i_i_glide_rotatable_bonds>
7

> <r_i_docking_score>
-8.56547926612339

> <r_i_glide_ligand_efficiency>
-0.329441510235515

> <r_i_glide_ligand_efficiency_sa>
-0.975969177782966

> <r_i_glide_ligand_efficiency_ln>
-2.01157470001921

> <r_i_glide_gscore>
-8.56547926612339

> <r_i_glide_lipo>
-2.76328038380823

> <r_i_glide_hbond>
-0.96

> <r_i_glide_metal>
0

> <r_i_glide_rewards>
-2.52882730979977

> <r_i_glide_evdw>
-28.4250583648682

> <r_i_glide_ecoul>
-9.77588939666748

> <r_i_glide_erotb>
0.638964660231924

> <r_i_glide_esite>
-0.0646999050037832

> <r_i_glide_emodel>
-55.0883697525546

> <r_i_glide_energy>
-38.2009477615356

> <r_i_glide_einternal>
7.44902515411377

> <i_i_glide_confnum>
76

> <i_i_glide_posenum>
393

> <r_i_glide_eff_state_penalty>
0

> <i_f3d_flags>
0

> <s_user_duplicate_titles>
347765

> <s_m_subgroup_title>
dock_pv

> <s_m_subgroupid>
dock_pv1

> <b_m_subgroup_collapsed>
0

$$$$
165755
                    3D
 Schrodinger Suite 2021-1.
 46 48  0  0  1  0            999 V2000
   -1.9990   25.7741   12.6109 C   0  0  0  0  0  0
   -0.9250   26.1755   11.5778 C   0  0  0  0  0  0
    0.4299   25.5556   11.9932 C   0  0  0  0  0  0
   -1.3134   25.6173   10.1900 C   0  0  0  0  0  0
   -0.8029   27.6988   11.5452 C   0  0  0  0  0  0
    0.1904   28.6109   11.8669 C   0  0  0  0  0  0
   -0.2362   29.8520   11.7546 N   0  0  0  0  0  0
   -1.4474   29.7258   11.2651 C   0  0  0  0  0  0
   -1.8645   28.4373   11.1309 O   0  0  0  0  0  0
   -2.3877   30.8397   10.8440 C   0  0  0  0  0  0
   -2.3314   31.4462    9.1145 S   0  0  0  0  0  0
   -0.6532   31.3219    8.5759 C   0  0  0  0  0  0
    0.1108   32.2838    7.9099 C   0  0  0  0  0  0
    1.2581   31.8893    7.3770 N   0  0  0  0  0  0
    1.5475   30.6563    7.7186 C   0  0  0  0  0  0
    0.2627   29.8520    8.5758 S   0  0  0  0  0  0
    2.7880   30.0913    7.4253 N   0  0  0  0  0  0
    3.3780   29.0468    8.0493 C   0  0  0  0  0  0
    2.8828   28.4035    8.9755 O   0  0  0  0  0  0
    4.7787   28.6577    7.5607 C   0  0  0  0  0  0
    4.7419   27.3696    6.7498 C   0  0  0  0  0  0
    4.5331   27.3972    5.3655 C   0  0  0  0  0  0
    4.4592   26.1965    4.6558 C   0  0  0  0  0  0
    4.5882   24.9978    5.3595 C   0  0  0  0  0  0
    4.7867   24.9464    6.7026 N   0  0  0  0  0  0
    4.8612   26.1230    7.3767 C   0  0  0  0  0  0
   -2.1034   24.6914   12.6879 H   0  0  0  0  0  0
   -2.9760   26.1813   12.3463 H   0  0  0  0  0  0
   -1.7597   26.1556   13.6037 H   0  0  0  0  0  0
    1.2205   25.8182   11.2882 H   0  0  0  0  0  0
    0.7498   25.9077   12.9747 H   0  0  0  0  0  0
    0.3803   24.4674   12.0388 H   0  0  0  0  0  0
   -0.6737   26.0068    9.3957 H   0  0  0  0  0  0
   -1.2351   24.5310   10.1753 H   0  0  0  0  0  0
   -2.3414   25.8525    9.9230 H   0  0  0  0  0  0
    1.1969   28.3793   12.1781 H   0  0  0  0  0  0
   -3.4028   30.4661   10.9678 H   0  0  0  0  0  0
   -2.3416   31.7023   11.5055 H   0  0  0  0  0  0
   -0.2178   33.2976    7.7274 H   0  0  0  0  0  0
    3.3749   30.6110    6.7793 H   0  0  0  0  0  0
    5.2144   29.4519    6.9565 H   0  0  0  0  0  0
    5.4303   28.5408    8.4271 H   0  0  0  0  0  0
    4.4281   28.3385    4.8449 H   0  0  0  0  0  0
    4.3043   26.1913    3.5858 H   0  0  0  0  0  0
    4.5331   24.0500    4.8437 H   0  0  0  0  0  0
    4.9978   26.0530    8.4478 H   0  0  0  0  0  0
  1  2  1  0  0  0
  1 27  1  0  0  0
  1 28  1  0  0  0
  1 29  1  0  0  0
  2  3  1  0  0  0
  2  4  1  0  0  0
  2  5  1  0  0  0
  3 30  1  0  0  0
  3 31  1  0  0  0
  3 32  1  0  0  0
  4 33  1  0  0  0
  4 34  1  0  0  0
  4 35  1  0  0  0
  5  9  1  0  0  0
  5  6  2  0  0  0
  6  7  1  0  0  0
  6 36  1  0  0  0
  7  8  2  0  0  0
  8  9  1  0  0  0
  8 10  1  0  0  0
 10 11  1  0  0  0
 10 37  1  0  0  0
 10 38  1  0  0  0
 11 12  1  0  0  0
 12 16  1  0  0  0
 12 13  2  0  0  0
 13 14  1  0  0  0
 13 39  1  0  0  0
 14 15  2  0  0  0
 15 16  1  0  0  0
 15 17  1  0  0  0
 17 18  1  0  0  0
 17 40  1  0  0  0
 18 19  2  0  0  0
 18 20  1  0  0  0
 20 21  1  0  0  0
 20 41  1  0  0  0
 20 42  1  0  0  0
 21 26  1  0  0  0
 21 22  2  0  0  0
 22 23  1  0  0  0
 22 43  1  0  0  0
 23 24  2  0  0  0
 23 44  1  0  0  0
 24 25  1  0  0  0
 24 45  1  0  0  0
 25 26  2  0  0  0
 26 46  1  0  0  0
M  END
> <s_m_entry_id>
34551

> <s_m_entry_name>
ligand_docking-pose.48

> <s_m_Source_Path>
/home/csk/Desktop/cluster/DUD-E-result/cdk2

> <s_m_Source_File>
ligand_docking-pose.sdf

> <i_m_Source_File_Index>
48

> <i_lp_mmshare_version>
53161

> <r_lp_tautomer_probability>
0.999000488399163

> <s_lp_Force_Field>
OPLS_2005

> <r_lp_Energy>
1.003546

> <b_lp_Chiralities_Consistent>
1

> <s_lp_Variant>
165755-1

> <s_i_glide_gridfile>
glide-grid_1h00

> <i_i_glide_lignum>
1153

> <i_i_glide_rotatable_bonds>
8

> <r_i_docking_score>
-8.52084534562433

> <r_i_glide_ligand_efficiency>
-0.327724820985551

> <r_i_glide_ligand_efficiency_sa>
-0.970883492634794

> <r_i_glide_ligand_efficiency_ln>
-2.00109257024584

> <r_i_glide_gscore>
-8.52084534562433

> <r_i_glide_lipo>
-3.37956209319076

> <r_i_glide_hbond>
-0.32

> <r_i_glide_metal>
0

> <r_i_glide_rewards>
-2.37422349023043

> <r_i_glide_evdw>
-43.885196685791

> <r_i_glide_ecoul>
-6.84893083572388

> <r_i_glide_erotb>
0.774539697444994

> <r_i_glide_esite>
0

> <r_i_glide_emodel>
-74.2876374517613

> <r_i_glide_energy>
-50.7341275215149

> <r_i_glide_einternal>
2.66240930557251

> <i_i_glide_confnum>
8

> <i_i_glide_posenum>
10

> <r_i_glide_eff_state_penalty>
0

> <i_f3d_flags>
0

> <s_user_duplicate_titles>
165755

> <s_m_subgroup_title>
dock_pv

> <s_m_subgroupid>
dock_pv1

> <b_m_subgroup_collapsed>
0

$$$$
248687
                    3D
 Schrodinger Suite 2021-1.
 52 56  0  0  1  0            999 V2000
    7.0299   25.3673    5.7480 C   0  0  0  0  0  0
    6.2238   25.5097    6.9130 O   0  0  0  0  0  0
    5.3253   26.5575    6.9812 C   0  0  0  0  0  0
    4.6291   26.7043    8.1760 C   0  0  0  0  0  0
    3.7362   27.7535    8.3704 C   0  0  0  0  0  0
    3.4945   28.6520    7.3319 C   0  0  0  0  0  0
    4.1761   28.5025    6.1174 C   0  0  0  0  0  0
    5.0820   27.4618    5.9402 C   0  0  0  0  0  0
    2.4581   29.7071    7.4852 C   0  0  0  0  0  0
    1.3252   29.8749    8.2699 C   0  0  0  0  0  0
    0.8099   31.1109    7.9153 C   0  0  0  0  0  0
    1.4914   31.7094    6.9762 N   0  0  0  0  0  0
    2.4559   30.8333    6.7221 N   0  0  0  0  0  0
   -0.3418   31.4418    8.7285 C   0  0  0  0  0  0
   -1.1218   32.5899    8.7991 C   0  0  0  0  0  0
   -2.1365   32.6514    9.7425 C   0  0  0  0  0  0
   -2.3739   31.5665   10.5759 C   0  0  0  0  0  0
   -1.5865   30.4108   10.5290 C   0  0  0  0  0  0
   -0.5406   30.3536    9.5839 C   0  0  0  0  0  0
    0.4737   29.2913    9.2868 C   0  0  0  0  0  0
    0.5725   28.1707    9.7768 O   0  0  0  0  0  0
   -1.9251   29.3990   11.4452 N   0  0  0  0  0  0
   -1.0634   28.7795   12.2714 C   0  0  0  0  0  0
    0.0622   29.2001   12.5228 O   0  0  0  0  0  0
   -1.5595   27.6429   12.7858 N   0  0  0  0  0  0
   -0.7871   26.6110   13.4831 C   0  0  0  0  0  0
   -0.2215   25.5345   12.5634 C   0  0  0  0  0  0
    0.8954   25.8173   11.7744 C   0  0  0  0  0  0
    1.4636   24.8262   10.9772 C   0  0  0  0  0  0
    0.9206   23.5440   10.9855 C   0  0  0  0  0  0
   -0.1878   23.2472   11.7781 C   0  0  0  0  0  0
   -0.7604   24.2438   12.5666 C   0  0  0  0  0  0
    3.2196   31.0571    6.0940 H   0  0  0  0  0  0
    7.7026   24.5195    5.8762 H   0  0  0  0  0  0
    6.4243   25.1797    4.8609 H   0  0  0  0  0  0
    7.6480   26.2502    5.5776 H   0  0  0  0  0  0
    4.7905   25.9980    8.9759 H   0  0  0  0  0  0
    3.2164   27.8411    9.3123 H   0  0  0  0  0  0
    4.0014   29.1816    5.2969 H   0  0  0  0  0  0
    5.5959   27.3846    4.9958 H   0  0  0  0  0  0
   -0.9308   33.4390    8.1609 H   0  0  0  0  0  0
   -2.7413   33.5386    9.8384 H   0  0  0  0  0  0
   -3.1446   31.6769   11.3140 H   0  0  0  0  0  0
   -2.8648   29.4618   11.8124 H   0  0  0  0  0  0
   -2.5322   27.4385   12.6199 H   0  0  0  0  0  0
   -1.4190   26.1573   14.2465 H   0  0  0  0  0  0
    0.0535   27.0571   14.0180 H   0  0  0  0  0  0
    1.3295   26.8069   11.7760 H   0  0  0  0  0  0
    2.3210   25.0555   10.3605 H   0  0  0  0  0  0
    1.3593   22.7755   10.3670 H   0  0  0  0  0  0
   -0.5968   22.2471   11.7819 H   0  0  0  0  0  0
   -1.6157   24.0077   13.1822 H   0  0  0  0  0  0
  1  2  1  0  0  0
  1 34  1  0  0  0
  1 35  1  0  0  0
  1 36  1  0  0  0
  2  3  1  0  0  0
  3  8  1  0  0  0
  3  4  2  0  0  0
  4  5  1  0  0  0
  4 37  1  0  0  0
  5  6  2  0  0  0
  5 38  1  0  0  0
  6  7  1  0  0  0
  6  9  1  0  0  0
  7  8  2  0  0  0
  7 39  1  0  0  0
  8 40  1  0  0  0
  9 13  1  0  0  0
  9 10  2  0  0  0
 10 20  1  0  0  0
 10 11  1  0  0  0
 11 12  2  0  0  0
 11 14  1  0  0  0
 12 13  1  0  0  0
 13 33  1  0  0  0
 14 19  2  0  0  0
 14 15  1  0  0  0
 15 16  2  0  0  0
 15 41  1  0  0  0
 16 17  1  0  0  0
 16 42  1  0  0  0
 17 18  2  0  0  0
 17 43  1  0  0  0
 18 19  1  0  0  0
 18 22  1  0  0  0
 19 20  1  0  0  0
 20 21  2  0  0  0
 22 23  1  0  0  0
 22 44  1  0  0  0
 23 24  2  0  0  0
 23 25  1  0  0  0
 25 26  1  0  0  0
 25 45  1  0  0  0
 26 27  1  0  0  0
 26 46  1  0  0  0
 26 47  1  0  0  0
 27 32  1  0  0  0
 27 28  2  0  0  0
 28 29  1  0  0  0
 28 48  1  0  0  0
 29 30  2  0  0  0
 29 49  1  0  0  0
 30 31  1  0  0  0
 30 50  1  0  0  0
 31 32  2  0  0  0
 31 51  1  0  0  0
 32 52  1  0  0  0
M  END
> <s_m_entry_id>
34552

> <s_m_entry_name>
ligand_docking-pose.49

> <s_m_Source_Path>
/home/csk/Desktop/cluster/DUD-E-result/cdk2

> <s_m_Source_File>
ligand_docking-pose.sdf

> <i_m_Source_File_Index>
49

> <i_lp_mmshare_version>
53161

> <r_lp_tautomer_probability>
1

> <s_lp_Force_Field>
OPLS_2005

> <r_lp_Energy>
63.233479

> <b_lp_Chiralities_Consistent>
1

> <s_lp_Variant>
248687-1

> <s_i_glide_gridfile>
glide-grid_1h00

> <i_i_glide_lignum>
1635

> <i_i_glide_rotatable_bonds>
7

> <r_i_docking_score>
-8.5064814869207

> <r_i_glide_ligand_efficiency>
-0.265827546466272

> <r_i_glide_ligand_efficiency_sa>
-0.843949852830402

> <r_i_glide_ligand_efficiency_ln>
-1.90483308284928

> <r_i_glide_gscore>
-8.5064814869207

> <r_i_glide_lipo>
-3.19817025976548

> <r_i_glide_hbond>
-0.387747051903408

> <r_i_glide_metal>
0

> <r_i_glide_rewards>
-1.93751645522077

> <r_i_glide_evdw>
-39.184440612793

> <r_i_glide_ecoul>
-10.0869083404541

> <r_i_glide_erotb>
0.550304487563507

> <r_i_glide_esite>
-0.0610939258867825

> <r_i_glide_emodel>
-74.3076374677119

> <r_i_glide_energy>
-49.2713489532471

> <r_i_glide_einternal>
6.08216094970703

> <i_i_glide_confnum>
9

> <i_i_glide_posenum>
360

> <r_i_glide_eff_state_penalty>
0

> <i_f3d_flags>
0

> <s_user_duplicate_titles>
248687

> <s_m_subgroup_title>
dock_pv

> <s_m_subgroupid>
dock_pv1

> <b_m_subgroup_collapsed>
0

$$$$
248582
                    3D
 Schrodinger Suite 2021-1.
 58 62  0  0  1  0            999 V2000
    6.8549   25.4179    5.5619 C   0  0  0  0  0  0
    6.1647   25.5885    6.7956 O   0  0  0  0  0  0
    5.2986   26.6547    6.9411 C   0  0  0  0  0  0
    5.0251   27.5993    5.9423 C   0  0  0  0  0  0
    4.1425   28.6467    6.1881 C   0  0  0  0  0  0
    3.5098   28.7503    7.4305 C   0  0  0  0  0  0
    3.7890   27.8227    8.4329 C   0  0  0  0  0  0
    4.6675   26.7770    8.1759 C   0  0  0  0  0  0
    2.4761   29.7939    7.6464 C   0  0  0  0  0  0
    1.3319   29.8521    8.4239 C   0  0  0  0  0  0
    0.7522   31.0662    8.1262 C   0  0  0  0  0  0
    1.4133   31.7641    7.2399 N   0  0  0  0  0  0
    2.4567   30.9821    6.9761 N   0  0  0  0  0  0
   -0.4482   31.2553    8.9014 C   0  0  0  0  0  0
   -1.3241   32.3263    8.9699 C   0  0  0  0  0  0
   -2.4597   32.2036    9.7481 C   0  0  0  0  0  0
   -2.7125   31.0203   10.4338 C   0  0  0  0  0  0
   -1.7705   29.9874   10.4806 C   0  0  0  0  0  0
   -0.6230   30.0965    9.6656 C   0  0  0  0  0  0
    0.5005   29.1471    9.3760 C   0  0  0  0  0  0
    0.6741   28.0111    9.8022 O   0  0  0  0  0  0
   -2.1101   28.9086   11.3154 N   0  0  0  0  0  0
   -1.3084   28.2492   12.1759 C   0  0  0  0  0  0
   -0.1827   28.6369   12.4962 O   0  0  0  0  0  0
   -1.9256   26.9762   12.8087 C   0  0  0  0  0  0
   -0.9424   25.8936   13.0327 N   0  0  0  0  0  0
   -1.5729   24.7775   13.7445 C   0  0  0  0  0  0
   -0.5614   23.6626   14.1097 C   0  0  0  0  0  0
    0.2651   23.3105   12.9283 N   0  0  0  0  0  0
    0.7831   24.3913   12.0678 C   0  0  0  0  0  0
   -0.3565   25.3872   11.7849 C   0  0  0  0  0  0
    0.7884   22.0685   12.7646 C   0  0  0  0  0  0
    1.8975   21.8508   12.2767 O   0  0  0  0  0  0
    0.0078   21.0518   13.1325 N   0  0  0  0  0  0
    3.2005   31.2670    6.3452 H   0  0  0  0  0  0
    7.4798   24.5265    5.6217 H   0  0  0  0  0  0
    6.1636   25.2803    4.7293 H   0  0  0  0  0  0
    7.5103   26.2634    5.3488 H   0  0  0  0  0  0
    5.4994   27.5437    4.9748 H   0  0  0  0  0  0
    3.9380   29.3543    5.3974 H   0  0  0  0  0  0
    3.3087   27.8852    9.3993 H   0  0  0  0  0  0
    4.8562   26.0500    8.9506 H   0  0  0  0  0  0
   -1.1448   33.2324    8.4089 H   0  0  0  0  0  0
   -3.1421   33.0320    9.8074 H   0  0  0  0  0  0
   -3.6383   30.9454   10.9758 H   0  0  0  0  0  0
   -3.0947   28.8209   11.5155 H   0  0  0  0  0  0
   -2.7599   26.6145   12.2029 H   0  0  0  0  0  0
   -2.3423   27.2872   13.7673 H   0  0  0  0  0  0
   -2.0622   25.1401   14.6496 H   0  0  0  0  0  0
   -2.3445   24.3619   13.0926 H   0  0  0  0  0  0
   -1.1242   22.8205   14.5131 H   0  0  0  0  0  0
    0.0868   24.0785   14.8799 H   0  0  0  0  0  0
    1.5796   24.9394   12.5720 H   0  0  0  0  0  0
    1.1389   24.0207   11.1044 H   0  0  0  0  0  0
    0.0423   26.1949   11.1798 H   0  0  0  0  0  0
   -1.1403   24.9007   11.1998 H   0  0  0  0  0  0
    0.3206   20.1047   12.9727 H   0  0  0  0  0  0
   -0.9382   21.2023   13.4410 H   0  0  0  0  0  0
  1  2  1  0  0  0
  1 36  1  0  0  0
  1 37  1  0  0  0
  1 38  1  0  0  0
  2  3  1  0  0  0
  3  8  1  0  0  0
  3  4  2  0  0  0
  4  5  1  0  0  0
  4 39  1  0  0  0
  5  6  2  0  0  0
  5 40  1  0  0  0
  6  7  1  0  0  0
  6  9  1  0  0  0
  7  8  2  0  0  0
  7 41  1  0  0  0
  8 42  1  0  0  0
  9 13  1  0  0  0
  9 10  2  0  0  0
 10 20  1  0  0  0
 10 11  1  0  0  0
 11 12  2  0  0  0
 11 14  1  0  0  0
 12 13  1  0  0  0
 13 35  1  0  0  0
 14 19  2  0  0  0
 14 15  1  0  0  0
 15 16  2  0  0  0
 15 43  1  0  0  0
 16 17  1  0  0  0
 16 44  1  0  0  0
 17 18  2  0  0  0
 17 45  1  0  0  0
 18 19  1  0  0  0
 18 22  1  0  0  0
 19 20  1  0  0  0
 20 21  2  0  0  0
 22 23  1  0  0  0
 22 46  1  0  0  0
 23 24  2  0  0  0
 23 25  1  0  0  0
 25 26  1  0  0  0
 25 47  1  0  0  0
 25 48  1  0  0  0
 26 31  1  0  0  0
 26 27  1  0  0  0
 27 28  1  0  0  0
 27 49  1  0  0  0
 27 50  1  0  0  0
 28 29  1  0  0  0
 28 51  1  0  0  0
 28 52  1  0  0  0
 29 30  1  0  0  0
 29 32  1  0  0  0
 30 31  1  0  0  0
 30 53  1  0  0  0
 30 54  1  0  0  0
 31 55  1  0  0  0
 31 56  1  0  0  0
 32 33  2  0  0  0
 32 34  1  0  0  0
 34 57  1  0  0  0
 34 58  1  0  0  0
M  END
> <s_m_entry_id>
34554

> <s_m_entry_name>
ligand_docking-pose.51

> <s_m_Source_Path>
/home/csk/Desktop/cluster/DUD-E-result/cdk2

> <s_m_Source_File>
ligand_docking-pose.sdf

> <i_m_Source_File_Index>
51

> <i_lp_mmshare_version>
53161

> <r_lp_tautomer_probability>
1

> <s_lp_Force_Field>
OPLS_2005

> <r_lp_Energy>
92.356621

> <b_lp_Chiralities_Consistent>
1

> <s_lp_Variant>
248582-1

> <s_i_glide_gridfile>
glide-grid_1h00

> <i_i_glide_lignum>
1630

> <i_i_glide_rotatable_bonds>
7

> <r_i_docking_score>
-8.49805555351912

> <r_i_glide_ligand_efficiency>
-0.249942810397621

> <r_i_glide_ligand_efficiency_sa>
-0.809717677256809

> <r_i_glide_ligand_efficiency_ln>
-1.87745883415678

> <r_i_glide_gscore>
-8.49805555351912

> <r_i_glide_lipo>
-2.93374917906126

> <r_i_glide_hbond>
-0.32

> <r_i_glide_metal>
0

> <r_i_glide_rewards>
-1.99738359652539

> <r_i_glide_evdw>
-41.5049133300781

> <r_i_glide_ecoul>
-10.3851203918457

> <r_i_glide_erotb>
0.474631252874887

> <r_i_glide_esite>
-0.0885403055266042

> <r_i_glide_emodel>
-76.1027864322964

> <r_i_glide_energy>
-51.8900337219238

> <r_i_glide_einternal>
7.79048013687134

> <i_i_glide_confnum>
12

> <i_i_glide_posenum>
200

> <r_i_glide_eff_state_penalty>
0

> <i_f3d_flags>
0

> <s_user_duplicate_titles>
248582

> <s_m_subgroup_title>
dock_pv

> <s_m_subgroupid>
dock_pv1

> <b_m_subgroup_collapsed>
0

$$$$
320066
                    3D
 Schrodinger Suite 2021-1.
 54 58  0  0  1  0            999 V2000
    3.7425   28.3753    5.5380 C   0  0  0  0  0  0
    4.6615   27.3402    5.6208 C   0  0  0  0  0  0
    5.1874   26.9588    6.8561 C   0  0  0  0  0  0
    4.7598   27.6310    8.0088 C   0  0  0  0  0  0
    3.8346   28.6721    7.9226 C   0  0  0  0  0  0
    3.3226   29.0520    6.6774 C   0  0  0  0  0  0
    2.4604   30.1483    6.5061 N   0  0  0  0  0  0
    1.5466   30.6909    7.3796 C   0  0  0  0  0  0
    1.2554   32.0026    7.2232 N   0  0  0  0  0  0
    0.2156   32.4621    7.9732 C   0  0  0  0  0  0
   -0.4835   31.6344    8.8589 C   0  0  0  0  0  0
   -1.6190   32.0588    9.6665 C   0  0  0  0  0  0
   -2.1284   31.2072   10.5756 C   0  0  0  0  0  0
   -1.5608   29.8990   10.8910 C   0  0  0  0  0  0
   -1.9420   29.2759   11.8725 O   0  0  0  0  0  0
   -0.5656   29.4683   10.0468 N   0  0  0  0  0  0
   -0.0207   30.3168    9.0272 C   0  0  0  0  0  0
    0.9927   29.8520    8.2728 N   0  0  0  0  0  0
    0.0329   28.0923   10.2389 C   0  0  0  0  0  0
    0.4580   27.6992   11.6697 C   0  0  0  0  0  0
   -0.5215   26.6182   12.1700 C   0  0  0  0  0  0
   -1.5266   26.3662   11.0359 C   0  0  0  0  0  0
   -0.8615   26.9302    9.7777 C   0  0  0  0  0  0
    6.1494   25.9594    6.8941 N   0  0  0  0  0  0
    6.0435   24.7016    6.1352 C   0  0  0  0  0  0
    7.4166   24.3071    5.5455 C   0  0  0  0  0  0
    8.3958   24.2318    6.5759 O   0  0  0  0  0  0
    8.5169   25.4532    7.3008 C   0  0  0  0  0  0
    7.1602   25.8137    7.9467 C   0  0  0  0  0  0
    3.3669   28.6520    4.5760 H   0  0  0  0  0  0
    4.9883   26.8623    4.7093 H   0  0  0  0  0  0
    5.1481   27.3539    8.9757 H   0  0  0  0  0  0
    3.5374   29.1890    8.8220 H   0  0  0  0  0  0
    2.8960   30.8561    5.9284 H   0  0  0  0  0  0
   -0.0673   33.4937    7.8311 H   0  0  0  0  0  0
   -2.0880   33.0194    9.5033 H   0  0  0  0  0  0
   -2.9946   31.5243   11.1323 H   0  0  0  0  0  0
    0.9397   28.0282    9.6416 H   0  0  0  0  0  0
    0.5585   28.5488   12.3483 H   0  0  0  0  0  0
    1.4458   27.2380   11.6176 H   0  0  0  0  0  0
   -1.0344   26.9435   13.0784 H   0  0  0  0  0  0
    0.0173   25.7017   12.4185 H   0  0  0  0  0  0
   -2.4634   26.8843   11.2410 H   0  0  0  0  0  0
   -1.7734   25.3084   10.9316 H   0  0  0  0  0  0
   -0.2385   26.1328    9.3765 H   0  0  0  0  0  0
   -1.5423   27.2038    8.9760 H   0  0  0  0  0  0
    5.6575   23.9131    6.7828 H   0  0  0  0  0  0
    5.3298   24.7914    5.3162 H   0  0  0  0  0  0
    7.7279   25.0198    4.7801 H   0  0  0  0  0  0
    7.3479   23.3353    5.0560 H   0  0  0  0  0  0
    8.8638   26.2550    6.6458 H   0  0  0  0  0  0
    9.2795   25.3390    8.0692 H   0  0  0  0  0  0
    7.2643   26.7243    8.5275 H   0  0  0  0  0  0
    6.8452   25.0507    8.6567 H   0  0  0  0  0  0
  1  6  1  0  0  0
  1  2  2  0  0  0
  1 30  1  0  0  0
  2  3  1  0  0  0
  2 31  1  0  0  0
  3  4  2  0  0  0
  3 24  1  0  0  0
  4  5  1  0  0  0
  4 32  1  0  0  0
  5  6  2  0  0  0
  5 33  1  0  0  0
  6  7  1  0  0  0
  7  8  1  0  0  0
  7 34  1  0  0  0
  8 18  1  0  0  0
  8  9  2  0  0  0
  9 10  1  0  0  0
 10 11  2  0  0  0
 10 35  1  0  0  0
 11 17  1  0  0  0
 11 12  1  0  0  0
 12 13  2  0  0  0
 12 36  1  0  0  0
 13 14  1  0  0  0
 13 37  1  0  0  0
 14 15  2  0  0  0
 14 16  1  0  0  0
 16 17  1  0  0  0
 16 19  1  0  0  0
 17 18  2  0  0  0
 19 23  1  0  0  0
 19 20  1  0  0  0
 19 38  1  0  0  0
 20 21  1  0  0  0
 20 39  1  0  0  0
 20 40  1  0  0  0
 21 22  1  0  0  0
 21 41  1  0  0  0
 21 42  1  0  0  0
 22 23  1  0  0  0
 22 43  1  0  0  0
 22 44  1  0  0  0
 23 45  1  0  0  0
 23 46  1  0  0  0
 24 29  1  0  0  0
 24 25  1  0  0  0
 25 26  1  0  0  0
 25 47  1  0  0  0
 25 48  1  0  0  0
 26 27  1  0  0  0
 26 49  1  0  0  0
 26 50  1  0  0  0
 27 28  1  0  0  0
 28 29  1  0  0  0
 28 51  1  0  0  0
 28 52  1  0  0  0
 29 53  1  0  0  0
 29 54  1  0  0  0
M  END
> <s_m_entry_id>
34555

> <s_m_entry_name>
ligand_docking-pose.52

> <s_m_Source_Path>
/home/csk/Desktop/cluster/DUD-E-result/cdk2

> <s_m_Source_File>
ligand_docking-pose.sdf

> <i_m_Source_File_Index>
52

> <i_lp_mmshare_version>
53161

> <r_lp_tautomer_probability>
1

> <s_lp_Force_Field>
OPLS_2005

> <r_lp_Energy>
54.855531

> <b_lp_Chiralities_Consistent>
1

> <s_lp_Variant>
320066-1

> <s_i_glide_gridfile>
glide-grid_1h00

> <i_i_glide_lignum>
434

> <i_i_glide_rotatable_bonds>
4

> <r_i_docking_score>
-8.49336280613161

> <r_i_glide_ligand_efficiency>
-0.29287457952178

> <r_i_glide_ligand_efficiency_sa>
-0.899803497470463

> <r_i_glide_ligand_efficiency_ln>
-1.94476470950627

> <r_i_glide_gscore>
-8.49336280613161

> <r_i_glide_lipo>
-3.24609129836868

> <r_i_glide_hbond>
-0.182198259584151

> <r_i_glide_metal>
0

> <r_i_glide_rewards>
-3.15264603250146

> <r_i_glide_evdw>
-39.151180267334

> <r_i_glide_ecoul>
-3.09495878219604

> <r_i_glide_erotb>
0.50937561501879

> <r_i_glide_esite>
0

> <r_i_glide_emodel>
-62.3875994518046

> <r_i_glide_energy>
-42.24613904953

> <r_i_glide_einternal>
2.27030038833618

> <i_i_glide_confnum>
100

> <i_i_glide_posenum>
165

> <r_i_glide_eff_state_penalty>
0

> <i_f3d_flags>
0

> <s_user_duplicate_titles>
320066

> <s_m_subgroup_title>
dock_pv

> <s_m_subgroupid>
dock_pv1

> <b_m_subgroup_collapsed>
0

$$$$
286770
                    3D
 Schrodinger Suite 2021-1.
 39 41  0  0  1  0            999 V2000
    5.2584   28.7765    7.7115 C   0  0  0  0  0  0
    3.9956   28.6832    6.8376 C   0  0  1  0  0  0
    2.8581   29.4521    7.3674 C   0  0  0  0  0  0
    1.8761   30.0322    7.8056 C   0  0  0  0  0  0
    0.6869   30.6517    8.3843 C   0  0  0  0  0  0
    0.3535   31.9629    8.0015 C   0  0  0  0  0  0
   -0.7420   32.6099    8.5761 C   0  0  0  0  0  0
   -1.4995   31.9780    9.5636 C   0  0  0  0  0  0
   -1.1364   30.6938    9.9681 C   0  0  0  0  0  0
   -0.0746   30.0212    9.3936 C   0  0  0  0  0  0
    0.0082   28.7259   10.0931 C   0  0  0  0  0  0
    0.8735   27.6999    9.9086 C   0  0  0  0  0  0
    1.0368   26.4207   10.5782 C   0  0  0  0  0  0
    0.1958   25.3547   10.9387 C   0  0  0  0  0  0
    0.9735   24.4167   11.6262 C   0  0  0  0  0  0
    2.2740   24.8813   11.6498 C   0  0  0  0  0  0
    2.3025   26.0703   10.9762 N   0  0  0  0  0  0
   -1.1443   25.2004   10.7075 O   0  0  0  0  0  0
   -1.5419   25.4789    9.3772 C   0  0  0  0  0  0
   -1.0282   28.7494   11.1191 C   0  0  0  0  0  0
   -1.3012   27.9112   11.9740 O   0  0  0  0  0  0
   -1.6716   29.9166   10.9716 N   0  0  0  0  0  0
    1.1069   32.6391    7.0988 F   0  0  0  0  0  0
    4.3101   29.0520    5.5151 O   0  0  0  0  0  0
    3.6631   27.6460    6.8127 H   0  0  0  0  0  0
    3.1281   26.6468   10.8630 H   0  0  0  0  0  0
    5.0648   28.4367    8.7298 H   0  0  0  0  0  0
    5.6536   29.7928    7.7759 H   0  0  0  0  0  0
    6.0572   28.1492    7.3102 H   0  0  0  0  0  0
   -0.9849   33.6169    8.2667 H   0  0  0  0  0  0
   -2.3293   32.4993   10.0212 H   0  0  0  0  0  0
    1.6143   27.8081    9.1354 H   0  0  0  0  0  0
    0.6080   23.4990   12.0614 H   0  0  0  0  0  0
    3.1752   24.4986   12.0997 H   0  0  0  0  0  0
   -2.5307   25.0520    9.2122 H   0  0  0  0  0  0
   -1.5879   26.5514    9.1992 H   0  0  0  0  0  0
   -0.8688   25.0520    8.6367 H   0  0  0  0  0  0
   -2.4335   30.1937   11.5794 H   0  0  0  0  0  0
    4.5351   29.9995    5.5348 H   0  0  0  0  0  0
  1  2  1  0  0  0
  1 27  1  0  0  0
  1 28  1  0  0  0
  1 29  1  0  0  0
  2 25  1  0  0  0
  2  3  1  0  0  0
  2 24  1  0  0  0
  3  4  3  0  0  0
  4  5  1  0  0  0
  5 10  1  0  0  0
  5  6  2  0  0  0
  6  7  1  0  0  0
  6 23  1  0  0  0
  7  8  2  0  0  0
  7 30  1  0  0  0
  8  9  1  0  0  0
  8 31  1  0  0  0
  9 22  1  0  0  0
  9 10  2  0  0  0
 10 11  1  0  0  0
 11 12  2  0  0  0
 11 20  1  0  0  0
 12 13  1  0  0  0
 12 32  1  0  0  0
 13 17  1  0  0  0
 13 14  2  0  0  0
 14 15  1  0  0  0
 14 18  1  0  0  0
 15 16  2  0  0  0
 15 33  1  0  0  0
 16 17  1  0  0  0
 16 34  1  0  0  0
 17 26  1  0  0  0
 18 19  1  0  0  0
 19 35  1  0  0  0
 19 36  1  0  0  0
 19 37  1  0  0  0
 20 21  2  0  0  0
 20 22  1  0  0  0
 22 38  1  0  0  0
 24 39  1  0  0  0
M  END
> <s_m_entry_id>
34557

> <s_m_entry_name>
ligand_docking-pose.54

> <s_m_Source_Path>
/home/csk/Desktop/cluster/DUD-E-result/cdk2

> <s_m_Source_File>
ligand_docking-pose.sdf

> <i_m_Source_File_Index>
54

> <i_lp_mmshare_version>
53161

> <r_lp_tautomer_probability>
1

> <s_lp_Force_Field>
OPLS_2005

> <r_lp_Energy>
31.437289

> <b_lp_Chiralities_Consistent>
1

> <s_lp_Variant>
286770-1

> <s_i_glide_gridfile>
glide-grid_1h00

> <i_i_glide_lignum>
1308

> <i_i_glide_rotatable_bonds>
5

> <r_i_docking_score>
-8.48567865614196

> <r_i_glide_ligand_efficiency>
-0.353569944005915

> <r_i_glide_ligand_efficiency_sa>
-1.01987219855189

> <r_i_glide_ligand_efficiency_ln>
-2.0310122848358

> <r_i_glide_gscore>
-8.48567865614196

> <r_i_glide_lipo>
-3.33900523278859

> <r_i_glide_hbond>
-0.375647708415107

> <r_i_glide_metal>
0

> <r_i_glide_rewards>
-2.31769745689641

> <r_i_glide_evdw>
-34.4839286804199

> <r_i_glide_ecoul>
-7.8148832321167

> <r_i_glide_erotb>
0.528328377646983

> <r_i_glide_esite>
-0.0852277168503462

> <r_i_glide_emodel>
-59.1550137254389

> <r_i_glide_energy>
-42.2988119125366

> <r_i_glide_einternal>
6.07019710540771

> <i_i_glide_confnum>
3

> <i_i_glide_posenum>
325

> <r_i_glide_eff_state_penalty>
0

> <i_f3d_flags>
0

> <s_user_duplicate_titles>
286770

> <s_m_subgroup_title>
dock_pv

> <s_m_subgroupid>
dock_pv1

> <b_m_subgroup_collapsed>
0

$$$$
310557
                    3D
 Schrodinger Suite 2021-1.
 52 56  0  0  1  0            999 V2000
    7.1762   25.3425    5.7409 C   0  0  0  0  0  0
    6.3479   25.4357    6.8949 O   0  0  0  0  0  0
    5.4595   26.4887    6.9970 C   0  0  0  0  0  0
    4.7281   26.5779    8.1760 C   0  0  0  0  0  0
    3.8446   27.6292    8.4043 C   0  0  0  0  0  0
    3.6330   28.5852    7.4107 C   0  0  0  0  0  0
    4.3498   28.4883    6.2105 C   0  0  0  0  0  0
    5.2556   27.4524    6.0055 C   0  0  0  0  0  0
    2.5660   29.6245    7.5700 C   0  0  0  0  0  0
    1.4711   29.8142    8.4116 C   0  0  0  0  0  0
    0.8476   30.9631    7.9655 C   0  0  0  0  0  0
    1.4659   31.5379    6.9758 N   0  0  0  0  0  0
    2.4577   30.6945    6.7271 N   0  0  0  0  0  0
   -0.3194   31.2659    8.7613 C   0  0  0  0  0  0
   -1.1484   32.3780    8.7582 C   0  0  0  0  0  0
   -2.1376   32.4732    9.7184 C   0  0  0  0  0  0
   -2.3277   31.4339   10.6202 C   0  0  0  0  0  0
   -1.5114   30.2915   10.6266 C   0  0  0  0  0  0
   -0.4426   30.2340    9.6993 C   0  0  0  0  0  0
    0.7289   29.2954    9.5447 C   0  0  0  0  0  0
    1.0290   28.3250   10.2338 O   0  0  0  0  0  0
   -1.8175   29.3604   11.6417 N   0  0  0  0  0  0
   -1.7344   28.0160   11.5944 C   0  0  0  0  0  0
   -1.5417   27.3751   10.5589 O   0  0  0  0  0  0
   -1.9079   27.4519   12.8084 N   0  0  0  0  0  0
   -1.7760   26.0657   12.8496 N   0  0  0  0  0  0
   -0.9335   25.5145   13.7475 C   0  0  0  0  0  0
   -0.3438   26.1341   14.6385 O   0  0  0  0  0  0
   -0.7639   24.0219   13.6085 C   0  0  0  0  0  0
   -0.4895   23.2161   14.7225 C   0  0  0  0  0  0
   -0.3471   21.8350   14.5646 C   0  0  0  0  0  0
   -0.4719   21.2935   13.2834 C   0  0  0  0  0  0
   -0.7103   22.0506   12.1835 N   0  0  0  0  0  0
   -0.8420   23.3895   12.3561 C   0  0  0  0  0  0
    3.1801   30.9307    6.0546 H   0  0  0  0  0  0
    7.8398   24.4842    5.8442 H   0  0  0  0  0  0
    6.5867   25.1994    4.8350 H   0  0  0  0  0  0
    7.8024   26.2291    5.6249 H   0  0  0  0  0  0
    4.8579   25.8250    8.9372 H   0  0  0  0  0  0
    3.3032   27.6637    9.3373 H   0  0  0  0  0  0
    4.2018   29.2017    5.4143 H   0  0  0  0  0  0
    5.7925   27.4209    5.0701 H   0  0  0  0  0  0
   -0.9893   33.1909    8.0656 H   0  0  0  0  0  0
   -2.7423   33.3631    9.7767 H   0  0  0  0  0  0
   -3.0997   31.5694   11.3565 H   0  0  0  0  0  0
   -2.4125   29.7335   12.3720 H   0  0  0  0  0  0
   -2.6629   27.7662   13.4068 H   0  0  0  0  0  0
   -2.6014   25.5863   12.5194 H   0  0  0  0  0  0
   -0.3890   23.6527   15.7051 H   0  0  0  0  0  0
   -0.1504   21.1963   15.4124 H   0  0  0  0  0  0
   -0.3813   20.2272   13.1193 H   0  0  0  0  0  0
   -1.0175   23.9541   11.4500 H   0  0  0  0  0  0
  1  2  1  0  0  0
  1 36  1  0  0  0
  1 37  1  0  0  0
  1 38  1  0  0  0
  2  3  1  0  0  0
  3  8  1  0  0  0
  3  4  2  0  0  0
  4  5  1  0  0  0
  4 39  1  0  0  0
  5  6  2  0  0  0
  5 40  1  0  0  0
  6  7  1  0  0  0
  6  9  1  0  0  0
  7  8  2  0  0  0
  7 41  1  0  0  0
  8 42  1  0  0  0
  9 13  1  0  0  0
  9 10  2  0  0  0
 10 20  1  0  0  0
 10 11  1  0  0  0
 11 12  2  0  0  0
 11 14  1  0  0  0
 12 13  1  0  0  0
 13 35  1  0  0  0
 14 19  2  0  0  0
 14 15  1  0  0  0
 15 16  2  0  0  0
 15 43  1  0  0  0
 16 17  1  0  0  0
 16 44  1  0  0  0
 17 18  2  0  0  0
 17 45  1  0  0  0
 18 19  1  0  0  0
 18 22  1  0  0  0
 19 20  1  0  0  0
 20 21  2  0  0  0
 22 23  1  0  0  0
 22 46  1  0  0  0
 23 24  2  0  0  0
 23 25  1  0  0  0
 25 26  1  0  0  0
 25 47  1  0  0  0
 26 27  1  0  0  0
 26 48  1  0  0  0
 27 28  2  0  0  0
 27 29  1  0  0  0
 29 34  1  0  0  0
 29 30  2  0  0  0
 30 31  1  0  0  0
 30 49  1  0  0  0
 31 32  2  0  0  0
 31 50  1  0  0  0
 32 33  1  0  0  0
 32 51  1  0  0  0
 33 34  2  0  0  0
 34 52  1  0  0  0
M  END
> <s_m_entry_id>
34562

> <s_m_entry_name>
ligand_docking-pose.59

> <s_m_Source_Path>
/home/csk/Desktop/cluster/DUD-E-result/cdk2

> <s_m_Source_File>
ligand_docking-pose.sdf

> <i_m_Source_File_Index>
59

> <i_lp_mmshare_version>
53161

> <r_lp_tautomer_probability>
1

> <s_lp_Force_Field>
OPLS_2005

> <r_lp_Energy>
63.634195

> <b_lp_Chiralities_Consistent>
1

> <s_lp_Variant>
310557-1

> <s_i_glide_gridfile>
glide-grid_1h00

> <i_i_glide_lignum>
1656

> <i_i_glide_rotatable_bonds>
8

> <r_i_docking_score>
-8.44821271097

> <r_i_glide_ligand_efficiency>
-0.248476844440294

> <r_i_glide_ligand_efficiency_sa>
-0.804968516646763

> <r_i_glide_ligand_efficiency_ln>
-1.8664471521933

> <r_i_glide_gscore>
-8.44821271097

> <r_i_glide_lipo>
-2.89511771005795

> <r_i_glide_hbond>
-0.5630191863135

> <r_i_glide_metal>
0

> <r_i_glide_rewards>
-1.53418160590573

> <r_i_glide_evdw>
-41.095157623291

> <r_i_glide_ecoul>
-12.6300840377808

> <r_i_glide_erotb>
0.583432397413785

> <r_i_glide_esite>
-0.0900561192749306

> <r_i_glide_emodel>
-76.4724144098176

> <r_i_glide_energy>
-53.7252416610718

> <r_i_glide_einternal>
10.6660194396973

> <i_i_glide_confnum>
13

> <i_i_glide_posenum>
15

> <r_i_glide_eff_state_penalty>
0

> <i_f3d_flags>
0

> <s_user_duplicate_titles>
310557

> <s_m_subgroup_title>
dock_pv

> <s_m_subgroupid>
dock_pv1

> <b_m_subgroup_collapsed>
0

$$$$
310777
                    3D
 Schrodinger Suite 2021-1.
 55 59  0  0  1  0            999 V2000
    6.8941   25.3286    5.6775 C   0  0  0  0  0  0
    6.0748   25.4162    6.8396 O   0  0  0  0  0  0
    5.2306   26.5007    6.9834 C   0  0  0  0  0  0
    4.5154   26.5807    8.1740 C   0  0  0  0  0  0
    3.6773   27.6596    8.4446 C   0  0  0  0  0  0
    3.4985   28.6536    7.4800 C   0  0  0  0  0  0
    4.1968   28.5706    6.2692 C   0  0  0  0  0  0
    5.0573   27.5040    6.0224 C   0  0  0  0  0  0
    2.4743   29.7122    7.6862 C   0  0  0  0  0  0
    1.3281   29.8194    8.4553 C   0  0  0  0  0  0
    0.7680   31.0365    8.1199 C   0  0  0  0  0  0
    1.4404   31.6912    7.2124 N   0  0  0  0  0  0
    2.4579   30.8719    6.9734 N   0  0  0  0  0  0
   -0.4355   31.2640    8.8771 C   0  0  0  0  0  0
   -1.3051   32.3427    8.9101 C   0  0  0  0  0  0
   -2.4434   32.2458    9.6903 C   0  0  0  0  0  0
   -2.7010   31.0952   10.4202 C   0  0  0  0  0  0
   -1.7683   30.0582   10.4901 C   0  0  0  0  0  0
   -0.6257   30.1282    9.6693 C   0  0  0  0  0  0
    0.4770   29.1468    9.4158 C   0  0  0  0  0  0
    0.6148   28.0172    9.8826 O   0  0  0  0  0  0
   -2.0963   29.0187   11.3677 N   0  0  0  0  0  0
   -1.2763   28.4494   12.2667 C   0  0  0  0  0  0
   -0.1632   28.8830   12.5750 O   0  0  0  0  0  0
   -1.8379   27.3293   12.7548 N   0  0  0  0  0  0
   -1.2042   26.6674   13.8103 N   0  0  0  0  0  0
   -0.7365   25.4184   13.6061 C   0  0  0  0  0  0
   -0.7402   24.6012   14.5270 O   0  0  0  0  0  0
   -0.1699   25.2070   12.3923 N   0  0  0  0  0  0
    0.4287   24.0498   11.8738 C   0  0  0  0  0  0
    0.1743   22.7556   12.3524 C   0  0  0  0  0  0
    0.7886   21.6613   11.7494 C   0  0  0  0  0  0
    1.6523   21.8585   10.6728 C   0  0  0  0  0  0
    1.9053   23.1410   10.1890 C   0  0  0  0  0  0
    1.2897   24.2368   10.7879 C   0  0  0  0  0  0
    3.1938   31.0989    6.3120 H   0  0  0  0  0  0
    7.5319   24.4483    5.7485 H   0  0  0  0  0  0
    6.2948   25.2261    4.7733 H   0  0  0  0  0  0
    7.5462   26.1962    5.5793 H   0  0  0  0  0  0
    4.6223   25.8039    8.9154 H   0  0  0  0  0  0
    3.1451   27.6909    9.3828 H   0  0  0  0  0  0
    4.0641   29.3179    5.5000 H   0  0  0  0  0  0
    5.5866   27.4687    5.0809 H   0  0  0  0  0  0
   -1.1231   33.2305    8.3217 H   0  0  0  0  0  0
   -3.1421   33.0545    9.7303 H   0  0  0  0  0  0
   -3.6220   31.0543   10.9760 H   0  0  0  0  0  0
   -3.0727   28.9711   11.6139 H   0  0  0  0  0  0
   -2.8401   27.2228   12.7998 H   0  0  0  0  0  0
   -1.6142   26.9282   14.6948 H   0  0  0  0  0  0
   -0.0869   26.0221   11.8007 H   0  0  0  0  0  0
   -0.5074   22.5808   13.1710 H   0  0  0  0  0  0
    0.5847   20.6620   12.1079 H   0  0  0  0  0  0
    2.1129   21.0039   10.1995 H   0  0  0  0  0  0
    2.5573   23.2877    9.3393 H   0  0  0  0  0  0
    1.4816   25.2292   10.4014 H   0  0  0  0  0  0
  1  2  1  0  0  0
  1 37  1  0  0  0
  1 38  1  0  0  0
  1 39  1  0  0  0
  2  3  1  0  0  0
  3  8  1  0  0  0
  3  4  2  0  0  0
  4  5  1  0  0  0
  4 40  1  0  0  0
  5  6  2  0  0  0
  5 41  1  0  0  0
  6  7  1  0  0  0
  6  9  1  0  0  0
  7  8  2  0  0  0
  7 42  1  0  0  0
  8 43  1  0  0  0
  9 13  1  0  0  0
  9 10  2  0  0  0
 10 20  1  0  0  0
 10 11  1  0  0  0
 11 12  2  0  0  0
 11 14  1  0  0  0
 12 13  1  0  0  0
 13 36  1  0  0  0
 14 19  2  0  0  0
 14 15  1  0  0  0
 15 16  2  0  0  0
 15 44  1  0  0  0
 16 17  1  0  0  0
 16 45  1  0  0  0
 17 18  2  0  0  0
 17 46  1  0  0  0
 18 19  1  0  0  0
 18 22  1  0  0  0
 19 20  1  0  0  0
 20 21  2  0  0  0
 22 23  1  0  0  0
 22 47  1  0  0  0
 23 24  2  0  0  0
 23 25  1  0  0  0
 25 26  1  0  0  0
 25 48  1  0  0  0
 26 27  1  0  0  0
 26 49  1  0  0  0
 27 28  2  0  0  0
 27 29  1  0  0  0
 29 30  1  0  0  0
 29 50  1  0  0  0
 30 35  1  0  0  0
 30 31  2  0  0  0
 31 32  1  0  0  0
 31 51  1  0  0  0
 32 33  2  0  0  0
 32 52  1  0  0  0
 33 34  1  0  0  0
 33 53  1  0  0  0
 34 35  2  0  0  0
 34 54  1  0  0  0
 35 55  1  0  0  0
M  END
> <s_m_entry_id>
34563

> <s_m_entry_name>
ligand_docking-pose.60

> <s_m_Source_Path>
/home/csk/Desktop/cluster/DUD-E-result/cdk2

> <s_m_Source_File>
ligand_docking-pose.sdf

> <i_m_Source_File_Index>
60

> <i_lp_mmshare_version>
53161

> <r_lp_tautomer_probability>
1

> <s_lp_Force_Field>
OPLS_2005

> <r_lp_Energy>
67.156599

> <b_lp_Chiralities_Consistent>
1

> <s_lp_Variant>
310777-1

> <s_i_glide_gridfile>
glide-grid_1h00

> <i_i_glide_lignum>
1662

> <i_i_glide_rotatable_bonds>
9

> <r_i_docking_score>
-8.43337520043359

> <r_i_glide_ligand_efficiency>
-0.240953577155245

> <r_i_glide_ligand_efficiency_sa>
-0.788175127617871

> <r_i_glide_ligand_efficiency_ln>
-1.85131302517337

> <r_i_glide_gscore>
-8.43337520043359

> <r_i_glide_lipo>
-2.9514016599861

> <r_i_glide_hbond>
-0.314721086743574

> <r_i_glide_metal>
0

> <r_i_glide_rewards>
-1.71052137776176

> <r_i_glide_evdw>
-45.8725662231445

> <r_i_glide_ecoul>
-11.6402835845947

> <r_i_glide_erotb>
0.643998367267771

> <r_i_glide_esite>
-0.0610585943634886

> <r_i_glide_emodel>
-78.5780834915574

> <r_i_glide_energy>
-57.5128498077393

> <r_i_glide_einternal>
8.91858577728271

> <i_i_glide_confnum>
28

> <i_i_glide_posenum>
77

> <r_i_glide_eff_state_penalty>
0

> <i_f3d_flags>
0

> <s_user_duplicate_titles>
310777

> <s_m_subgroup_title>
dock_pv

> <s_m_subgroupid>
dock_pv1

> <b_m_subgroup_collapsed>
0

$$$$
248472
                    3D
 Schrodinger Suite 2021-1.
 60 64  0  0  1  0            999 V2000
    7.8115   25.4113    7.3768 C   0  0  0  0  0  0
    6.8436   25.8228    6.3626 N   0  0  0  0  0  0
    7.2799   25.7002    4.9701 C   0  0  0  0  0  0
    5.8069   26.7387    6.6984 C   0  0  0  0  0  0
    5.0459   27.3675    5.7014 C   0  0  0  0  0  0
    4.0602   28.2903    6.0300 C   0  0  0  0  0  0
    3.7862   28.5824    7.3678 C   0  0  0  0  0  0
    4.5065   27.9479    8.3706 C   0  0  0  0  0  0
    5.5161   27.0510    8.0360 C   0  0  0  0  0  0
    2.6745   29.5058    7.6883 C   0  0  0  0  0  0
    1.6058   29.4523    8.5760 C   0  0  0  0  0  0
    0.7979   30.5268    8.2209 C   0  0  0  0  0  0
    1.3139   31.2865    7.2873 N   0  0  0  0  0  0
    2.4447   30.6519    6.9763 N   0  0  0  0  0  0
   -0.4378   30.5105    8.9851 C   0  0  0  0  0  0
   -1.5661   31.3283    8.9760 C   0  0  0  0  0  0
   -2.6529   30.9917    9.7755 C   0  0  0  0  0  0
   -2.5979   29.8518   10.5765 C   0  0  0  0  0  0
   -1.4442   29.0492   10.6328 C   0  0  0  0  0  0
   -0.3529   29.3966    9.8219 C   0  0  0  0  0  0
    0.9681   28.7129    9.6455 C   0  0  0  0  0  0
    1.3802   27.7199   10.2390 O   0  0  0  0  0  0
   -1.3412   27.8979   11.4386 N   0  0  0  0  0  0
   -2.3153   27.0909   11.9128 C   0  0  0  0  0  0
   -3.5192   27.3047   11.7760 O   0  0  0  0  0  0
   -1.8833   25.7793   12.6160 C   0  0  0  0  0  0
   -0.5961   25.2093   12.1409 N   0  0  1  0  0  0
   -0.2710   23.9946   12.9118 C   0  0  0  0  0  0
    1.0523   23.3038   12.4877 C   0  0  0  0  0  0
    1.1741   23.1092   10.9694 C   0  0  0  0  0  0
    0.8366   24.4259   10.2670 C   0  0  0  0  0  0
   -0.5460   24.9511   10.6893 C   0  0  0  0  0  0
    2.4559   22.6549   10.5766 O   0  0  0  0  0  0
    3.0991   31.0170    6.2900 H   0  0  0  0  0  0
    7.3086   25.0522    8.2733 H   0  0  0  0  0  0
    8.4569   24.6091    7.0167 H   0  0  0  0  0  0
    8.4435   26.2524    7.6640 H   0  0  0  0  0  0
    6.4503   25.4284    4.3168 H   0  0  0  0  0  0
    7.6821   26.6504    4.6144 H   0  0  0  0  0  0
    8.0588   24.9467    4.8467 H   0  0  0  0  0  0
    5.2167   27.1708    4.6549 H   0  0  0  0  0  0
    3.4945   28.7578    5.2379 H   0  0  0  0  0  0
    4.2842   28.1459    9.4071 H   0  0  0  0  0  0
    6.0604   26.6077    8.8518 H   0  0  0  0  0  0
   -1.6163   32.1970    8.3377 H   0  0  0  0  0  0
   -3.5398   31.6085    9.7772 H   0  0  0  0  0  0
   -3.4577   29.6230   11.1846 H   0  0  0  0  0  0
   -0.4050   27.5225   11.5207 H   0  0  0  0  0  0
   -2.6929   25.0517   12.5246 H   0  0  0  0  0  0
   -1.7987   26.0205   13.6768 H   0  0  0  0  0  0
   -1.0958   23.2837   12.8340 H   0  0  0  0  0  0
   -0.2072   24.2650   13.9666 H   0  0  0  0  0  0
    1.1063   22.3306   12.9779 H   0  0  0  0  0  0
    1.9087   23.8512   12.8743 H   0  0  0  0  0  0
    0.4719   22.3289   10.6725 H   0  0  0  0  0  0
    1.6000   25.1759   10.4782 H   0  0  0  0  0  0
    0.8582   24.3051    9.1894 H   0  0  0  0  0  0
   -1.3405   24.2502   10.4330 H   0  0  0  0  0  0
   -0.7527   25.8466   10.1060 H   0  0  0  0  0  0
    2.5195   22.7900    9.6241 H   0  0  0  0  0  0
  1  2  1  0  0  0
  1 35  1  0  0  0
  1 36  1  0  0  0
  1 37  1  0  0  0
  2  3  1  0  0  0
  2  4  1  0  0  0
  3 38  1  0  0  0
  3 39  1  0  0  0
  3 40  1  0  0  0
  4  9  1  0  0  0
  4  5  2  0  0  0
  5  6  1  0  0  0
  5 41  1  0  0  0
  6  7  2  0  0  0
  6 42  1  0  0  0
  7  8  1  0  0  0
  7 10  1  0  0  0
  8  9  2  0  0  0
  8 43  1  0  0  0
  9 44  1  0  0  0
 10 14  1  0  0  0
 10 11  2  0  0  0
 11 21  1  0  0  0
 11 12  1  0  0  0
 12 13  2  0  0  0
 12 15  1  0  0  0
 13 14  1  0  0  0
 14 34  1  0  0  0
 15 20  2  0  0  0
 15 16  1  0  0  0
 16 17  2  0  0  0
 16 45  1  0  0  0
 17 18  1  0  0  0
 17 46  1  0  0  0
 18 19  2  0  0  0
 18 47  1  0  0  0
 19 20  1  0  0  0
 19 23  1  0  0  0
 20 21  1  0  0  0
 21 22  2  0  0  0
 23 24  1  0  0  0
 23 48  1  0  0  0
 24 25  2  0  0  0
 24 26  1  0  0  0
 26 27  1  0  0  0
 26 49  1  0  0  0
 26 50  1  0  0  0
 27 32  1  0  0  0
 27 28  1  0  0  0
 28 29  1  0  0  0
 28 51  1  0  0  0
 28 52  1  0  0  0
 29 30  1  0  0  0
 29 53  1  0  0  0
 29 54  1  0  0  0
 30 31  1  0  0  0
 30 33  1  0  0  0
 30 55  1  0  0  0
 31 32  1  0  0  0
 31 56  1  0  0  0
 31 57  1  0  0  0
 32 58  1  0  0  0
 32 59  1  0  0  0
 33 60  1  0  0  0
M  END
> <s_m_entry_id>
34565

> <s_m_entry_name>
ligand_docking-pose.62

> <s_m_Source_Path>
/home/csk/Desktop/cluster/DUD-E-result/cdk2

> <s_m_Source_File>
ligand_docking-pose.sdf

> <i_m_Source_File_Index>
62

> <i_lp_mmshare_version>
53161

> <r_lp_tautomer_probability>
1

> <s_lp_Force_Field>
OPLS_2005

> <r_lp_Energy>
68.777265

> <b_lp_Chiralities_Consistent>
1

> <s_lp_Variant>
248472-1

> <s_i_glide_gridfile>
glide-grid_1h00

> <i_i_glide_lignum>
1517

> <i_i_glide_rotatable_bonds>
7

> <r_i_docking_score>
-8.41750742319463

> <r_i_glide_ligand_efficiency>
-0.255075982521049

> <r_i_glide_ligand_efficiency_sa>
-0.818164969740108

> <r_i_glide_ligand_efficiency_ln>
-1.87201006739759

> <r_i_glide_gscore>
-8.41750742319463

> <r_i_glide_lipo>
-3.48227102590554

> <r_i_glide_hbond>
-0.446180242533518

> <r_i_glide_metal>
0

> <r_i_glide_rewards>
-1.77702625619019

> <r_i_glide_evdw>
-43.2436027526855

> <r_i_glide_ecoul>
-7.02596712112427

> <r_i_glide_erotb>
0.504045307237528

> <r_i_glide_esite>
0

> <r_i_glide_emodel>
-73.8479259594661

> <r_i_glide_energy>
-50.2695698738098

> <r_i_glide_einternal>
5.18688440322876

> <i_i_glide_confnum>
1

> <i_i_glide_posenum>
170

> <r_i_glide_eff_state_penalty>
0

> <i_f3d_flags>
0

> <s_user_duplicate_titles>
248472

> <s_m_subgroup_title>
dock_pv

> <s_m_subgroupid>
dock_pv1

> <b_m_subgroup_collapsed>
0

$$$$
188035
                    3D
 Schrodinger Suite 2021-1.
 39 42  0  0  1  0            999 V2000
    5.5406   25.8305    3.3082 C   0  0  0  0  0  0
    5.5191   27.1760    3.6321 C   0  0  0  0  0  0
    5.1538   27.5904    4.9087 C   0  0  0  0  0  0
    4.8256   26.6457    5.9208 C   0  0  0  0  0  0
    4.8184   25.2580    5.5580 C   0  0  0  0  0  0
    5.1778   24.8724    4.2453 C   0  0  0  0  0  0
    4.4585   24.2838    6.5165 C   0  0  0  0  0  0
    4.1196   24.6635    7.8066 C   0  0  0  0  0  0
    4.1522   25.9994    8.1760 C   0  0  0  0  0  0
    4.5050   27.0031    7.2729 C   0  0  0  0  0  0
    4.5695   28.4539    7.7726 C   0  0  0  0  0  0
    3.1829   29.0514    8.0595 C   0  0  0  0  0  0
    2.5060   28.5850    8.9766 O   0  0  0  0  0  0
    2.8024   30.0818    7.2811 N   0  0  0  0  0  0
    1.6704   30.8590    7.4557 C   0  0  0  0  0  0
    0.4920   30.5943    8.1761 C   0  0  0  0  0  0
   -0.2113   31.7860    8.2317 C   0  0  0  0  0  0
    0.5733   32.6517    7.5145 N   0  0  0  0  0  0
    1.6579   32.0818    6.9761 N   0  0  0  0  0  0
   -1.5094   32.2049    8.8923 C   0  0  0  0  0  0
   -2.5809   31.1803    9.1877 C   0  0  0  0  0  0
   -1.8021   31.8138   10.3211 C   0  0  0  0  0  0
    0.3455   33.6256    7.3514 H   0  0  0  0  0  0
    5.8184   25.5228    2.3110 H   0  0  0  0  0  0
    5.7991   27.8998    2.8850 H   0  0  0  0  0  0
    5.1536   28.6485    5.1133 H   0  0  0  0  0  0
    5.1710   23.8284    3.9676 H   0  0  0  0  0  0
    4.4348   23.2398    6.2383 H   0  0  0  0  0  0
    3.8293   23.9172    8.5297 H   0  0  0  0  0  0
    3.9008   26.2638    9.1927 H   0  0  0  0  0  0
    5.1719   29.1035    7.1410 H   0  0  0  0  0  0
    5.0974   28.4531    8.7274 H   0  0  0  0  0  0
    3.4919   30.4677    6.6436 H   0  0  0  0  0  0
    0.2257   29.6695    8.6654 H   0  0  0  0  0  0
   -1.8547   33.1926    8.5925 H   0  0  0  0  0  0
   -2.3974   30.1279    8.9763 H   0  0  0  0  0  0
   -3.6252   31.4546    9.0361 H   0  0  0  0  0  0
   -2.3109   32.5285   10.9691 H   0  0  0  0  0  0
   -1.0710   31.2087   10.8591 H   0  0  0  0  0  0
  1  6  1  0  0  0
  1  2  2  0  0  0
  1 24  1  0  0  0
  2  3  1  0  0  0
  2 25  1  0  0  0
  3  4  2  0  0  0
  3 26  1  0  0  0
  4 10  1  0  0  0
  4  5  1  0  0  0
  5  6  2  0  0  0
  5  7  1  0  0  0
  6 27  1  0  0  0
  7  8  2  0  0  0
  7 28  1  0  0  0
  8  9  1  0  0  0
  8 29  1  0  0  0
  9 10  2  0  0  0
  9 30  1  0  0  0
 10 11  1  0  0  0
 11 12  1  0  0  0
 11 31  1  0  0  0
 11 32  1  0  0  0
 12 13  2  0  0  0
 12 14  1  0  0  0
 14 15  1  0  0  0
 14 33  1  0  0  0
 15 19  2  0  0  0
 15 16  1  0  0  0
 16 17  2  0  0  0
 16 34  1  0  0  0
 17 18  1  0  0  0
 17 20  1  0  0  0
 18 23  1  0  0  0
 18 19  1  0  0  0
 20 22  1  0  0  0
 20 21  1  0  0  0
 20 35  1  0  0  0
 21 22  1  0  0  0
 21 36  1  0  0  0
 21 37  1  0  0  0
 22 38  1  0  0  0
 22 39  1  0  0  0
M  END
> <s_m_entry_id>
34566

> <s_m_entry_name>
ligand_docking-pose.63

> <s_m_Source_Path>
/home/csk/Desktop/cluster/DUD-E-result/cdk2

> <s_m_Source_File>
ligand_docking-pose.sdf

> <i_m_Source_File_Index>
63

> <i_lp_mmshare_version>
53161

> <r_lp_tautomer_probability>
0.5

> <s_lp_Force_Field>
OPLS_2005

> <r_lp_Energy>
19.032877

> <b_lp_Chiralities_Consistent>
1

> <s_lp_Variant>
188035-1

> <s_i_glide_gridfile>
glide-grid_1h00

> <i_i_glide_lignum>
121

> <i_i_glide_rotatable_bonds>
5

> <r_i_docking_score>
-8.4153665918617

> <r_i_glide_ligand_efficiency>
-0.382516663266441

> <r_i_glide_ligand_efficiency_sa>
-1.07182673399928

> <r_i_glide_ligand_efficiency_ln>
-2.05702255300567

> <r_i_glide_gscore>
-8.4153665918617

> <r_i_glide_lipo>
-2.54908825123378

> <r_i_glide_hbond>
-0.864

> <r_i_glide_metal>
0

> <r_i_glide_rewards>
-3.03810375008558

> <r_i_glide_evdw>
-29.3161163330078

> <r_i_glide_ecoul>
-7.33352708816528

> <r_i_glide_erotb>
0.601660289332849

> <r_i_glide_esite>
0

> <r_i_glide_emodel>
-51.090505776534

> <r_i_glide_energy>
-36.6496434211731

> <r_i_glide_einternal>
5.85635137557983

> <i_i_glide_confnum>
2

> <i_i_glide_posenum>
36

> <r_i_glide_eff_state_penalty>
0

> <i_f3d_flags>
0

> <s_user_duplicate_titles>
188035

> <s_m_subgroup_title>
dock_pv

> <s_m_subgroupid>
dock_pv1

> <b_m_subgroup_collapsed>
0

$$$$
307199
                    3D
 Schrodinger Suite 2021-1.
 38 40  0  0  1  0            999 V2000
    0.8531   27.9231   10.4269 C   0  0  0  0  0  0
   -0.4951   28.5917   10.5999 C   0  0  0  0  0  0
   -1.4762   28.1999   11.5057 C   0  0  0  0  0  0
   -2.5323   29.0514   11.3760 N   0  0  0  0  0  0
   -2.2893   29.9789   10.4028 C   0  0  0  0  0  0
   -0.9945   29.7511    9.9366 C   0  0  0  0  0  0
   -0.2933   30.6201    8.9379 C   0  0  0  0  0  0
   -0.5377   31.9960    8.8418 C   0  0  0  0  0  0
    0.2760   32.7276    7.9794 C   0  0  0  0  0  0
    1.2580   32.1586    7.2342 N   0  0  0  0  0  0
    1.4168   30.8204    7.3760 C   0  0  0  0  0  0
    0.6759   30.0277    8.1950 N   0  0  0  0  0  0
    2.4580   30.2519    6.6360 N   0  0  0  0  0  0
    3.2629   29.1447    6.9464 C   0  0  0  0  0  0
    3.4778   28.7758    8.2713 C   0  0  0  0  0  0
    4.3242   27.7234    8.5760 C   0  0  0  0  0  0
    4.9944   27.0522    7.5605 C   0  0  0  0  0  0
    4.8197   27.4332    6.2314 C   0  0  0  0  0  0
    3.9525   28.4834    5.9252 C   0  0  0  0  0  0
    5.8321   26.0216    7.8888 O   0  0  0  0  0  0
   -3.3344   31.0124   10.0463 C   0  0  0  0  0  0
   -1.5155   27.1307   12.4920 C   0  0  0  0  0  0
   -1.5446   26.2802   13.2766 N   0  0  0  0  0  0
   -3.3536   29.0432   11.9686 H   0  0  0  0  0  0
    1.6543   28.6324   10.6164 H   0  0  0  0  0  0
    0.9986   27.5699    9.4058 H   0  0  0  0  0  0
    1.0124   27.0786   11.0979 H   0  0  0  0  0  0
   -1.2684   32.5004    9.4532 H   0  0  0  0  0  0
    0.1646   33.7979    7.9089 H   0  0  0  0  0  0
    2.9913   30.9381    6.1138 H   0  0  0  0  0  0
    3.0096   29.3226    9.0715 H   0  0  0  0  0  0
    4.4580   27.4520    9.6098 H   0  0  0  0  0  0
    5.3573   26.9235    5.4455 H   0  0  0  0  0  0
    3.8291   28.7890    4.8984 H   0  0  0  0  0  0
    5.8114   25.8527    8.8384 H   0  0  0  0  0  0
   -3.2942   31.2948    8.9943 H   0  0  0  0  0  0
   -4.3420   30.6519   10.2292 H   0  0  0  0  0  0
   -3.2196   31.9211   10.6378 H   0  0  0  0  0  0
  1  2  1  0  0  0
  1 25  1  0  0  0
  1 26  1  0  0  0
  1 27  1  0  0  0
  2  6  1  0  0  0
  2  3  2  0  0  0
  3  4  1  0  0  0
  3 22  1  0  0  0
  4 24  1  0  0  0
  4  5  1  0  0  0
  5  6  2  0  0  0
  5 21  1  0  0  0
  6  7  1  0  0  0
  7 12  1  0  0  0
  7  8  2  0  0  0
  8  9  1  0  0  0
  8 28  1  0  0  0
  9 10  2  0  0  0
  9 29  1  0  0  0
 10 11  1  0  0  0
 11 12  2  0  0  0
 11 13  1  0  0  0
 13 14  1  0  0  0
 13 30  1  0  0  0
 14 19  1  0  0  0
 14 15  2  0  0  0
 15 16  1  0  0  0
 15 31  1  0  0  0
 16 17  2  0  0  0
 16 32  1  0  0  0
 17 18  1  0  0  0
 17 20  1  0  0  0
 18 19  2  0  0  0
 18 33  1  0  0  0
 19 34  1  0  0  0
 20 35  1  0  0  0
 21 36  1  0  0  0
 21 37  1  0  0  0
 21 38  1  0  0  0
 22 23  3  0  0  0
M  END
> <s_m_entry_id>
34567

> <s_m_entry_name>
ligand_docking-pose.64

> <s_m_Source_Path>
/home/csk/Desktop/cluster/DUD-E-result/cdk2

> <s_m_Source_File>
ligand_docking-pose.sdf

> <i_m_Source_File_Index>
64

> <i_lp_mmshare_version>
53161

> <r_lp_tautomer_probability>
0.999999987636

> <s_lp_Force_Field>
OPLS_2005

> <r_lp_Energy>
5.031193

> <b_lp_Chiralities_Consistent>
1

> <s_lp_Variant>
307199-1

> <s_i_glide_gridfile>
glide-grid_1h00

> <i_i_glide_lignum>
815

> <i_i_glide_rotatable_bonds>
4

> <r_i_docking_score>
-8.40418155530281

> <r_i_glide_ligand_efficiency>
-0.365399198056644

> <r_i_glide_ligand_efficiency_sa>
-1.03914671273145

> <r_i_glide_ligand_efficiency_ln>
-2.03220730497735

> <r_i_glide_gscore>
-8.40418155530281

> <r_i_glide_lipo>
-2.36681207551078

> <r_i_glide_hbond>
-0.435251267729952

> <r_i_glide_metal>
0

> <r_i_glide_rewards>
-3.04724669533921

> <r_i_glide_evdw>
-33.6343612670898

> <r_i_glide_ecoul>
-8.26437377929688

> <r_i_glide_erotb>
0.41571665751708

> <r_i_glide_esite>
-0.0492140439909228

> <r_i_glide_emodel>
-62.2831625451887

> <r_i_glide_energy>
-41.8987350463867

> <r_i_glide_einternal>
3.08914279937744

> <i_i_glide_confnum>
7

> <i_i_glide_posenum>
322

> <r_i_glide_eff_state_penalty>
0

> <i_f3d_flags>
0

> <s_user_duplicate_titles>
307199

> <s_m_subgroup_title>
dock_pv

> <s_m_subgroupid>
dock_pv1

> <b_m_subgroup_collapsed>
0

$$$$
67879
                    3D
 Schrodinger Suite 2021-1.
 37 39  0  0  1  0            999 V2000
   -3.3491   30.9766   10.1760 C   0  0  0  0  0  0
   -2.2910   29.9371   10.4698 C   0  0  0  0  0  0
   -1.0242   29.8260    9.9039 C   0  0  0  0  0  0
   -0.2231   28.4361   10.6166 S   0  0  0  0  0  0
   -1.6201   28.1893   11.6088 C   0  0  0  0  0  0
   -2.5923   29.0259   11.3758 N   0  0  0  0  0  0
   -1.6919   27.2101   12.5665 N   0  0  0  0  0  0
   -0.5804   26.4302   13.0902 C   0  0  0  0  0  0
   -0.3420   30.6897    8.9048 C   0  0  0  0  0  0
   -0.5806   32.0629    8.7974 C   0  0  0  0  0  0
    0.2637   32.7805    7.9495 C   0  0  0  0  0  0
    1.2580   32.1979    7.2263 N   0  0  0  0  0  0
    1.3926   30.8571    7.3760 C   0  0  0  0  0  0
    0.6218   30.0837    8.1760 N   0  0  0  0  0  0
    2.4580   30.2520    6.7078 N   0  0  0  0  0  0
    3.2395   29.1435    7.0867 C   0  0  0  0  0  0
    4.0579   28.5395    6.1276 C   0  0  0  0  0  0
    4.8761   27.4669    6.4812 C   0  0  0  0  0  0
    4.8776   27.0067    7.7960 C   0  0  0  0  0  0
    4.0609   27.6022    8.7515 C   0  0  0  0  0  0
    3.2604   28.6768    8.4047 C   0  0  0  0  0  0
    5.6993   25.9804    8.1760 O   0  0  0  0  0  0
   -3.3933   31.2303    9.1169 H   0  0  0  0  0  0
   -4.3420   30.6520   10.4641 H   0  0  0  0  0  0
   -3.1601   31.8981   10.7266 H   0  0  0  0  0  0
   -2.4398   27.3136   13.2415 H   0  0  0  0  0  0
   -0.9519   25.6098   13.7042 H   0  0  0  0  0  0
    0.0580   27.0555   13.7154 H   0  0  0  0  0  0
    0.0273   26.0126   12.2866 H   0  0  0  0  0  0
   -1.3231   32.5687    9.3940 H   0  0  0  0  0  0
    0.1675   33.8515    7.8770 H   0  0  0  0  0  0
    3.0140   30.9132    6.1760 H   0  0  0  0  0  0
    4.0713   28.9082    5.1125 H   0  0  0  0  0  0
    5.5213   27.0099    5.7452 H   0  0  0  0  0  0
    4.0580   27.2599    9.7756 H   0  0  0  0  0  0
    2.6779   29.1446    9.1819 H   0  0  0  0  0  0
    5.6580   25.8520    9.1385 H   0  0  0  0  0  0
  1  2  1  0  0  0
  1 23  1  0  0  0
  1 24  1  0  0  0
  1 25  1  0  0  0
  2  6  1  0  0  0
  2  3  2  0  0  0
  3  4  1  0  0  0
  3  9  1  0  0  0
  4  5  1  0  0  0
  5  6  2  0  0  0
  5  7  1  0  0  0
  7  8  1  0  0  0
  7 26  1  0  0  0
  8 27  1  0  0  0
  8 28  1  0  0  0
  8 29  1  0  0  0
  9 14  1  0  0  0
  9 10  2  0  0  0
 10 11  1  0  0  0
 10 30  1  0  0  0
 11 12  2  0  0  0
 11 31  1  0  0  0
 12 13  1  0  0  0
 13 14  2  0  0  0
 13 15  1  0  0  0
 15 16  1  0  0  0
 15 32  1  0  0  0
 16 21  1  0  0  0
 16 17  2  0  0  0
 17 18  1  0  0  0
 17 33  1  0  0  0
 18 19  2  0  0  0
 18 34  1  0  0  0
 19 20  1  0  0  0
 19 22  1  0  0  0
 20 21  2  0  0  0
 20 35  1  0  0  0
 21 36  1  0  0  0
 22 37  1  0  0  0
M  END
> <s_m_entry_id>
34572

> <s_m_entry_name>
ligand_docking-pose.69

> <s_m_Source_Path>
/home/csk/Desktop/cluster/DUD-E-result/cdk2

> <s_m_Source_File>
ligand_docking-pose.sdf

> <i_m_Source_File_Index>
69

> <i_lp_mmshare_version>
53161

> <r_lp_tautomer_probability>
0.999999987636

> <s_lp_Force_Field>
OPLS_2005

> <r_lp_Energy>
1.859443

> <b_lp_Chiralities_Consistent>
1

> <s_lp_Variant>
67879-1

> <s_i_glide_gridfile>
glide-grid_1h00

> <i_i_glide_lignum>
844

> <i_i_glide_rotatable_bonds>
5

> <r_i_docking_score>
-8.37604990441647

> <r_i_glide_ligand_efficiency>
-0.38072954110984

> <r_i_glide_ligand_efficiency_sa>
-1.06681914743295

> <r_i_glide_ligand_efficiency_ln>
-2.04741212048304

> <r_i_glide_gscore>
-8.37604990441647

> <r_i_glide_lipo>
-2.33547941174304

> <r_i_glide_hbond>
-0.459174063918697

> <r_i_glide_metal>
0

> <r_i_glide_rewards>
-3.00993564213454

> <r_i_glide_evdw>
-32.074893951416

> <r_i_glide_ecoul>
-9.05873966217041

> <r_i_glide_erotb>
0.397162555645748

> <r_i_glide_esite>
-0.00606769536957838

> <r_i_glide_emodel>
-60.2952774833795

> <r_i_glide_energy>
-41.1336336135864

> <r_i_glide_einternal>
3.21688413619995

> <i_i_glide_confnum>
1

> <i_i_glide_posenum>
95

> <r_i_glide_eff_state_penalty>
0

> <i_f3d_flags>
0

> <s_user_duplicate_titles>
67879

> <s_m_subgroup_title>
dock_pv

> <s_m_subgroupid>
dock_pv1

> <b_m_subgroup_collapsed>
0

$$$$
116738
                    3D
 Schrodinger Suite 2021-1.
 40 45  0  0  1  0            999 V2000
   -2.4145   29.4805   10.2737 C   0  0  0  0  0  0
   -1.6365   30.6040    9.7824 N   0  0  0  0  0  0
   -2.1769   31.8666    9.7074 C   0  0  0  0  0  0
   -1.3554   32.6879    8.9767 C   0  0  0  0  0  0
   -0.2649   31.8917    8.5341 C   0  0  0  0  0  0
   -0.3481   30.6525    9.2330 C   0  0  0  0  0  0
    0.7477   29.7199    9.1812 C   0  0  0  0  0  0
    1.7585   29.9600    8.1969 C   0  0  0  0  0  0
    1.7034   31.1140    7.3761 C   0  0  0  0  0  0
    0.7787   32.1178    7.6291 C   0  0  0  0  0  0
    2.8171   29.0263    8.0389 C   0  0  0  0  0  0
    2.8680   27.8264    8.7757 C   0  0  0  0  0  0
    3.8840   27.0389    8.1760 C   0  0  0  0  0  0
    4.2982   25.7048    8.3269 C   0  0  0  0  0  0
    5.2886   25.1927    7.4947 C   0  0  0  0  0  0
    5.8432   25.9666    6.4798 C   0  0  0  0  0  0
    5.4178   27.2772    6.2590 C   0  0  0  0  0  0
    4.4577   27.8086    7.1230 C   0  0  0  0  0  0
    3.8473   29.0476    7.1238 N   0  0  0  0  0  0
    6.8756   25.3947    5.6272 C   0  0  0  0  0  0
    7.6970   24.9375    4.9527 N   0  0  0  0  0  0
    1.9115   27.6274    9.7856 C   0  0  0  0  0  0
    0.9383   28.5773   10.0352 C   0  0  0  0  0  0
    0.3349   28.1790   11.3426 C   0  0  0  0  0  0
   -0.3588   28.8297   12.1164 O   0  0  0  0  0  0
    0.7235   26.9122   11.5499 N   0  0  0  0  0  0
    1.6776   26.4843   10.7128 C   0  0  0  0  0  0
    2.2220   25.3838   10.7698 O   0  0  0  0  0  0
    4.0576   29.8097    6.4904 H   0  0  0  0  0  0
   -1.9419   28.5409    9.9980 H   0  0  0  0  0  0
   -2.5573   29.5643   11.3512 H   0  0  0  0  0  0
   -3.3987   29.5037    9.8059 H   0  0  0  0  0  0
   -3.1481   32.0619   10.1422 H   0  0  0  0  0  0
   -1.5427   33.7193    8.7252 H   0  0  0  0  0  0
    2.4579   31.2771    6.6222 H   0  0  0  0  0  0
    0.8230   33.0456    7.0768 H   0  0  0  0  0  0
    3.8748   25.0698    9.0855 H   0  0  0  0  0  0
    5.6109   24.1715    7.6398 H   0  0  0  0  0  0
    5.8044   27.8521    5.4333 H   0  0  0  0  0  0
    0.4166   26.3738   12.3434 H   0  0  0  0  0  0
  1  2  1  0  0  0
  1 30  1  0  0  0
  1 31  1  0  0  0
  1 32  1  0  0  0
  2  6  1  0  0  0
  2  3  1  0  0  0
  3  4  2  0  0  0
  3 33  1  0  0  0
  4  5  1  0  0  0
  4 34  1  0  0  0
  5 10  2  0  0  0
  5  6  1  0  0  0
  6  7  2  0  0  0
  7 23  1  0  0  0
  7  8  1  0  0  0
  8  9  2  0  0  0
  8 11  1  0  0  0
  9 10  1  0  0  0
  9 35  1  0  0  0
 10 36  1  0  0  0
 11 19  1  0  0  0
 11 12  2  0  0  0
 12 13  1  0  0  0
 12 22  1  0  0  0
 13 18  2  0  0  0
 13 14  1  0  0  0
 14 15  2  0  0  0
 14 37  1  0  0  0
 15 16  1  0  0  0
 15 38  1  0  0  0
 16 17  2  0  0  0
 16 20  1  0  0  0
 17 18  1  0  0  0
 17 39  1  0  0  0
 18 19  1  0  0  0
 19 29  1  0  0  0
 20 21  3  0  0  0
 22 27  1  0  0  0
 22 23  2  0  0  0
 23 24  1  0  0  0
 24 25  2  0  0  0
 24 26  1  0  0  0
 26 27  1  0  0  0
 26 40  1  0  0  0
 27 28  2  0  0  0
M  END
> <s_m_entry_id>
34574

> <s_m_entry_name>
ligand_docking-pose.71

> <s_m_Source_Path>
/home/csk/Desktop/cluster/DUD-E-result/cdk2

> <s_m_Source_File>
ligand_docking-pose.sdf

> <i_m_Source_File_Index>
71

> <i_lp_mmshare_version>
53161

> <r_lp_tautomer_probability>
1

> <s_lp_Force_Field>
OPLS_2005

> <r_lp_Energy>
90.133739

> <b_lp_Chiralities_Consistent>
1

> <s_lp_Variant>
116738-1

> <s_i_glide_gridfile>
glide-grid_1h00

> <i_i_glide_lignum>
1463

> <i_i_glide_rotatable_bonds>
0

> <r_i_docking_score>
-8.33800720813396

> <r_i_glide_ligand_efficiency>
-0.29778597171907

> <r_i_glide_ligand_efficiency_sa>
-0.904253596697019

> <r_i_glide_ligand_efficiency_ln>
-1.9246568781668

> <r_i_glide_gscore>
-8.33800720813396

> <r_i_glide_lipo>
-3.17593960764868

> <r_i_glide_hbond>
-0.32

> <r_i_glide_metal>
0

> <r_i_glide_rewards>
-2.40007349624318

> <r_i_glide_evdw>
-32.9550094604492

> <r_i_glide_ecoul>
-5.00583171844482

> <r_i_glide_erotb>
0

> <r_i_glide_esite>
-0.0433688734529116

> <r_i_glide_emodel>
-61.0469174683912

> <r_i_glide_energy>
-37.960841178894

> <r_i_glide_einternal>
0

> <i_i_glide_confnum>
1

> <i_i_glide_posenum>
90

> <r_i_glide_eff_state_penalty>
0

> <i_f3d_flags>
0

> <s_user_duplicate_titles>
116738

> <s_m_subgroup_title>
dock_pv

> <s_m_subgroupid>
dock_pv1

> <b_m_subgroup_collapsed>
0

$$$$
301147
                    3D
 Schrodinger Suite 2021-1.
 22 24  0  0  1  0            999 V2000
    0.8110   28.7053   10.0782 C   0  0  0  0  0  0
   -0.4115   29.0134   10.6985 C   0  0  0  0  0  0
   -1.1529   30.0919   10.2006 C   0  0  0  0  0  0
   -0.7292   30.8414    9.0954 C   0  0  0  0  0  0
   -1.6994   31.8629    8.9077 C   0  0  0  0  0  0
   -2.6541   31.7451    9.7929 N   0  0  0  0  0  0
   -2.3418   30.6908   10.5760 N   0  0  0  0  0  0
    0.4848   30.5048    8.4597 C   0  0  0  0  0  0
    1.2812   29.4521    8.9786 C   0  0  0  0  0  0
    2.4567   29.4720    8.1636 C   0  0  0  0  0  0
    2.1839   30.4660    7.2388 N   0  0  0  0  0  0
    1.0244   31.1321    7.3772 N   0  0  0  0  0  0
    3.6393   28.6504    8.1505 C   0  0  0  0  0  0
    3.6993   27.6156    8.8037 O   0  0  0  0  0  0
    4.6488   29.0520    7.3762 N   0  0  0  0  0  0
   -2.9355   30.4599   11.3671 H   0  0  0  0  0  0
    2.8266   30.7099    6.4969 H   0  0  0  0  0  0
    1.4118   27.8987   10.4733 H   0  0  0  0  0  0
   -0.7493   28.4469   11.5532 H   0  0  0  0  0  0
   -1.7045   32.6557    8.1762 H   0  0  0  0  0  0
    5.4630   28.4621    7.3027 H   0  0  0  0  0  0
    4.6540   29.9608    6.9239 H   0  0  0  0  0  0
  1  9  1  0  0  0
  1  2  2  0  0  0
  1 18  1  0  0  0
  2  3  1  0  0  0
  2 19  1  0  0  0
  3  7  1  0  0  0
  3  4  2  0  0  0
  4  5  1  0  0  0
  4  8  1  0  0  0
  5  6  2  0  0  0
  5 20  1  0  0  0
  6  7  1  0  0  0
  7 16  1  0  0  0
  8 12  2  0  0  0
  8  9  1  0  0  0
  9 10  2  0  0  0
 10 11  1  0  0  0
 10 13  1  0  0  0
 11 17  1  0  0  0
 11 12  1  0  0  0
 13 14  2  0  0  0
 13 15  1  0  0  0
 15 21  1  0  0  0
 15 22  1  0  0  0
M  END
> <s_m_entry_id>
34575

> <s_m_entry_name>
ligand_docking-pose.72

> <s_m_Source_Path>
/home/csk/Desktop/cluster/DUD-E-result/cdk2

> <s_m_Source_File>
ligand_docking-pose.sdf

> <i_m_Source_File_Index>
72

> <i_lp_mmshare_version>
53161

> <r_lp_tautomer_probability>
1

> <s_lp_Force_Field>
OPLS_2005

> <r_lp_Energy>
53.572963

> <b_lp_Chiralities_Consistent>
1

> <s_lp_Variant>
301147-1

> <s_i_glide_gridfile>
glide-grid_1h00

> <i_i_glide_lignum>
93

> <i_i_glide_rotatable_bonds>
1

> <r_i_docking_score>
-8.33604068755374

> <r_i_glide_ligand_efficiency>
-0.555736045836916

> <r_i_glide_ligand_efficiency_sa>
-1.37056294514649

> <r_i_glide_ligand_efficiency_ln>
-2.24809272675863

> <r_i_glide_gscore>
-8.33604068755374

> <r_i_glide_lipo>
-2.04642345413716

> <r_i_glide_hbond>
-0.653444535583801

> <r_i_glide_metal>
0

> <r_i_glide_rewards>
-3.13516616273658

> <r_i_glide_evdw>
-28.2280673980713

> <r_i_glide_ecoul>
-7.05365228652954

> <r_i_glide_erotb>
0

> <r_i_glide_esite>
-0.0315553222132063

> <r_i_glide_emodel>
-51.3916132457398

> <r_i_glide_energy>
-35.2817196846008

> <r_i_glide_einternal>
2.62057256698608

> <i_i_glide_confnum>
1

> <i_i_glide_posenum>
251

> <r_i_glide_eff_state_penalty>
0

> <i_f3d_flags>
0

> <s_user_duplicate_titles>
301147

> <s_m_subgroup_title>
dock_pv

> <s_m_subgroupid>
dock_pv1

> <b_m_subgroup_collapsed>
0

$$$$
301110
                    3D
 Schrodinger Suite 2021-1.
 35 38  0  0  1  0            999 V2000
    1.5071   25.4955   11.6297 C   0  0  0  0  0  0
    1.2577   26.7908   11.1858 C   0  0  0  0  0  0
    0.0388   27.1269   10.6075 C   0  0  0  0  0  0
   -0.9726   26.1580   10.5425 C   0  0  0  0  0  0
   -0.7429   24.8710   11.0221 C   0  0  0  0  0  0
    0.5033   24.5343   11.5511 C   0  0  0  0  0  0
    0.7623   23.1897   12.0410 C   0  0  0  0  0  0
    0.9743   22.1222   12.4323 N   0  0  0  0  0  0
   -0.1543   28.4354   10.0963 N   0  0  0  0  0  0
    0.6876   29.2104    9.3177 C   0  0  0  0  0  0
   -0.0518   30.3482    8.9849 C   0  0  0  0  0  0
   -1.2963   30.1946    9.6305 C   0  0  0  0  0  0
   -1.3333   29.0516   10.2932 N   0  0  0  0  0  0
   -2.3787   31.1633    9.5684 C   0  0  0  0  0  0
   -2.2829   32.2348    8.9758 O   0  0  0  0  0  0
   -3.5139   30.8256   10.1760 N   0  0  0  0  0  0
    0.4641   31.4298    8.0254 C   0  0  0  0  0  0
    1.6654   30.9871    7.1349 C   0  0  0  0  0  0
    2.4564   29.8507    7.7593 C   0  0  0  0  0  0
    2.0534   29.0264    8.7906 C   0  0  0  0  0  0
    3.1539   28.1610    8.9757 C   0  0  0  0  0  0
    4.1646   28.4325    8.1834 N   0  0  0  0  0  0
    3.7264   29.4520    7.4485 N   0  0  0  0  0  0
    4.3134   29.9295    6.7704 H   0  0  0  0  0  0
    2.4746   25.2686   12.0567 H   0  0  0  0  0  0
    2.0147   27.5476   11.3169 H   0  0  0  0  0  0
   -1.9414   26.3805   10.1303 H   0  0  0  0  0  0
   -1.5414   24.1483   10.9768 H   0  0  0  0  0  0
   -3.5143   30.0844   10.8615 H   0  0  0  0  0  0
   -4.2651   31.4977   10.1811 H   0  0  0  0  0  0
   -0.3420   31.7570    7.3762 H   0  0  0  0  0  0
    0.7282   32.3324    8.5721 H   0  0  0  0  0  0
    1.2801   30.6522    6.1756 H   0  0  0  0  0  0
    2.3071   31.8417    6.9205 H   0  0  0  0  0  0
    3.2456   27.3309    9.6558 H   0  0  0  0  0  0
  1  6  1  0  0  0
  1  2  2  0  0  0
  1 25  1  0  0  0
  2  3  1  0  0  0
  2 26  1  0  0  0
  3  4  2  0  0  0
  3  9  1  0  0  0
  4  5  1  0  0  0
  4 27  1  0  0  0
  5  6  2  0  0  0
  5 28  1  0  0  0
  6  7  1  0  0  0
  7  8  3  0  0  0
  9 13  1  0  0  0
  9 10  1  0  0  0
 10 11  2  0  0  0
 10 20  1  0  0  0
 11 12  1  0  0  0
 11 17  1  0  0  0
 12 13  2  0  0  0
 12 14  1  0  0  0
 14 15  2  0  0  0
 14 16  1  0  0  0
 16 29  1  0  0  0
 16 30  1  0  0  0
 17 18  1  0  0  0
 17 31  1  0  0  0
 17 32  1  0  0  0
 18 33  1  0  0  0
 18 34  1  0  0  0
 18 19  1  0  0  0
 19 23  1  0  0  0
 19 20  2  0  0  0
 20 21  1  0  0  0
 21 35  1  0  0  0
 21 22  2  0  0  0
 22 23  1  0  0  0
 23 24  1  0  0  0
M  END
> <s_m_entry_id>
34576

> <s_m_entry_name>
ligand_docking-pose.73

> <s_m_Source_Path>
/home/csk/Desktop/cluster/DUD-E-result/cdk2

> <s_m_Source_File>
ligand_docking-pose.sdf

> <i_m_Source_File_Index>
73

> <i_lp_mmshare_version>
53161

> <r_lp_tautomer_probability>
0.5

> <s_lp_Force_Field>
OPLS_2005

> <r_lp_Energy>
23.97301

> <b_lp_Chiralities_Consistent>
1

> <s_lp_Variant>
301110-2

> <s_i_glide_gridfile>
glide-grid_1h00

> <i_i_glide_lignum>
306

> <i_i_glide_rotatable_bonds>
2

> <r_i_docking_score>
-8.32438780720364

> <r_i_glide_ligand_efficiency>
-0.361929904661028

> <r_i_glide_ligand_efficiency_sa>
-1.02928050381055

> <r_i_glide_ligand_efficiency_ln>
-2.01291245315727

> <r_i_glide_gscore>
-8.32438780720364

> <r_i_glide_lipo>
-2.60670487867793

> <r_i_glide_hbond>
-0.292196336941667

> <r_i_glide_metal>
0

> <r_i_glide_rewards>
-3.00637256554885

> <r_i_glide_evdw>
-35.528392791748

> <r_i_glide_ecoul>
-5.27876424789429

> <r_i_glide_erotb>
0.199133892210499

> <r_i_glide_esite>
-0.0500136414741499

> <r_i_glide_emodel>
-62.6911855272893

> <r_i_glide_energy>
-40.8071570396423

> <r_i_glide_einternal>
1.45046699047089

> <i_i_glide_confnum>
6

> <i_i_glide_posenum>
37

> <r_i_glide_eff_state_penalty>
0

> <i_f3d_flags>
0

> <s_user_duplicate_titles>
301110

> <s_m_subgroup_title>
dock_pv

> <s_m_subgroupid>
dock_pv1

> <b_m_subgroup_collapsed>
0

$$$$
209857
                    3D
 Schrodinger Suite 2021-1.
 47 49  0  0  1  0            999 V2000
   -0.9280   26.4388   12.8036 C   0  0  0  0  0  0
   -0.5903   27.0987   11.4437 C   0  0  0  0  0  0
    0.8202   27.7026   11.5374 C   0  0  0  0  0  0
   -0.6247   26.0212   10.3442 C   0  0  0  0  0  0
   -1.5872   28.2028   11.0935 C   0  0  0  0  0  0
   -2.7421   28.4283   11.6542 N   0  0  0  0  0  0
   -3.2321   29.4493   10.9759 C   0  0  0  0  0  0
   -2.3826   29.8914   10.0053 C   0  0  0  0  0  0
   -1.3308   29.0364   10.0506 O   0  0  0  0  0  0
   -2.4666   30.9970    8.9664 C   0  0  0  0  0  0
   -1.3043   32.3651    9.2097 S   0  0  0  0  0  0
    0.0583   31.7484    8.2820 C   0  0  0  0  0  0
    0.8693   32.4265    7.3771 C   0  0  0  0  0  0
    1.9494   31.7859    6.9645 N   0  0  0  0  0  0
    2.0800   30.6034    7.5144 C   0  0  0  0  0  0
    0.7601   30.1795    8.5334 S   0  0  0  0  0  0
    3.2462   29.8520    7.3757 N   0  0  0  0  0  0
    3.6562   28.7517    8.0428 C   0  0  0  0  0  0
    3.0276   28.1851    8.9346 O   0  0  0  0  0  0
    5.0202   28.1906    7.6253 C   0  0  0  0  0  0
    4.8607   27.1077    6.5643 C   0  0  0  0  0  0
    4.6590   25.7783    6.9481 C   0  0  0  0  0  0
    4.4581   24.7983    5.9787 C   0  0  0  0  0  0
    4.4587   25.1499    4.6301 C   0  0  0  0  0  0
    4.6589   26.4721    4.2405 C   0  0  0  0  0  0
    4.8575   27.4531    5.2087 C   0  0  0  0  0  0
   -0.1989   25.6732   13.0728 H   0  0  0  0  0  0
   -1.9111   25.9651   12.7867 H   0  0  0  0  0  0
   -0.9428   27.1748   13.6093 H   0  0  0  0  0  0
    1.1212   28.1708   10.6043 H   0  0  0  0  0  0
    0.8605   28.4746   12.3073 H   0  0  0  0  0  0
    1.5649   26.9419   11.7717 H   0  0  0  0  0  0
   -0.4108   26.4681    9.3775 H   0  0  0  0  0  0
    0.1131   25.2360   10.5155 H   0  0  0  0  0  0
   -1.6071   25.5507   10.2692 H   0  0  0  0  0  0
   -4.2059   29.8520   11.1891 H   0  0  0  0  0  0
   -2.3662   30.6449    7.9486 H   0  0  0  0  0  0
   -3.4619   31.4399    9.0016 H   0  0  0  0  0  0
    0.7078   33.4516    7.0653 H   0  0  0  0  0  0
    3.9209   30.2898    6.7517 H   0  0  0  0  0  0
    5.6571   28.9920    7.2484 H   0  0  0  0  0  0
    5.5191   27.7858    8.5079 H   0  0  0  0  0  0
    4.6414   25.5106    7.9953 H   0  0  0  0  0  0
    4.2894   23.7724    6.2713 H   0  0  0  0  0  0
    4.2989   24.3929    3.8748 H   0  0  0  0  0  0
    4.6572   26.7299    3.1912 H   0  0  0  0  0  0
    5.0071   28.4798    4.9064 H   0  0  0  0  0  0
  1  2  1  0  0  0
  1 27  1  0  0  0
  1 28  1  0  0  0
  1 29  1  0  0  0
  2  3  1  0  0  0
  2  4  1  0  0  0
  2  5  1  0  0  0
  3 30  1  0  0  0
  3 31  1  0  0  0
  3 32  1  0  0  0
  4 33  1  0  0  0
  4 34  1  0  0  0
  4 35  1  0  0  0
  5  9  1  0  0  0
  5  6  2  0  0  0
  6  7  1  0  0  0
  7  8  2  0  0  0
  7 36  1  0  0  0
  8  9  1  0  0  0
  8 10  1  0  0  0
 10 11  1  0  0  0
 10 37  1  0  0  0
 10 38  1  0  0  0
 11 12  1  0  0  0
 12 16  1  0  0  0
 12 13  2  0  0  0
 13 14  1  0  0  0
 13 39  1  0  0  0
 14 15  2  0  0  0
 15 16  1  0  0  0
 15 17  1  0  0  0
 17 18  1  0  0  0
 17 40  1  0  0  0
 18 19  2  0  0  0
 18 20  1  0  0  0
 20 21  1  0  0  0
 20 41  1  0  0  0
 20 42  1  0  0  0
 21 26  1  0  0  0
 21 22  2  0  0  0
 22 23  1  0  0  0
 22 43  1  0  0  0
 23 24  2  0  0  0
 23 44  1  0  0  0
 24 25  1  0  0  0
 24 45  1  0  0  0
 25 26  2  0  0  0
 25 46  1  0  0  0
 26 47  1  0  0  0
M  END
> <s_m_entry_id>
34577

> <s_m_entry_name>
ligand_docking-pose.74

> <s_m_Source_Path>
/home/csk/Desktop/cluster/DUD-E-result/cdk2

> <s_m_Source_File>
ligand_docking-pose.sdf

> <i_m_Source_File_Index>
74

> <i_lp_mmshare_version>
53161

> <r_lp_tautomer_probability>
0.999000488399163

> <s_lp_Force_Field>
OPLS_2005

> <r_lp_Energy>
10.135609

> <b_lp_Chiralities_Consistent>
1

> <s_lp_Variant>
209857-1

> <s_i_glide_gridfile>
glide-grid_1h00

> <i_i_glide_lignum>
1159

> <i_i_glide_rotatable_bonds>
8

> <r_i_docking_score>
-8.32371428966543

> <r_i_glide_ligand_efficiency>
-0.320142857294824

> <r_i_glide_ligand_efficiency_sa>
-0.948421955034602

> <r_i_glide_ligand_efficiency_ln>
-1.95479698859365

> <r_i_glide_gscore>
-8.32371428966543

> <r_i_glide_lipo>
-3.2647099244846

> <r_i_glide_hbond>
-0.60680839918722

> <r_i_glide_metal>
0

> <r_i_glide_rewards>
-2.55100604548642

> <r_i_glide_evdw>
-30.6903686523438

> <r_i_glide_ecoul>
-6.07555532455444

> <r_i_glide_erotb>
0.544661810793165

> <r_i_glide_esite>
0

> <r_i_glide_emodel>
-52.8198956679382

> <r_i_glide_energy>
-36.7659239768982

> <r_i_glide_einternal>
4.90604114532471

> <i_i_glide_confnum>
37

> <i_i_glide_posenum>
61

> <r_i_glide_eff_state_penalty>
0

> <i_f3d_flags>
0

> <s_user_duplicate_titles>
209857

> <s_m_subgroup_title>
dock_pv

> <s_m_subgroupid>
dock_pv1

> <b_m_subgroup_collapsed>
0

$$$$
301146
                    3D
 Schrodinger Suite 2021-1.
 24 26  0  0  1  0            999 V2000
   -1.7224   31.6413    9.1056 C   0  0  0  0  0  0
   -0.8000   30.6097    9.0968 C   0  0  0  0  0  0
   -1.3504   29.6192    9.9249 C   0  0  0  0  0  0
   -2.5040   29.9844   10.4341 N   0  0  0  0  0  0
   -2.7191   31.2097    9.9405 N   0  0  0  0  0  0
   -0.6850   28.2640   10.1351 C   0  0  0  0  0  0
    0.8682   28.3806   10.0703 C   0  0  0  0  0  0
    1.3238   29.3561    8.9760 C   0  0  0  0  0  0
    0.4937   30.3920    8.4967 C   0  0  0  0  0  0
    1.0515   31.1075    7.5486 N   0  0  0  0  0  0
    2.2376   30.5232    7.3622 N   0  0  0  0  0  0
    2.4773   29.4527    8.1906 C   0  0  0  0  0  0
    3.6586   28.6250    8.1707 C   0  0  0  0  0  0
    3.7207   27.5716    8.7927 O   0  0  0  0  0  0
    4.6696   29.0519    7.4113 N   0  0  0  0  0  0
   -3.5341   31.7464   10.2017 H   0  0  0  0  0  0
    2.9002   30.8666    6.6769 H   0  0  0  0  0  0
   -1.7452   32.6168    8.6400 H   0  0  0  0  0  0
   -0.9889   27.8209   11.0838 H   0  0  0  0  0  0
   -1.0326   27.5662    9.3732 H   0  0  0  0  0  0
    1.2570   28.6741   11.0463 H   0  0  0  0  0  0
    1.2906   27.3910    9.8957 H   0  0  0  0  0  0
    5.4869   28.4668    7.3263 H   0  0  0  0  0  0
    4.6622   29.9619    6.9656 H   0  0  0  0  0  0
  1  5  1  0  0  0
  1  2  2  0  0  0
  1 18  1  0  0  0
  2  9  1  0  0  0
  2  3  1  0  0  0
  3  4  2  0  0  0
  3  6  1  0  0  0
  4  5  1  0  0  0
  5 16  1  0  0  0
  6  7  1  0  0  0
  6 19  1  0  0  0
  6 20  1  0  0  0
  7  8  1  0  0  0
  7 21  1  0  0  0
  7 22  1  0  0  0
  8 12  2  0  0  0
  8  9  1  0  0  0
  9 10  2  0  0  0
 10 11  1  0  0  0
 11 17  1  0  0  0
 11 12  1  0  0  0
 12 13  1  0  0  0
 13 14  2  0  0  0
 13 15  1  0  0  0
 15 23  1  0  0  0
 15 24  1  0  0  0
M  END
> <s_m_entry_id>
34578

> <s_m_entry_name>
ligand_docking-pose.75

> <s_m_Source_Path>
/home/csk/Desktop/cluster/DUD-E-result/cdk2

> <s_m_Source_File>
ligand_docking-pose.sdf

> <i_m_Source_File_Index>
75

> <i_lp_mmshare_version>
53161

> <r_lp_tautomer_probability>
0.333333333333333

> <s_lp_Force_Field>
OPLS_2005

> <r_lp_Energy>
15.318684

> <b_lp_Chiralities_Consistent>
1

> <s_lp_Variant>
301146-1

> <s_i_glide_gridfile>
glide-grid_1h00

> <i_i_glide_lignum>
3

> <i_i_glide_rotatable_bonds>
1

> <r_i_docking_score>
-8.3234628424246

> <r_i_glide_ligand_efficiency>
-0.554897522828307

> <r_i_glide_ligand_efficiency_sa>
-1.36849496957992

> <r_i_glide_ligand_efficiency_ln>
-2.24470068931388

> <r_i_glide_gscore>
-8.3234628424246

> <r_i_glide_lipo>
-1.98687396247913

> <r_i_glide_hbond>
-0.608

> <r_i_glide_metal>
0

> <r_i_glide_rewards>
-3.4569651969697

> <r_i_glide_evdw>
-28.6103496551514

> <r_i_glide_ecoul>
-5.60737466812134

> <r_i_glide_erotb>
0

> <r_i_glide_esite>
0

> <r_i_glide_emodel>
-52.6332499538927

> <r_i_glide_energy>
-34.2177243232727

> <r_i_glide_einternal>
0.0750160962343216

> <i_i_glide_confnum>
1

> <i_i_glide_posenum>
370

> <r_i_glide_eff_state_penalty>
0

> <i_f3d_flags>
0

> <s_user_duplicate_titles>
301146

> <s_m_subgroup_title>
dock_pv

> <s_m_subgroupid>
dock_pv1

> <b_m_subgroup_collapsed>
0

$$$$
310697
                    3D
 Schrodinger Suite 2021-1.
 52 55  0  0  1  0            999 V2000
   -1.3910   24.7942   11.1410 C   0  0  0  0  0  0
   -0.1557   25.3503   11.8734 C   0  0  0  0  0  0
    1.0474   24.3919   11.7443 C   0  0  0  0  0  0
   -0.4820   25.7108   13.3474 C   0  0  0  0  0  0
   -0.3583   24.8619   14.2313 O   0  0  0  0  0  0
   -0.8011   26.9785   13.6725 N   0  0  0  0  0  0
   -1.5757   27.6906   12.7660 N   0  0  0  0  0  0
   -1.0676   28.8187   12.2389 C   0  0  0  0  0  0
    0.0558   29.2742   12.4755 O   0  0  0  0  0  0
   -1.9430   29.3669   11.3761 N   0  0  0  0  0  0
   -1.6414   30.3537   10.4307 C   0  0  0  0  0  0
   -2.5177   31.4431   10.3855 C   0  0  0  0  0  0
   -2.2219   32.5671    9.6249 C   0  0  0  0  0  0
   -1.1365   32.5621    8.7641 C   0  0  0  0  0  0
   -0.3420   31.4256    8.7035 C   0  0  0  0  0  0
   -0.5486   30.3287    9.5431 C   0  0  0  0  0  0
    0.4964   29.2850    9.2802 C   0  0  0  0  0  0
    0.6072   28.1690    9.7794 O   0  0  0  0  0  0
    1.3397   29.8721    8.2633 C   0  0  0  0  0  0
    0.8215   31.1057    7.9072 C   0  0  0  0  0  0
    1.5040   31.7109    6.9760 N   0  0  0  0  0  0
    2.4578   30.8302    6.7089 N   0  0  0  0  0  0
    2.4657   29.7037    7.4720 C   0  0  0  0  0  0
    3.5069   28.6520    7.3182 C   0  0  0  0  0  0
    3.7687   27.7696    8.3648 C   0  0  0  0  0  0
    4.6733   26.7296    8.1760 C   0  0  0  0  0  0
    5.3580   26.5739    6.9746 C   0  0  0  0  0  0
    5.0958   27.4643    5.9265 C   0  0  0  0  0  0
    4.1784   28.4959    6.0991 C   0  0  0  0  0  0
    6.2633   25.5327    6.9094 O   0  0  0  0  0  0
    7.0428   25.3677    5.7294 C   0  0  0  0  0  0
    3.2211   31.0527    6.0788 H   0  0  0  0  0  0
   -2.2440   25.4697   11.2019 H   0  0  0  0  0  0
   -1.7024   23.8376   11.5578 H   0  0  0  0  0  0
   -1.1845   24.6522   10.0808 H   0  0  0  0  0  0
    0.1407   26.2677   11.3666 H   0  0  0  0  0  0
    1.9486   24.8266   12.1790 H   0  0  0  0  0  0
    0.8637   23.4395   12.2418 H   0  0  0  0  0  0
    1.2712   24.1809   10.6976 H   0  0  0  0  0  0
   -1.0098   27.2390   14.6237 H   0  0  0  0  0  0
   -2.5544   27.6439   13.0135 H   0  0  0  0  0  0
   -2.9021   29.3640   11.6957 H   0  0  0  0  0  0
   -3.4148   31.4676   10.9760 H   0  0  0  0  0  0
   -2.8324   33.4478    9.7138 H   0  0  0  0  0  0
   -0.9211   33.4306    8.1576 H   0  0  0  0  0  0
    3.2565   27.8625    9.3118 H   0  0  0  0  0  0
    4.8512   26.0311    8.9759 H   0  0  0  0  0  0
    5.6033   27.3801    4.9775 H   0  0  0  0  0  0
    3.9899   29.1640    5.2718 H   0  0  0  0  0  0
    7.7174   24.5212    5.8577 H   0  0  0  0  0  0
    6.4175   25.1597    4.8599 H   0  0  0  0  0  0
    7.6543   26.2488    5.5271 H   0  0  0  0  0  0
  1  2  1  0  0  0
  1 33  1  0  0  0
  1 34  1  0  0  0
  1 35  1  0  0  0
  2  3  1  0  0  0
  2  4  1  0  0  0
  2 36  1  0  0  0
  3 37  1  0  0  0
  3 38  1  0  0  0
  3 39  1  0  0  0
  4  5  2  0  0  0
  4  6  1  0  0  0
  6  7  1  0  0  0
  6 40  1  0  0  0
  7  8  1  0  0  0
  7 41  1  0  0  0
  8  9  2  0  0  0
  8 10  1  0  0  0
 10 11  1  0  0  0
 10 42  1  0  0  0
 11 16  1  0  0  0
 11 12  2  0  0  0
 12 13  1  0  0  0
 12 43  1  0  0  0
 13 14  2  0  0  0
 13 44  1  0  0  0
 14 15  1  0  0  0
 14 45  1  0  0  0
 15 20  1  0  0  0
 15 16  2  0  0  0
 16 17  1  0  0  0
 17 18  2  0  0  0
 17 19  1  0  0  0
 19 23  2  0  0  0
 19 20  1  0  0  0
 20 21  2  0  0  0
 21 22  1  0  0  0
 22 32  1  0  0  0
 22 23  1  0  0  0
 23 24  1  0  0  0
 24 29  1  0  0  0
 24 25  2  0  0  0
 25 26  1  0  0  0
 25 46  1  0  0  0
 26 27  2  0  0  0
 26 47  1  0  0  0
 27 28  1  0  0  0
 27 30  1  0  0  0
 28 29  2  0  0  0
 28 48  1  0  0  0
 29 49  1  0  0  0
 30 31  1  0  0  0
 31 50  1  0  0  0
 31 51  1  0  0  0
 31 52  1  0  0  0
M  END
> <s_m_entry_id>
34579

> <s_m_entry_name>
ligand_docking-pose.76

> <s_m_Source_Path>
/home/csk/Desktop/cluster/DUD-E-result/cdk2

> <s_m_Source_File>
ligand_docking-pose.sdf

> <i_m_Source_File_Index>
76

> <i_lp_mmshare_version>
53161

> <r_lp_tautomer_probability>
1

> <s_lp_Force_Field>
OPLS_2005

> <r_lp_Energy>
60.592058

> <b_lp_Chiralities_Consistent>
1

> <s_lp_Variant>
310697-1

> <s_i_glide_gridfile>
glide-grid_1h00

> <i_i_glide_lignum>
1239

> <i_i_glide_rotatable_bonds>
8

> <r_i_docking_score>
-8.32239918351085

> <r_i_glide_ligand_efficiency>
-0.268464489790673

> <r_i_glide_ligand_efficiency_sa>
-0.843349153117195

> <r_i_glide_ligand_efficiency_ln>
-1.87695606678622

> <r_i_glide_gscore>
-8.32239918351085

> <r_i_glide_lipo>
-2.88975685858369

> <r_i_glide_hbond>
-0.375610910801247

> <r_i_glide_metal>
0

> <r_i_glide_rewards>
-2.05429190833707

> <r_i_glide_evdw>
-38.8770599365234

> <r_i_glide_ecoul>
-11.1591701507568

> <r_i_glide_erotb>
0.674721814484407

> <r_i_glide_esite>
-0.0597328008335577

> <r_i_glide_emodel>
-70.53174682465

> <r_i_glide_energy>
-50.0362300872803

> <r_i_glide_einternal>
11.8325281143188

> <i_i_glide_confnum>
3

> <i_i_glide_posenum>
25

> <r_i_glide_eff_state_penalty>
0

> <i_f3d_flags>
0

> <s_user_duplicate_titles>
310697

> <s_m_subgroup_title>
dock_pv

> <s_m_subgroupid>
dock_pv1

> <b_m_subgroup_collapsed>
0

$$$$
248758
                    3D
 Schrodinger Suite 2021-1.
 40 43  0  0  1  0            999 V2000
   -1.7178   27.5685   13.0557 C   0  0  0  0  0  0
   -1.1122   28.7409   12.2932 C   0  0  0  0  0  0
    0.0578   29.0536   12.5024 O   0  0  0  0  0  0
   -1.9360   29.3948   11.4542 N   0  0  0  0  0  0
   -1.5755   30.3981   10.5433 C   0  0  0  0  0  0
   -2.3682   31.5500   10.5760 C   0  0  0  0  0  0
   -2.1349   32.6257    9.7314 C   0  0  0  0  0  0
   -1.1211   32.5571    8.7911 C   0  0  0  0  0  0
   -0.3386   31.4107    8.7342 C   0  0  0  0  0  0
   -0.5258   30.3307    9.6042 C   0  0  0  0  0  0
    0.4962   29.2682    9.3142 C   0  0  0  0  0  0
    0.6060   28.1515    9.8153 O   0  0  0  0  0  0
    1.3361   29.8520    8.2842 C   0  0  0  0  0  0
    0.8111   31.0806    7.9207 C   0  0  0  0  0  0
    1.4820   31.6819    6.9761 N   0  0  0  0  0  0
    2.4579   30.8206    6.7277 N   0  0  0  0  0  0
    2.4637   29.6914    7.4869 C   0  0  0  0  0  0
    3.5134   28.6519    7.3276 C   0  0  0  0  0  0
    4.1960   28.5112    6.1115 C   0  0  0  0  0  0
    5.1253   27.4902    5.9359 C   0  0  0  0  0  0
    5.3784   26.6013    6.9784 C   0  0  0  0  0  0
    4.6839   26.7271    8.1760 C   0  0  0  0  0  0
    3.7708   27.7588    8.3668 C   0  0  0  0  0  0
    6.5814   25.3084    6.8316 S   0  0  0  0  0  0
    7.4083   25.4617    5.2229 C   0  0  0  0  0  0
    3.2195   31.0520    6.0978 H   0  0  0  0  0  0
   -1.9381   27.8524   14.0842 H   0  0  0  0  0  0
   -1.0176   26.7329   13.0687 H   0  0  0  0  0  0
   -2.6446   27.2292   12.5915 H   0  0  0  0  0  0
   -2.9028   29.4022   11.7485 H   0  0  0  0  0  0
   -3.1420   31.6665   11.3096 H   0  0  0  0  0  0
   -2.7418   33.5113    9.8166 H   0  0  0  0  0  0
   -0.9300   33.3983    8.1399 H   0  0  0  0  0  0
    4.0092   29.1866    5.2900 H   0  0  0  0  0  0
    5.6486   27.4157    4.9954 H   0  0  0  0  0  0
    4.8574   26.0259    8.9757 H   0  0  0  0  0  0
    3.2484   27.8371    9.3097 H   0  0  0  0  0  0
    8.1716   24.6904    5.1208 H   0  0  0  0  0  0
    6.6919   25.3430    4.4100 H   0  0  0  0  0  0
    7.8919   26.4346    5.1303 H   0  0  0  0  0  0
  1  2  1  0  0  0
  1 27  1  0  0  0
  1 28  1  0  0  0
  1 29  1  0  0  0
  2  3  2  0  0  0
  2  4  1  0  0  0
  4  5  1  0  0  0
  4 30  1  0  0  0
  5 10  1  0  0  0
  5  6  2  0  0  0
  6  7  1  0  0  0
  6 31  1  0  0  0
  7  8  2  0  0  0
  7 32  1  0  0  0
  8  9  1  0  0  0
  8 33  1  0  0  0
  9 14  1  0  0  0
  9 10  2  0  0  0
 10 11  1  0  0  0
 11 12  2  0  0  0
 11 13  1  0  0  0
 13 17  2  0  0  0
 13 14  1  0  0  0
 14 15  2  0  0  0
 15 16  1  0  0  0
 16 26  1  0  0  0
 16 17  1  0  0  0
 17 18  1  0  0  0
 18 23  1  0  0  0
 18 19  2  0  0  0
 19 20  1  0  0  0
 19 34  1  0  0  0
 20 21  2  0  0  0
 20 35  1  0  0  0
 21 22  1  0  0  0
 21 24  1  0  0  0
 22 23  2  0  0  0
 22 36  1  0  0  0
 23 37  1  0  0  0
 24 25  1  0  0  0
 25 38  1  0  0  0
 25 39  1  0  0  0
 25 40  1  0  0  0
M  END
> <s_m_entry_id>
34582

> <s_m_entry_name>
ligand_docking-pose.79

> <s_m_Source_Path>
/home/csk/Desktop/cluster/DUD-E-result/cdk2

> <s_m_Source_File>
ligand_docking-pose.sdf

> <i_m_Source_File_Index>
79

> <i_lp_mmshare_version>
53161

> <r_lp_tautomer_probability>
1

> <s_lp_Force_Field>
OPLS_2005

> <r_lp_Energy>
56.045194

> <b_lp_Chiralities_Consistent>
1

> <s_lp_Variant>
248758-1

> <s_i_glide_gridfile>
glide-grid_1h00

> <i_i_glide_lignum>
1386

> <i_i_glide_rotatable_bonds>
4

> <r_i_docking_score>
-8.29964308595118

> <r_i_glide_ligand_efficiency>
-0.331985723438047

> <r_i_glide_ligand_efficiency_sa>
-0.970732143124726

> <r_i_glide_ligand_efficiency_ln>
-1.96726413160323

> <r_i_glide_gscore>
-8.29964308595118

> <r_i_glide_lipo>
-2.72779584160815

> <r_i_glide_hbond>
-0.344977707332668

> <r_i_glide_metal>
0

> <r_i_glide_rewards>
-2.43656777530629

> <r_i_glide_evdw>
-30.936149597168

> <r_i_glide_ecoul>
-10.0892572402954

> <r_i_glide_erotb>
0.312049853571745

> <r_i_glide_esite>
-0.0421555493731125

> <r_i_glide_emodel>
-62.4051170639063

> <r_i_glide_energy>
-41.0254068374634

> <r_i_glide_einternal>
5.5154824256897

> <i_i_glide_confnum>
6

> <i_i_glide_posenum>
116

> <r_i_glide_eff_state_penalty>
0

> <i_f3d_flags>
0

> <s_user_duplicate_titles>
248758

> <s_m_subgroup_title>
dock_pv

> <s_m_subgroupid>
dock_pv1

> <b_m_subgroup_collapsed>
0

$$$$
303796
                    3D
 Schrodinger Suite 2021-1.
 38 40  0  0  1  0            999 V2000
   -1.1415   26.6735   10.0329 C   0  0  0  0  0  0
   -0.2358   27.8332   10.4860 C   0  0  0  0  0  0
    0.0583   27.7948   11.9987 C   0  0  0  0  0  0
   -0.7477   29.2172   10.0143 C   0  0  0  0  0  0
   -1.9585   29.7536   10.4897 C   0  0  0  0  0  0
   -2.3915   31.0133   10.0810 C   0  0  0  0  0  0
   -1.6536   31.7791    9.1839 C   0  0  0  0  0  0
   -0.4319   31.2813    8.6790 C   0  0  0  0  0  0
    0.0326   29.9983    9.0956 C   0  0  0  0  0  0
    1.2248   29.5342    8.6328 N   0  0  0  0  0  0
    1.9469   30.2959    7.7777 C   0  0  0  0  0  0
    1.5793   31.5091    7.3051 N   0  0  0  0  0  0
    0.4054   31.9901    7.7764 C   0  0  0  0  0  0
    3.2069   29.8512    7.3768 N   0  0  0  0  0  0
    3.8363   28.6075    7.5020 C   0  0  0  0  0  0
    4.6931   28.2298    6.4695 C   0  0  0  0  0  0
    5.2483   26.9538    6.4539 C   0  0  0  0  0  0
    4.9236   26.0524    7.4655 C   0  0  0  0  0  0
    4.0892   26.4346    8.5137 C   0  0  0  0  0  0
    3.5944   27.7318    8.5692 C   0  0  0  0  0  0
   -2.7418   29.0552   11.3746 O   0  0  0  0  0  0
   -1.4020   26.7626    8.9769 H   0  0  0  0  0  0
   -0.6415   25.7137   10.1604 H   0  0  0  0  0  0
   -2.0651   26.6297   10.6088 H   0  0  0  0  0  0
    0.7226   27.6210   10.0165 H   0  0  0  0  0  0
    0.7093   28.6205   12.2900 H   0  0  0  0  0  0
   -0.8460   27.8564   12.6031 H   0  0  0  0  0  0
    0.5663   26.8696   12.2726 H   0  0  0  0  0  0
   -3.3223   31.4056   10.4664 H   0  0  0  0  0  0
   -2.0070   32.7552    8.8791 H   0  0  0  0  0  0
    0.1150   32.9727    7.4301 H   0  0  0  0  0  0
    3.7090   30.5163    6.7918 H   0  0  0  0  0  0
    4.9102   28.9089    5.6579 H   0  0  0  0  0  0
    5.9089   26.6605    5.6537 H   0  0  0  0  0  0
    5.3342   25.0559    7.4484 H   0  0  0  0  0  0
    3.8599   25.7399    9.3069 H   0  0  0  0  0  0
    2.9873   28.0157    9.4112 H   0  0  0  0  0  0
   -3.2648   29.6421   11.9426 H   0  0  0  0  0  0
  1  2  1  0  0  0
  1 22  1  0  0  0
  1 23  1  0  0  0
  1 24  1  0  0  0
  2  3  1  0  0  0
  2  4  1  0  0  0
  2 25  1  0  0  0
  3 26  1  0  0  0
  3 27  1  0  0  0
  3 28  1  0  0  0
  4  9  1  0  0  0
  4  5  2  0  0  0
  5  6  1  0  0  0
  5 21  1  0  0  0
  6  7  2  0  0  0
  6 29  1  0  0  0
  7  8  1  0  0  0
  7 30  1  0  0  0
  8 13  2  0  0  0
  8  9  1  0  0  0
  9 10  2  0  0  0
 10 11  1  0  0  0
 11 12  2  0  0  0
 11 14  1  0  0  0
 12 13  1  0  0  0
 13 31  1  0  0  0
 14 15  1  0  0  0
 14 32  1  0  0  0
 15 20  1  0  0  0
 15 16  2  0  0  0
 16 17  1  0  0  0
 16 33  1  0  0  0
 17 18  2  0  0  0
 17 34  1  0  0  0
 18 19  1  0  0  0
 18 35  1  0  0  0
 19 20  2  0  0  0
 19 36  1  0  0  0
 20 37  1  0  0  0
 21 38  1  0  0  0
M  END
> <s_m_entry_id>
34583

> <s_m_entry_name>
ligand_docking-pose.80

> <s_m_Source_Path>
/home/csk/Desktop/cluster/DUD-E-result/cdk2

> <s_m_Source_File>
ligand_docking-pose.sdf

> <i_m_Source_File_Index>
80

> <i_lp_mmshare_version>
53161

> <r_lp_tautomer_probability>
1

> <s_lp_Force_Field>
OPLS_2005

> <r_lp_Energy>
13.819098

> <b_lp_Chiralities_Consistent>
1

> <s_lp_Variant>
303796-1

> <s_i_glide_gridfile>
glide-grid_1h00

> <i_i_glide_lignum>
1087

> <i_i_glide_rotatable_bonds>
4

> <r_i_docking_score>
-8.29941255078621

> <r_i_glide_ligand_efficiency>
-0.39521012146601

> <r_i_glide_ligand_efficiency_sa>
-1.09035475775656

> <r_i_glide_ligand_efficiency_ln>
-2.05201298263975

> <r_i_glide_gscore>
-8.29941255078621

> <r_i_glide_lipo>
-2.66265099950028

> <r_i_glide_hbond>
-0.456

> <r_i_glide_metal>
0

> <r_i_glide_rewards>
-2.87984336241722

> <r_i_glide_evdw>
-28.41282081604

> <r_i_glide_ecoul>
-8.95136737823486

> <r_i_glide_erotb>
0.462427958668519

> <r_i_glide_esite>
0

> <r_i_glide_emodel>
-55.3894760141894

> <r_i_glide_energy>
-37.3641881942749

> <r_i_glide_einternal>
1.41333556175232

> <i_i_glide_confnum>
3

> <i_i_glide_posenum>
64

> <r_i_glide_eff_state_penalty>
0

> <i_f3d_flags>
0

> <s_user_duplicate_titles>
303796

> <s_m_subgroup_title>
dock_pv

> <s_m_subgroupid>
dock_pv1

> <b_m_subgroup_collapsed>
0

$$$$
311789
                    3D
 Schrodinger Suite 2021-1.
 38 40  0  0  1  0            999 V2000
    4.5141   25.2826    4.5757 C   0  0  0  0  0  0
    4.4578   24.8276    5.8920 C   0  0  0  0  0  0
    4.6007   25.7316    6.9424 C   0  0  0  0  0  0
    4.8026   27.0887    6.6729 C   0  0  0  0  0  0
    4.8573   27.5374    5.3488 C   0  0  0  0  0  0
    4.7161   26.6328    4.2998 C   0  0  0  0  0  0
    4.8872   28.0881    7.8213 C   0  0  0  0  0  0
    3.5040   28.6521    8.1757 C   0  0  0  0  0  0
    2.8576   28.1357    9.0862 O   0  0  0  0  0  0
    3.1016   29.7070    7.4380 N   0  0  0  0  0  0
    1.9567   30.4793    7.5721 C   0  0  0  0  0  0
    1.8987   31.6372    6.9760 N   0  0  0  0  0  0
    0.8580   32.3334    7.3760 C   0  0  0  0  0  0
   -0.0711   31.7159    8.2037 C   0  0  0  0  0  0
    0.5659   30.1255    8.5711 S   0  0  0  0  0  0
   -1.3561   32.2818    8.7775 C   0  0  0  0  0  0
   -2.6298   31.4306    8.5828 C   0  0  0  0  0  0
   -3.3323   31.3691    9.9477 C   0  0  0  0  0  0
   -2.7048   32.4962   10.7672 C   0  0  0  0  0  0
   -1.2656   32.5259   10.2822 C   0  0  0  0  0  0
    4.3985   24.5854    3.7571 H   0  0  0  0  0  0
    4.2898   23.7806    6.0971 H   0  0  0  0  0  0
    4.5366   25.3832    7.9636 H   0  0  0  0  0  0
    5.0073   28.5852    5.1319 H   0  0  0  0  0  0
    4.7598   26.9722    3.2752 H   0  0  0  0  0  0
    5.3106   27.6111    8.7074 H   0  0  0  0  0  0
    5.5636   28.9023    7.5557 H   0  0  0  0  0  0
    3.7731   30.0771    6.7750 H   0  0  0  0  0  0
    0.7479   33.3417    7.0061 H   0  0  0  0  0  0
   -1.5316   33.2581    8.3224 H   0  0  0  0  0  0
   -3.2680   31.8522    7.8054 H   0  0  0  0  0  0
   -2.3898   30.4182    8.2721 H   0  0  0  0  0  0
   -4.4159   31.4520    9.8704 H   0  0  0  0  0  0
   -3.1244   30.4128   10.4319 H   0  0  0  0  0  0
   -3.1935   33.4517   10.5759 H   0  0  0  0  0  0
   -2.7421   32.3145   11.8360 H   0  0  0  0  0  0
   -0.7106   31.7110   10.7496 H   0  0  0  0  0  0
   -0.7544   33.4505   10.5479 H   0  0  0  0  0  0
  1  6  1  0  0  0
  1  2  2  0  0  0
  1 21  1  0  0  0
  2  3  1  0  0  0
  2 22  1  0  0  0
  3  4  2  0  0  0
  3 23  1  0  0  0
  4  5  1  0  0  0
  4  7  1  0  0  0
  5  6  2  0  0  0
  5 24  1  0  0  0
  6 25  1  0  0  0
  7  8  1  0  0  0
  7 26  1  0  0  0
  7 27  1  0  0  0
  8  9  2  0  0  0
  8 10  1  0  0  0
 10 11  1  0  0  0
 10 28  1  0  0  0
 11 15  1  0  0  0
 11 12  2  0  0  0
 12 13  1  0  0  0
 13 14  2  0  0  0
 13 29  1  0  0  0
 14 15  1  0  0  0
 14 16  1  0  0  0
 16 20  1  0  0  0
 16 17  1  0  0  0
 16 30  1  0  0  0
 17 18  1  0  0  0
 17 31  1  0  0  0
 17 32  1  0  0  0
 18 19  1  0  0  0
 18 33  1  0  0  0
 18 34  1  0  0  0
 19 20  1  0  0  0
 19 35  1  0  0  0
 19 36  1  0  0  0
 20 37  1  0  0  0
 20 38  1  0  0  0
M  END
> <s_m_entry_id>
34585

> <s_m_entry_name>
ligand_docking-pose.82

> <s_m_Source_Path>
/home/csk/Desktop/cluster/DUD-E-result/cdk2

> <s_m_Source_File>
ligand_docking-pose.sdf

> <i_m_Source_File_Index>
82

> <i_lp_mmshare_version>
53161

> <r_lp_tautomer_probability>
0.999000488399163

> <s_lp_Force_Field>
OPLS_2005

> <r_lp_Energy>
20.322124

> <b_lp_Chiralities_Consistent>
1

> <s_lp_Variant>
311789-1

> <s_i_glide_gridfile>
glide-grid_1h00

> <i_i_glide_lignum>
274

> <i_i_glide_rotatable_bonds>
5

> <r_i_docking_score>
-8.27792971881386

> <r_i_glide_ligand_efficiency>
-0.413896485940693

> <r_i_glide_ligand_efficiency_sa>
-1.12348791176225

> <r_i_glide_ligand_efficiency_ln>
-2.07169278422427

> <r_i_glide_gscore>
-8.27792971881386

> <r_i_glide_lipo>
-2.87428839991032

> <r_i_glide_hbond>
-0.507558217735024

> <r_i_glide_metal>
0

> <r_i_glide_rewards>
-3.28419446741133

> <r_i_glide_evdw>
-31.7488975524902

> <r_i_glide_ecoul>
-4.29573011398315

> <r_i_glide_erotb>
0.619915760964803

> <r_i_glide_esite>
0

> <r_i_glide_emodel>
-53.6801831490315

> <r_i_glide_energy>
-36.0446276664734

> <r_i_glide_einternal>
3.21965789794922

> <i_i_glide_confnum>
12

> <i_i_glide_posenum>
203

> <r_i_glide_eff_state_penalty>
0

> <i_f3d_flags>
0

> <s_user_duplicate_titles>
311789

> <s_m_subgroup_title>
dock_pv

> <s_m_subgroupid>
dock_pv1

> <b_m_subgroup_collapsed>
0

$$$$
35513
                    3D
 Schrodinger Suite 2021-1.
 37 40  0  0  1  0            999 V2000
    7.0234   25.3706    5.6945 C   0  0  0  0  0  0
    6.2554   25.5233    6.8840 O   0  0  0  0  0  0
    5.3528   26.5653    6.9687 C   0  0  0  0  0  0
    4.6772   26.7085    8.1760 C   0  0  0  0  0  0
    3.7771   27.7482    8.3856 C   0  0  0  0  0  0
    3.5110   28.6473    7.3551 C   0  0  0  0  0  0
    4.1737   28.5031    6.1295 C   0  0  0  0  0  0
    5.0866   27.4710    5.9355 C   0  0  0  0  0  0
    2.4647   29.6883    7.5210 C   0  0  0  0  0  0
    1.3391   29.8525    8.3250 C   0  0  0  0  0  0
    0.8054   31.0691    7.9340 C   0  0  0  0  0  0
    1.4668   31.6602    6.9767 N   0  0  0  0  0  0
    2.4579   30.8134    6.7524 N   0  0  0  0  0  0
   -0.3420   31.4107    8.7424 C   0  0  0  0  0  0
   -1.1244   32.5583    8.7690 C   0  0  0  0  0  0
   -2.1374   32.6508    9.7063 C   0  0  0  0  0  0
   -2.3707   31.5972   10.5760 C   0  0  0  0  0  0
   -1.5765   30.4452   10.5761 C   0  0  0  0  0  0
   -0.5260   30.3510    9.6389 C   0  0  0  0  0  0
    0.5024   29.2867    9.3748 C   0  0  0  0  0  0
    0.6179   28.1850    9.9067 O   0  0  0  0  0  0
   -1.9420   29.4922   11.5361 N   0  0  0  0  0  0
   -1.1381   28.8824   12.4216 C   0  0  0  0  0  0
    0.0581   29.1064   12.5698 O   0  0  0  0  0  0
    3.2210   31.0519    6.1258 H   0  0  0  0  0  0
    7.6965   24.5202    5.8059 H   0  0  0  0  0  0
    6.3881   25.1765    4.8289 H   0  0  0  0  0  0
    7.6367   26.2519    5.4985 H   0  0  0  0  0  0
    4.8573   26.0071    8.9757 H   0  0  0  0  0  0
    3.2708   27.8275    9.3372 H   0  0  0  0  0  0
    3.9812   29.1809    5.3111 H   0  0  0  0  0  0
    5.5867   27.3987    4.9816 H   0  0  0  0  0  0
   -0.9324   33.3819    8.0960 H   0  0  0  0  0  0
   -2.7418   33.5390    9.7766 H   0  0  0  0  0  0
   -3.1421   31.7382   11.3102 H   0  0  0  0  0  0
   -2.9028   29.5621   11.8504 H   0  0  0  0  0  0
   -1.7181   28.1930   13.0564 H   0  0  0  0  0  0
  1  2  1  0  0  0
  1 26  1  0  0  0
  1 27  1  0  0  0
  1 28  1  0  0  0
  2  3  1  0  0  0
  3  8  1  0  0  0
  3  4  2  0  0  0
  4  5  1  0  0  0
  4 29  1  0  0  0
  5  6  2  0  0  0
  5 30  1  0  0  0
  6  7  1  0  0  0
  6  9  1  0  0  0
  7  8  2  0  0  0
  7 31  1  0  0  0
  8 32  1  0  0  0
  9 13  1  0  0  0
  9 10  2  0  0  0
 10 20  1  0  0  0
 10 11  1  0  0  0
 11 12  2  0  0  0
 11 14  1  0  0  0
 12 13  1  0  0  0
 13 25  1  0  0  0
 14 19  2  0  0  0
 14 15  1  0  0  0
 15 16  2  0  0  0
 15 33  1  0  0  0
 16 17  1  0  0  0
 16 34  1  0  0  0
 17 18  2  0  0  0
 17 35  1  0  0  0
 18 19  1  0  0  0
 18 22  1  0  0  0
 19 20  1  0  0  0
 20 21  2  0  0  0
 22 23  1  0  0  0
 22 36  1  0  0  0
 23 24  2  0  0  0
 23 37  1  0  0  0
M  END
> <s_m_entry_id>
34586

> <s_m_entry_name>
ligand_docking-pose.83

> <s_m_Source_Path>
/home/csk/Desktop/cluster/DUD-E-result/cdk2

> <s_m_Source_File>
ligand_docking-pose.sdf

> <i_m_Source_File_Index>
83

> <i_lp_mmshare_version>
53161

> <r_lp_tautomer_probability>
1

> <s_lp_Force_Field>
OPLS_2005

> <r_lp_Energy>
59.751899

> <b_lp_Chiralities_Consistent>
1

> <s_lp_Variant>
35513-1

> <s_i_glide_gridfile>
glide-grid_1h00

> <i_i_glide_lignum>
1621

> <i_i_glide_rotatable_bonds>
4

> <r_i_docking_score>
-8.27716775400341

> <r_i_glide_ligand_efficiency>
-0.344881989750142

> <r_i_glide_ligand_efficiency_sa>
-0.994811801993958

> <r_i_glide_ligand_efficiency_ln>
-1.9811060580122

> <r_i_glide_gscore>
-8.27716775400341

> <r_i_glide_lipo>
-2.63073229087883

> <r_i_glide_hbond>
-0.387340195295184

> <r_i_glide_metal>
0

> <r_i_glide_rewards>
-2.68074384888305

> <r_i_glide_evdw>
-28.071569442749

> <r_i_glide_ecoul>
-9.95184803009033

> <r_i_glide_erotb>
0.36596408743113

> <r_i_glide_esite>
-0.0479598297264843

> <r_i_glide_emodel>
-56.5475624687217

> <r_i_glide_energy>
-38.0234174728394

> <r_i_glide_einternal>
5.63624143600464

> <i_i_glide_confnum>
6

> <i_i_glide_posenum>
308

> <r_i_glide_eff_state_penalty>
0

> <i_f3d_flags>
0

> <s_user_duplicate_titles>
35513

> <s_m_subgroup_title>
dock_pv

> <s_m_subgroupid>
dock_pv1

> <b_m_subgroup_collapsed>
0

$$$$
301205
                    3D
 Schrodinger Suite 2021-1.
 30 32  0  0  1  0            999 V2000
    3.1772   28.1448    9.2658 C   0  0  0  0  0  0
    2.0765   28.9744    8.9758 C   0  0  0  0  0  0
    2.5210   29.7948    7.9569 C   0  0  0  0  0  0
    3.8341   29.4521    7.7757 N   0  0  0  0  0  0
    4.2345   28.4356    8.5429 N   0  0  0  0  0  0
    1.7596   30.9348    7.2952 C   0  0  0  0  0  0
    0.4578   31.3196    8.0790 C   0  0  0  0  0  0
   -0.0389   30.2627    9.0797 C   0  0  0  0  0  0
    0.7237   29.1609    9.4613 C   0  0  0  0  0  0
   -0.0598   28.4486   10.3370 N   0  0  0  0  0  0
   -1.2580   29.0236   10.5150 N   0  0  0  0  0  0
   -1.2695   30.1021    9.7591 C   0  0  0  0  0  0
   -2.4202   30.9597    9.6356 C   0  0  0  0  0  0
   -3.5410   30.5284    9.3760 O   0  0  0  0  0  0
   -2.1803   32.2559    9.8339 N   0  0  0  0  0  0
    0.2821   27.2417   11.0959 C   0  0  0  0  0  0
   -0.7951   26.1372   11.0281 C   0  0  0  0  0  0
   -0.3306   25.0140   11.5759 F   0  0  0  0  0  0
   -1.1413   25.8488    9.7722 F   0  0  0  0  0  0
   -1.9010   26.4669   11.6953 F   0  0  0  0  0  0
    4.4565   29.9214    7.1281 H   0  0  0  0  0  0
    3.2406   27.3702   10.0147 H   0  0  0  0  0  0
    1.4903   30.6521    6.2796 H   0  0  0  0  0  0
    2.4021   31.8095    7.1819 H   0  0  0  0  0  0
   -0.3418   31.5310    7.3761 H   0  0  0  0  0  0
    0.6148   32.2746    8.5760 H   0  0  0  0  0  0
   -1.2533   32.5747   10.0644 H   0  0  0  0  0  0
   -2.9518   32.9066    9.7975 H   0  0  0  0  0  0
    0.4845   27.5293   12.1294 H   0  0  0  0  0  0
    1.2066   26.8399   10.6915 H   0  0  0  0  0  0
  1 22  1  0  0  0
  1  5  2  0  0  0
  1  2  1  0  0  0
  2  3  2  0  0  0
  2  9  1  0  0  0
  3  4  1  0  0  0
  3  6  1  0  0  0
  4  5  1  0  0  0
  4 21  1  0  0  0
  6  7  1  0  0  0
  6 23  1  0  0  0
  6 24  1  0  0  0
  7  8  1  0  0  0
  7 25  1  0  0  0
  7 26  1  0  0  0
  8 12  1  0  0  0
  8  9  2  0  0  0
  9 10  1  0  0  0
 10 11  1  0  0  0
 10 16  1  0  0  0
 11 12  2  0  0  0
 12 13  1  0  0  0
 13 14  2  0  0  0
 13 15  1  0  0  0
 15 27  1  0  0  0
 15 28  1  0  0  0
 16 17  1  0  0  0
 16 29  1  0  0  0
 16 30  1  0  0  0
 17 18  1  0  0  0
 17 19  1  0  0  0
 17 20  1  0  0  0
M  END
> <s_m_entry_id>
34587

> <s_m_entry_name>
ligand_docking-pose.84

> <s_m_Source_Path>
/home/csk/Desktop/cluster/DUD-E-result/cdk2

> <s_m_Source_File>
ligand_docking-pose.sdf

> <i_m_Source_File_Index>
84

> <i_lp_mmshare_version>
53161

> <r_lp_tautomer_probability>
0.5

> <s_lp_Force_Field>
OPLS_2005

> <r_lp_Energy>
19.685711

> <b_lp_Chiralities_Consistent>
1

> <s_lp_Variant>
301205-2

> <s_i_glide_gridfile>
glide-grid_1h00

> <i_i_glide_lignum>
2

> <i_i_glide_rotatable_bonds>
3

> <r_i_docking_score>
-8.27583217103633

> <r_i_glide_ligand_efficiency>
-0.413791608551817

> <r_i_glide_ligand_efficiency_sa>
-1.12320323073059

> <r_i_glide_ligand_efficiency_ln>
-2.07116783719732

> <r_i_glide_gscore>
-8.27583217103633

> <r_i_glide_lipo>
-2.1107790872875

> <r_i_glide_hbond>
-0.2900417753729

> <r_i_glide_metal>
0

> <r_i_glide_rewards>
-3.715965675529

> <r_i_glide_evdw>
-33.3483848571777

> <r_i_glide_ecoul>
-4.76403427124023

> <r_i_glide_erotb>
0.222978750697996

> <r_i_glide_esite>
0

> <r_i_glide_emodel>
-56.3191424833332

> <r_i_glide_energy>
-38.112419128418

> <r_i_glide_einternal>
1.32069599628448

> <i_i_glide_confnum>
3

> <i_i_glide_posenum>
352

> <r_i_glide_eff_state_penalty>
0

> <i_f3d_flags>
0

> <s_user_duplicate_titles>
301205

> <s_m_subgroup_title>
dock_pv

> <s_m_subgroupid>
dock_pv1

> <b_m_subgroup_collapsed>
0

$$$$
181896
                    3D
 Schrodinger Suite 2021-1.
 47 50  0  0  1  0            999 V2000
   -3.4255   27.2644   16.9933 C   0  0  0  0  0  0
   -2.3043   27.1146   16.1288 O   0  0  0  0  0  0
   -2.5732   26.3133   14.9841 C   0  0  0  0  0  0
   -1.3768   26.2658   14.0112 C   0  0  0  0  0  0
   -1.1503   27.5389   13.1478 C   0  0  0  0  0  0
   -0.1008   27.4439   12.1034 N   0  0  0  0  0  0
    0.3396   28.5378   11.3812 C   0  0  0  0  0  0
    1.1192   28.1775   10.2845 C   0  0  0  0  0  0
    1.3338   26.7571   10.4576 C   0  0  0  0  0  0
    0.5428   26.3273   11.5730 C   0  0  0  0  0  0
    0.4478   25.0574   11.9975 N   0  0  0  0  0  0
    1.1563   24.1375   11.2995 C   0  0  0  0  0  0
    1.9561   24.4352   10.2029 C   0  0  0  0  0  0
    2.0573   25.7573    9.7761 C   0  0  0  0  0  0
    1.5857   29.0535    9.1690 C   0  0  0  0  0  0
    0.9847   30.1005    8.5453 C   0  0  0  0  0  0
    1.8418   30.5119    7.4540 C   0  0  0  0  0  0
    1.6580   31.3161    6.5439 O   0  0  0  0  0  0
    2.9605   29.8161    7.6113 N   0  0  0  0  0  0
    2.8929   28.9011    8.5762 C   0  0  0  0  0  0
    3.8034   28.1316    8.8687 O   0  0  0  0  0  0
   -0.3465   30.7300    8.8525 C   0  0  0  0  0  0
   -1.3691   29.9245    9.3765 C   0  0  0  0  0  0
   -2.5510   30.4591    9.8766 C   0  0  0  0  0  0
   -2.7440   31.8314    9.8536 C   0  0  0  0  0  0
   -1.7864   32.6521    9.2728 C   0  0  0  0  0  0
   -0.6119   32.1199    8.7456 C   0  0  0  0  0  0
    0.2639   33.0139    8.1770 O   0  0  0  0  0  0
   -3.1432   27.8588   17.8631 H   0  0  0  0  0  0
   -3.7812   26.3002   17.3577 H   0  0  0  0  0  0
   -4.2528   27.7764   16.5031 H   0  0  0  0  0  0
   -2.7853   25.2984   15.3256 H   0  0  0  0  0  0
   -3.4655   26.6517   14.4555 H   0  0  0  0  0  0
   -0.4661   26.0102   14.5545 H   0  0  0  0  0  0
   -1.5950   25.4302   13.3475 H   0  0  0  0  0  0
   -2.0813   27.7893   12.6346 H   0  0  0  0  0  0
   -0.9335   28.4011   13.7760 H   0  0  0  0  0  0
   -0.0382   29.5155   11.6482 H   0  0  0  0  0  0
    1.0585   23.1169   11.6397 H   0  0  0  0  0  0
    2.4770   23.6545    9.6686 H   0  0  0  0  0  0
    2.6582   25.9870    8.9106 H   0  0  0  0  0  0
    3.7673   29.9474    7.0174 H   0  0  0  0  0  0
   -1.2543   28.8522    9.4073 H   0  0  0  0  0  0
   -3.3036   29.8146   10.3076 H   0  0  0  0  0  0
   -3.6438   32.2544   10.2756 H   0  0  0  0  0  0
   -1.9492   33.7179    9.2553 H   0  0  0  0  0  0
   -0.0819   33.8974    8.0127 H   0  0  0  0  0  0
  1  2  1  0  0  0
  1 29  1  0  0  0
  1 30  1  0  0  0
  1 31  1  0  0  0
  2  3  1  0  0  0
  3  4  1  0  0  0
  3 32  1  0  0  0
  3 33  1  0  0  0
  4  5  1  0  0  0
  4 34  1  0  0  0
  4 35  1  0  0  0
  5  6  1  0  0  0
  5 36  1  0  0  0
  5 37  1  0  0  0
  6 10  1  0  0  0
  6  7  1  0  0  0
  7  8  2  0  0  0
  7 38  1  0  0  0
  8  9  1  0  0  0
  8 15  1  0  0  0
  9 14  2  0  0  0
  9 10  1  0  0  0
 10 11  2  0  0  0
 11 12  1  0  0  0
 12 13  2  0  0  0
 12 39  1  0  0  0
 13 14  1  0  0  0
 13 40  1  0  0  0
 14 41  1  0  0  0
 15 20  1  0  0  0
 15 16  2  0  0  0
 16 17  1  0  0  0
 16 22  1  0  0  0
 17 18  2  0  0  0
 17 19  1  0  0  0
 19 20  1  0  0  0
 19 42  1  0  0  0
 20 21  2  0  0  0
 22 27  1  0  0  0
 22 23  2  0  0  0
 23 24  1  0  0  0
 23 43  1  0  0  0
 24 25  2  0  0  0
 24 44  1  0  0  0
 25 26  1  0  0  0
 25 45  1  0  0  0
 26 27  2  0  0  0
 26 46  1  0  0  0
 27 28  1  0  0  0
 28 47  1  0  0  0
M  END
> <s_m_entry_id>
34588

> <s_m_entry_name>
ligand_docking-pose.85

> <s_m_Source_Path>
/home/csk/Desktop/cluster/DUD-E-result/cdk2

> <s_m_Source_File>
ligand_docking-pose.sdf

> <i_m_Source_File_Index>
85

> <i_lp_mmshare_version>
53161

> <r_lp_tautomer_probability>
1

> <s_lp_Force_Field>
OPLS_2005

> <r_lp_Energy>
25.17504

> <b_lp_Chiralities_Consistent>
1

> <s_lp_Variant>
181896-1

> <s_i_glide_gridfile>
glide-grid_1h00

> <i_i_glide_lignum>
1732

> <i_i_glide_rotatable_bonds>
7

> <r_i_docking_score>
-8.27476610916789

> <r_i_glide_ligand_efficiency>
-0.29552736104171

> <r_i_glide_ligand_efficiency_sa>
-0.897395124430007

> <r_i_glide_ligand_efficiency_ln>
-1.91005897568609

> <r_i_glide_gscore>
-8.27476610916789

> <r_i_glide_lipo>
-2.45943452131112

> <r_i_glide_hbond>
-0.500425259049908

> <r_i_glide_metal>
0

> <r_i_glide_rewards>
-2.57698147978464

> <r_i_glide_evdw>
-44.0064811706543

> <r_i_glide_ecoul>
-8.08430671691895

> <r_i_glide_erotb>
0.67993228922588

> <r_i_glide_esite>
-0.00488707217755333

> <r_i_glide_emodel>
-69.3810825531793

> <r_i_glide_energy>
-52.0907878875732

> <r_i_glide_einternal>
13.9791412353516

> <i_i_glide_confnum>
207

> <i_i_glide_posenum>
337

> <r_i_glide_eff_state_penalty>
0

> <i_f3d_flags>
0

> <s_user_duplicate_titles>
181896

> <s_m_subgroup_title>
dock_pv

> <s_m_subgroupid>
dock_pv1

> <b_m_subgroup_collapsed>
0

$$$$
248260
                    3D
 Schrodinger Suite 2021-1.
 45 48  0  0  1  0            999 V2000
    8.6963   24.6221    6.5844 C   0  0  0  0  0  0
    7.7152   25.7104    7.0456 C   0  0  0  0  0  0
    6.2525   25.3811    6.6995 C   0  0  0  0  0  0
    5.3020   26.5453    6.9410 C   0  0  0  0  0  0
    5.0501   27.4526    5.9145 C   0  0  0  0  0  0
    4.1623   28.5003    6.1168 C   0  0  0  0  0  0
    3.5126   28.6512    7.3479 C   0  0  0  0  0  0
    3.7893   27.7617    8.3877 C   0  0  0  0  0  0
    4.6711   26.7039    8.1747 C   0  0  0  0  0  0
    2.4652   29.6923    7.5071 C   0  0  0  0  0  0
    1.3377   29.8524    8.3029 C   0  0  0  0  0  0
    0.8074   31.0737    7.9262 C   0  0  0  0  0  0
    1.4716   31.6730    6.9760 N   0  0  0  0  0  0
    2.4521   30.8172    6.7392 N   0  0  0  0  0  0
   -0.3421   31.4101    8.7354 C   0  0  0  0  0  0
   -1.1251   32.5555    8.7804 C   0  0  0  0  0  0
   -2.1395   32.6285    9.7189 C   0  0  0  0  0  0
   -2.3724   31.5624   10.5759 C   0  0  0  0  0  0
   -1.5725   30.4160   10.5607 C   0  0  0  0  0  0
   -0.5256   30.3402    9.6178 C   0  0  0  0  0  0
    0.5003   29.2759    9.3389 C   0  0  0  0  0  0
    0.6141   28.1655    9.8531 O   0  0  0  0  0  0
   -1.8970   29.4297   11.5053 N   0  0  0  0  0  0
   -1.0310   28.8550   12.3602 C   0  0  0  0  0  0
    0.1183   29.2451   12.5373 O   0  0  0  0  0  0
   -1.5432   27.6765   13.1790 C   0  0  0  0  0  0
    3.2159   31.0515    6.1133 H   0  0  0  0  0  0
    9.7102   24.8439    6.9191 H   0  0  0  0  0  0
    8.4192   23.6435    6.9756 H   0  0  0  0  0  0
    8.7163   24.5494    5.4953 H   0  0  0  0  0  0
    8.0035   26.6521    6.5760 H   0  0  0  0  0  0
    7.8094   25.8600    8.1219 H   0  0  0  0  0  0
    5.9144   24.5115    7.2637 H   0  0  0  0  0  0
    6.1752   25.0867    5.6509 H   0  0  0  0  0  0
    5.5401   27.3454    4.9573 H   0  0  0  0  0  0
    3.9663   29.1749    5.2965 H   0  0  0  0  0  0
    3.2945   27.8579    9.3443 H   0  0  0  0  0  0
    4.8483   25.9996    8.9723 H   0  0  0  0  0  0
   -0.9336   33.3938    8.1249 H   0  0  0  0  0  0
   -2.7415   33.5158    9.7933 H   0  0  0  0  0  0
   -3.1417   31.6863   11.3114 H   0  0  0  0  0  0
   -2.8549   29.4195   11.8264 H   0  0  0  0  0  0
   -1.9026   28.0084   14.1532 H   0  0  0  0  0  0
   -0.7438   26.9484   13.3313 H   0  0  0  0  0  0
   -2.3641   27.1761   12.6656 H   0  0  0  0  0  0
  1  2  1  0  0  0
  1 28  1  0  0  0
  1 29  1  0  0  0
  1 30  1  0  0  0
  2  3  1  0  0  0
  2 31  1  0  0  0
  2 32  1  0  0  0
  3  4  1  0  0  0
  3 33  1  0  0  0
  3 34  1  0  0  0
  4  9  1  0  0  0
  4  5  2  0  0  0
  5  6  1  0  0  0
  5 35  1  0  0  0
  6  7  2  0  0  0
  6 36  1  0  0  0
  7  8  1  0  0  0
  7 10  1  0  0  0
  8  9  2  0  0  0
  8 37  1  0  0  0
  9 38  1  0  0  0
 10 14  1  0  0  0
 10 11  2  0  0  0
 11 21  1  0  0  0
 11 12  1  0  0  0
 12 13  2  0  0  0
 12 15  1  0  0  0
 13 14  1  0  0  0
 14 27  1  0  0  0
 15 20  2  0  0  0
 15 16  1  0  0  0
 16 17  2  0  0  0
 16 39  1  0  0  0
 17 18  1  0  0  0
 17 40  1  0  0  0
 18 19  2  0  0  0
 18 41  1  0  0  0
 19 20  1  0  0  0
 19 23  1  0  0  0
 20 21  1  0  0  0
 21 22  2  0  0  0
 23 24  1  0  0  0
 23 42  1  0  0  0
 24 25  2  0  0  0
 24 26  1  0  0  0
 26 43  1  0  0  0
 26 44  1  0  0  0
 26 45  1  0  0  0
M  END
> <s_m_entry_id>
34590

> <s_m_entry_name>
ligand_docking-pose.87

> <s_m_Source_Path>
/home/csk/Desktop/cluster/DUD-E-result/cdk2

> <s_m_Source_File>
ligand_docking-pose.sdf

> <i_m_Source_File_Index>
87

> <i_lp_mmshare_version>
53161

> <r_lp_tautomer_probability>
1

> <s_lp_Force_Field>
OPLS_2005

> <r_lp_Energy>
56.344622

> <b_lp_Chiralities_Consistent>
1

> <s_lp_Variant>
248260-1

> <s_i_glide_gridfile>
glide-grid_1h00

> <i_i_glide_lignum>
1089

> <i_i_glide_rotatable_bonds>
5

> <r_i_docking_score>
-8.25793282548005

> <r_i_glide_ligand_efficiency>
-0.317612800980002

> <r_i_glide_ligand_efficiency_sa>
-0.940926673157232

> <r_i_glide_ligand_efficiency_ln>
-1.9393484275763

> <r_i_glide_gscore>
-8.25793282548005

> <r_i_glide_lipo>
-2.89128628585487

> <r_i_glide_hbond>
-0.349099528542805

> <r_i_glide_metal>
0

> <r_i_glide_rewards>
-2.55635031023855

> <r_i_glide_evdw>
-31.1746158599854

> <r_i_glide_ecoul>
-8.90161800384521

> <r_i_glide_erotb>
0.477779114191055

> <r_i_glide_esite>
-0.0450023214588262

> <r_i_glide_emodel>
-60.2573811287165

> <r_i_glide_energy>
-40.0762338638306

> <r_i_glide_einternal>
6.48156309127808

> <i_i_glide_confnum>
22

> <i_i_glide_posenum>
83

> <r_i_glide_eff_state_penalty>
0

> <i_f3d_flags>
0

> <s_user_duplicate_titles>
248260

> <s_m_subgroup_title>
dock_pv

> <s_m_subgroupid>
dock_pv1

> <b_m_subgroup_collapsed>
0

$$$$
631956
                    3D
 Schrodinger Suite 2021-1.
 49 51  0  0  1  0            999 V2000
   -0.6526   24.6711   11.5526 C   0  0  0  0  0  0
   -0.6107   25.7486   12.6445 C   0  0  0  0  0  0
   -1.6181   26.7832   12.4525 N   0  0  0  0  0  0
   -1.5550   27.8650   11.6097 C   0  0  0  0  0  0
   -2.5706   28.6520   11.3760 N   0  0  0  0  0  0
   -2.2840   29.6298   10.5360 C   0  0  0  0  0  0
   -0.9831   29.6434   10.0497 C   0  0  0  0  0  0
   -0.1135   28.2934   10.7510 S   0  0  0  0  0  0
   -0.3420   30.5773    9.0922 C   0  0  0  0  0  0
   -0.7075   31.9230    8.9760 C   0  0  0  0  0  0
    0.0580   32.7046    8.1117 C   0  0  0  0  0  0
    1.0882   32.2003    7.3760 N   0  0  0  0  0  0
    1.3615   30.8824    7.5568 C   0  0  0  0  0  0
    0.6823   30.0532    8.3800 N   0  0  0  0  0  0
    2.4580   30.3664    6.8658 N   0  0  0  0  0  0
    3.2074   29.1961    7.0541 C   0  0  0  0  0  0
    3.3618   28.5900    8.3032 C   0  0  0  0  0  0
    4.0579   27.3896    8.4086 C   0  0  0  0  0  0
    4.6021   26.7953    7.2661 C   0  0  0  0  0  0
    4.5126   27.4458    6.0327 C   0  0  0  0  0  0
    3.8254   28.6491    5.9330 C   0  0  0  0  0  0
    5.2609   25.4231    7.3488 C   0  0  0  0  0  0
    6.6112   25.3924    6.7881 N   0  0  0  0  0  0
    7.6911   25.8519    7.4321 C   0  0  0  0  0  0
    7.6580   26.2520    8.5935 O   0  0  0  0  0  0
    9.0078   25.8538    6.6660 C   0  0  0  0  0  0
   -3.4035   30.5773   10.1762 C   0  0  0  0  0  0
    0.0998   23.9042   11.7368 H   0  0  0  0  0  0
   -1.6253   24.1804   11.5178 H   0  0  0  0  0  0
   -0.4550   25.0944   10.5668 H   0  0  0  0  0  0
    0.3808   26.2038   12.6864 H   0  0  0  0  0  0
   -0.7682   25.2951   13.6235 H   0  0  0  0  0  0
   -2.5130   26.5436   12.8554 H   0  0  0  0  0  0
   -1.4951   32.3674    9.5607 H   0  0  0  0  0  0
   -0.1513   33.7583    8.0012 H   0  0  0  0  0  0
    2.9788   31.0520    6.3316 H   0  0  0  0  0  0
    2.9248   29.0254    9.1889 H   0  0  0  0  0  0
    4.1274   26.9110    9.3745 H   0  0  0  0  0  0
    4.9535   27.0096    5.1481 H   0  0  0  0  0  0
    3.7468   29.1381    4.9760 H   0  0  0  0  0  0
    4.6416   24.7219    6.7877 H   0  0  0  0  0  0
    5.2680   25.0673    8.3825 H   0  0  0  0  0  0
    6.7000   25.1381    5.8160 H   0  0  0  0  0  0
    9.3184   26.8799    6.4657 H   0  0  0  0  0  0
    8.9243   25.3309    5.7130 H   0  0  0  0  0  0
    9.7874   25.3712    7.2556 H   0  0  0  0  0  0
   -3.2352   31.5759   10.5760 H   0  0  0  0  0  0
   -3.5417   30.6658    9.0986 H   0  0  0  0  0  0
   -4.3420   30.2612   10.6027 H   0  0  0  0  0  0
  1  2  1  0  0  0
  1 28  1  0  0  0
  1 29  1  0  0  0
  1 30  1  0  0  0
  2  3  1  0  0  0
  2 31  1  0  0  0
  2 32  1  0  0  0
  3  4  1  0  0  0
  3 33  1  0  0  0
  4  8  1  0  0  0
  4  5  2  0  0  0
  5  6  1  0  0  0
  6  7  2  0  0  0
  6 27  1  0  0  0
  7  8  1  0  0  0
  7  9  1  0  0  0
  9 14  1  0  0  0
  9 10  2  0  0  0
 10 11  1  0  0  0
 10 34  1  0  0  0
 11 12  2  0  0  0
 11 35  1  0  0  0
 12 13  1  0  0  0
 13 14  2  0  0  0
 13 15  1  0  0  0
 15 16  1  0  0  0
 15 36  1  0  0  0
 16 21  1  0  0  0
 16 17  2  0  0  0
 17 18  1  0  0  0
 17 37  1  0  0  0
 18 19  2  0  0  0
 18 38  1  0  0  0
 19 20  1  0  0  0
 19 22  1  0  0  0
 20 21  2  0  0  0
 20 39  1  0  0  0
 21 40  1  0  0  0
 22 23  1  0  0  0
 22 41  1  0  0  0
 22 42  1  0  0  0
 23 24  1  0  0  0
 23 43  1  0  0  0
 24 25  2  0  0  0
 24 26  1  0  0  0
 26 44  1  0  0  0
 26 45  1  0  0  0
 26 46  1  0  0  0
 27 47  1  0  0  0
 27 48  1  0  0  0
 27 49  1  0  0  0
M  END
> <s_m_entry_id>
34597

> <s_m_entry_name>
ligand_docking-pose.94

> <s_m_Source_Path>
/home/csk/Desktop/cluster/DUD-E-result/cdk2

> <s_m_Source_File>
ligand_docking-pose.sdf

> <i_m_Source_File_Index>
94

> <i_lp_mmshare_version>
53161

> <r_lp_tautomer_probability>
0.999999987636

> <s_lp_Force_Field>
OPLS_2005

> <r_lp_Energy>
2.993243

> <b_lp_Chiralities_Consistent>
1

> <s_lp_Variant>
631956-1

> <s_i_glide_gridfile>
glide-grid_1h00

> <i_i_glide_lignum>
1334

> <i_i_glide_rotatable_bonds>
8

> <r_i_docking_score>
-8.22673227564748

> <r_i_glide_ligand_efficiency>
-0.304693787986944

> <r_i_glide_ligand_efficiency_sa>
-0.91408136295661

> <r_i_glide_ligand_efficiency_ln>
-1.91504764548924

> <r_i_glide_gscore>
-8.22673227564748

> <r_i_glide_lipo>
-2.67187475672849

> <r_i_glide_hbond>
-0.494248966029731

> <r_i_glide_metal>
0

> <r_i_glide_rewards>
-2.61975089786032

> <r_i_glide_evdw>
-40.2445068359375

> <r_i_glide_ecoul>
-8.16799163818359

> <r_i_glide_erotb>
0.796566432495476

> <r_i_glide_esite>
0

> <r_i_glide_emodel>
-72.093794800132

> <r_i_glide_energy>
-48.4124984741211

> <r_i_glide_einternal>
3.51564884185791

> <i_i_glide_confnum>
54

> <i_i_glide_posenum>
67

> <r_i_glide_eff_state_penalty>
0

> <i_f3d_flags>
0

> <s_user_duplicate_titles>
631956

> <s_m_subgroup_title>
dock_pv

> <s_m_subgroupid>
dock_pv1

> <b_m_subgroup_collapsed>
0

$$$$
35501
                    3D
 Schrodinger Suite 2021-1.
 40 43  0  0  1  0            999 V2000
   -1.5553   27.6155   13.1196 C   0  0  0  0  0  0
   -1.0264   28.7935   12.3121 C   0  0  0  0  0  0
    0.1369   29.1521   12.4735 O   0  0  0  0  0  0
   -1.8954   29.4014   11.4825 N   0  0  0  0  0  0
   -1.5719   30.3938   10.5437 C   0  0  0  0  0  0
   -2.3728   31.5398   10.5758 C   0  0  0  0  0  0
   -2.1402   32.6169    9.7320 C   0  0  0  0  0  0
   -1.1261   32.5540    8.7918 C   0  0  0  0  0  0
   -0.3415   31.4090    8.7300 C   0  0  0  0  0  0
   -0.5310   30.3264    9.5959 C   0  0  0  0  0  0
    0.4830   29.2613    9.2952 C   0  0  0  0  0  0
    0.5833   28.1368    9.7801 O   0  0  0  0  0  0
    1.3301   29.8521    8.2766 C   0  0  0  0  0  0
    0.8091   31.0835    7.9185 C   0  0  0  0  0  0
    1.4818   31.6865    6.9773 N   0  0  0  0  0  0
    2.4567   30.8243    6.7294 N   0  0  0  0  0  0
    2.4608   29.6940    7.4869 C   0  0  0  0  0  0
    3.5066   28.6511    7.3299 C   0  0  0  0  0  0
    3.7734   27.7657    8.3725 C   0  0  0  0  0  0
    4.6736   26.7237    8.1759 C   0  0  0  0  0  0
    5.3496   26.5668    6.9700 C   0  0  0  0  0  0
    5.0802   27.4572    5.9258 C   0  0  0  0  0  0
    4.1672   28.4912    6.1052 C   0  0  0  0  0  0
    6.2530   25.5242    6.8958 O   0  0  0  0  0  0
    7.0284   25.3678    5.7126 C   0  0  0  0  0  0
    3.2233   31.0566    6.1044 H   0  0  0  0  0  0
   -1.9418   27.9438   14.0854 H   0  0  0  0  0  0
   -0.7507   26.8996   13.3039 H   0  0  0  0  0  0
   -2.3531   27.0990   12.5840 H   0  0  0  0  0  0
   -2.8508   29.3970   11.8110 H   0  0  0  0  0  0
   -3.1473   31.6566   11.3104 H   0  0  0  0  0  0
   -2.7418   33.5037    9.8216 H   0  0  0  0  0  0
   -0.9315   33.4010    8.1486 H   0  0  0  0  0  0
    3.2651   27.8581    9.3222 H   0  0  0  0  0  0
    4.8567   26.0271    8.9760 H   0  0  0  0  0  0
    5.5785   27.3714    4.9731 H   0  0  0  0  0  0
    3.9748   29.1595    5.2794 H   0  0  0  0  0  0
    7.7053   24.5233    5.8333 H   0  0  0  0  0  0
    6.3971   25.1617    4.8464 H   0  0  0  0  0  0
    7.6398   26.2503    5.5136 H   0  0  0  0  0  0
  1  2  1  0  0  0
  1 27  1  0  0  0
  1 28  1  0  0  0
  1 29  1  0  0  0
  2  3  2  0  0  0
  2  4  1  0  0  0
  4  5  1  0  0  0
  4 30  1  0  0  0
  5 10  1  0  0  0
  5  6  2  0  0  0
  6  7  1  0  0  0
  6 31  1  0  0  0
  7  8  2  0  0  0
  7 32  1  0  0  0
  8  9  1  0  0  0
  8 33  1  0  0  0
  9 14  1  0  0  0
  9 10  2  0  0  0
 10 11  1  0  0  0
 11 12  2  0  0  0
 11 13  1  0  0  0
 13 17  2  0  0  0
 13 14  1  0  0  0
 14 15  2  0  0  0
 15 16  1  0  0  0
 16 26  1  0  0  0
 16 17  1  0  0  0
 17 18  1  0  0  0
 18 23  1  0  0  0
 18 19  2  0  0  0
 19 20  1  0  0  0
 19 34  1  0  0  0
 20 21  2  0  0  0
 20 35  1  0  0  0
 21 22  1  0  0  0
 21 24  1  0  0  0
 22 23  2  0  0  0
 22 36  1  0  0  0
 23 37  1  0  0  0
 24 25  1  0  0  0
 25 38  1  0  0  0
 25 39  1  0  0  0
 25 40  1  0  0  0
M  END
> <s_m_entry_id>
34600

> <s_m_entry_name>
ligand_docking-pose.97

> <s_m_Source_Path>
/home/csk/Desktop/cluster/DUD-E-result/cdk2

> <s_m_Source_File>
ligand_docking-pose.sdf

> <i_m_Source_File_Index>
97

> <i_lp_mmshare_version>
53161

> <r_lp_tautomer_probability>
1

> <s_lp_Force_Field>
OPLS_2005

> <r_lp_Energy>
59.294291

> <b_lp_Chiralities_Consistent>
1

> <s_lp_Variant>
35501-1

> <s_i_glide_gridfile>
glide-grid_1h00

> <i_i_glide_lignum>
1385

> <i_i_glide_rotatable_bonds>
4

> <r_i_docking_score>
-8.20375202674075

> <r_i_glide_ligand_efficiency>
-0.32815008106963

> <r_i_glide_ligand_efficiency_sa>
-0.959516656814067

> <r_i_glide_ligand_efficiency_ln>
-1.9445350769472

> <r_i_glide_gscore>
-8.20375202674075

> <r_i_glide_lipo>
-2.62670101775942

> <r_i_glide_hbond>
-0.353885337960785

> <r_i_glide_metal>
0

> <r_i_glide_rewards>
-2.63207809897488

> <r_i_glide_evdw>
-28.902982711792

> <r_i_glide_ecoul>
-9.61369895935059

> <r_i_glide_erotb>
0.339217505698852

> <r_i_glide_esite>
-0.0431010982523327

> <r_i_glide_emodel>
-57.7152349026437

> <r_i_glide_energy>
-38.5166816711426

> <r_i_glide_einternal>
5.58402872085571

> <i_i_glide_confnum>
6

> <i_i_glide_posenum>
13

> <r_i_glide_eff_state_penalty>
0

> <i_f3d_flags>
0

> <s_user_duplicate_titles>
35501

> <s_m_subgroup_title>
dock_pv

> <s_m_subgroupid>
dock_pv1

> <b_m_subgroup_collapsed>
0

$$$$
339593
                    3D
 Schrodinger Suite 2021-1.
 37 39  0  0  1  0            999 V2000
   -3.2363   30.0401   10.5742 C   0  0  0  0  0  0
   -1.8646   29.3839   10.4454 C   0  0  0  0  0  0
   -1.6526   28.3329   11.0507 O   0  0  0  0  0  0
   -0.9514   29.9544    9.6332 N   0  0  0  0  0  0
    0.3450   29.3154    9.3599 C   0  0  0  0  0  0
    0.9738   30.2511    8.3677 C   0  0  0  0  0  0
    0.1653   31.3234    8.1763 C   0  0  0  0  0  0
    0.8580   32.1816    7.3760 N   0  0  0  0  0  0
    2.0113   31.6436    6.9605 N   0  0  0  0  0  0
    2.1073   30.4746    7.5654 C   0  0  0  0  0  0
    3.2577   29.7303    7.3817 N   0  0  0  0  0  0
    3.6578   28.6528    8.0836 C   0  0  0  0  0  0
    3.0132   28.1156    8.9807 O   0  0  0  0  0  0
    5.0224   28.0704    7.6962 C   0  0  0  0  0  0
    4.8594   26.8581    6.7913 C   0  0  0  0  0  0
    4.7816   27.0286    5.4047 C   0  0  0  0  0  0
    4.5774   25.9245    4.5785 C   0  0  0  0  0  0
    4.4575   24.6552    5.1422 C   0  0  0  0  0  0
    4.5343   24.4788    6.5230 C   0  0  0  0  0  0
    4.7350   25.5821    7.3502 C   0  0  0  0  0  0
   -1.1193   31.2422    8.9396 C   0  0  0  0  0  0
    0.5431   33.0995    7.0892 H   0  0  0  0  0  0
   -3.1410   31.0499   10.9734 H   0  0  0  0  0  0
   -3.7303   30.0891    9.6059 H   0  0  0  0  0  0
   -3.8662   29.4523   11.2425 H   0  0  0  0  0  0
    0.2096   28.3044    8.9762 H   0  0  0  0  0  0
    0.9289   29.2387   10.2775 H   0  0  0  0  0  0
    3.9150   30.1345    6.7217 H   0  0  0  0  0  0
    5.5529   27.7945    8.6081 H   0  0  0  0  0  0
    5.6367   28.8225    7.1995 H   0  0  0  0  0  0
    4.8719   28.0130    4.9694 H   0  0  0  0  0  0
    4.5086   26.0475    3.5070 H   0  0  0  0  0  0
    4.2982   23.8022    4.4982 H   0  0  0  0  0  0
    4.4289   23.4922    6.9487 H   0  0  0  0  0  0
    4.7784   25.4505    8.4230 H   0  0  0  0  0  0
   -1.2371   32.0550    9.6560 H   0  0  0  0  0  0
   -1.9938   31.2237    8.2879 H   0  0  0  0  0  0
  1  2  1  0  0  0
  1 23  1  0  0  0
  1 24  1  0  0  0
  1 25  1  0  0  0
  2  3  2  0  0  0
  2  4  1  0  0  0
  4 21  1  0  0  0
  4  5  1  0  0  0
  5 26  1  0  0  0
  5 27  1  0  0  0
  5  6  1  0  0  0
  6  7  2  0  0  0
  6 10  1  0  0  0
  7  8  1  0  0  0
  7 21  1  0  0  0
  8  9  1  0  0  0
  8 22  1  0  0  0
  9 10  2  0  0  0
 10 11  1  0  0  0
 11 12  1  0  0  0
 11 28  1  0  0  0
 12 13  2  0  0  0
 12 14  1  0  0  0
 14 15  1  0  0  0
 14 29  1  0  0  0
 14 30  1  0  0  0
 15 20  1  0  0  0
 15 16  2  0  0  0
 16 17  1  0  0  0
 16 31  1  0  0  0
 17 18  2  0  0  0
 17 32  1  0  0  0
 18 19  1  0  0  0
 18 33  1  0  0  0
 19 20  2  0  0  0
 19 34  1  0  0  0
 20 35  1  0  0  0
 21 36  1  0  0  0
 21 37  1  0  0  0
M  END
> <s_m_entry_id>
34602

> <s_m_entry_name>
ligand_docking-pose.99

> <s_m_Source_Path>
/home/csk/Desktop/cluster/DUD-E-result/cdk2

> <s_m_Source_File>
ligand_docking-pose.sdf

> <i_m_Source_File_Index>
99

> <i_lp_mmshare_version>
53161

> <r_lp_tautomer_probability>
0.5

> <s_lp_Force_Field>
OPLS_2005

> <r_lp_Energy>
36.397624

> <b_lp_Chiralities_Consistent>
1

> <s_lp_Variant>
339593-2

> <s_i_glide_gridfile>
glide-grid_1h00

> <i_i_glide_lignum>
1372

> <i_i_glide_rotatable_bonds>
5

> <r_i_docking_score>
-8.18983302474445

> <r_i_glide_ligand_efficiency>
-0.389992048797355

> <r_i_glide_ligand_efficiency_sa>
-1.0759584909315

> <r_i_glide_ligand_efficiency_ln>
-2.0249196662522

> <r_i_glide_gscore>
-8.18983302474445

> <r_i_glide_lipo>
-2.19140858503867

> <r_i_glide_hbond>
-0.577137908056827

> <r_i_glide_metal>
0

> <r_i_glide_rewards>
-3.50134653517333

> <r_i_glide_evdw>
-32.7355995178223

> <r_i_glide_ecoul>
-5.02688264846802

> <r_i_glide_erotb>
0.470872376685702

> <r_i_glide_esite>
0

> <r_i_glide_emodel>
-55.8052539222022

> <r_i_glide_energy>
-37.7624821662903

> <r_i_glide_einternal>
4.54782629013062

> <i_i_glide_confnum>
6

> <i_i_glide_posenum>
27

> <r_i_glide_eff_state_penalty>
0

> <i_f3d_flags>
0

> <s_user_duplicate_titles>
339593

> <s_m_subgroup_title>
dock_pv

> <s_m_subgroupid>
dock_pv1

> <b_m_subgroup_collapsed>
0

$$$$
574870
                    3D
 Schrodinger Suite 2021-1.
 55 58  0  0  1  0            999 V2000
   -1.2119   32.8714    8.7037 C   0  0  0  0  0  0
   -0.1004   31.9249    8.2851 C   0  0  0  0  0  0
    0.8602   32.3757    7.3762 C   0  0  0  0  0  0
    1.9085   31.6165    6.9759 N   0  0  0  0  0  0
    2.0130   30.3824    7.5245 C   0  0  0  0  0  0
    1.1244   29.8521    8.3998 N   0  0  0  0  0  0
    0.0606   30.6145    8.7830 C   0  0  0  0  0  0
   -0.8015   29.9230    9.7994 C   0  0  0  0  0  0
   -0.7149   28.5672   10.1859 C   0  0  0  0  0  0
   -1.6583   28.2844   11.1708 C   0  0  0  0  0  0
   -2.3419   29.4516   11.3706 N   0  0  0  0  0  0
   -1.8346   30.4400   10.5757 C   0  0  0  0  0  0
   -2.0380   27.0460   11.7769 C   0  0  0  0  0  0
   -3.1806   26.8599   12.1927 O   0  0  0  0  0  0
   -1.0635   26.1230   11.8150 N   0  0  0  0  0  0
   -1.2136   24.7638   12.3574 C   0  0  2  0  0  0
   -1.3988   24.7568   13.9014 C   0  0  0  0  0  0
   -0.3422   25.4181   14.5675 O   0  0  0  0  0  0
   -0.1548   23.7680   11.8522 C   0  0  0  0  0  0
    0.9466   24.1737   11.0806 C   0  0  0  0  0  0
    1.8315   23.2292   10.5671 C   0  0  0  0  0  0
    1.6297   21.8765   10.8266 C   0  0  0  0  0  0
    0.5480   21.4575   11.5952 C   0  0  0  0  0  0
   -0.3419   22.4008   12.1006 C   0  0  0  0  0  0
    3.1333   29.6492    7.1203 N   0  0  0  0  0  0
    3.6576   28.3827    7.4173 C   0  0  0  0  0  0
    3.2901   27.6902    8.5762 C   0  0  0  0  0  0
    3.6581   26.3570    8.7334 C   0  0  0  0  0  0
    4.4729   25.7319    7.7905 C   0  0  0  0  0  0
    4.9086   26.4391    6.6729 C   0  0  0  0  0  0
    4.4930   27.7564    6.4753 C   0  0  0  0  0  0
    4.8580   28.3835    5.3101 O   0  0  0  0  0  0
   -3.0988   29.5840   12.0382 H   0  0  0  0  0  0
   -2.1348   24.3793   11.9203 H   0  0  0  0  0  0
   -1.1414   33.8239    8.1771 H   0  0  0  0  0  0
   -2.1904   32.4354    8.4997 H   0  0  0  0  0  0
   -1.1424   33.0836    9.7688 H   0  0  0  0  0  0
    0.8168   33.3776    6.9761 H   0  0  0  0  0  0
   -0.0256   27.8505    9.7622 H   0  0  0  0  0  0
   -2.2686   31.4246   10.6514 H   0  0  0  0  0  0
   -0.1542   26.3806   11.4645 H   0  0  0  0  0  0
   -2.3294   25.2566   14.1727 H   0  0  0  0  0  0
   -1.4730   23.7412   14.2900 H   0  0  0  0  0  0
   -0.2539   26.2957   14.1826 H   0  0  0  0  0  0
    1.1228   25.2136   10.8490 H   0  0  0  0  0  0
    2.6572   23.5466    9.9469 H   0  0  0  0  0  0
    2.3076   21.1426   10.4162 H   0  0  0  0  0  0
    0.3857   20.4055   11.7841 H   0  0  0  0  0  0
   -1.1945   22.0555   12.6675 H   0  0  0  0  0  0
    3.6969   30.1508    6.4389 H   0  0  0  0  0  0
    2.6799   28.1485    9.3377 H   0  0  0  0  0  0
    3.3427   25.8202    9.6159 H   0  0  0  0  0  0
    4.7748   24.7053    7.9323 H   0  0  0  0  0  0
    5.5392   25.9487    5.9462 H   0  0  0  0  0  0
    5.5774   27.9318    4.8631 H   0  0  0  0  0  0
  1  2  1  0  0  0
  1 35  1  0  0  0
  1 36  1  0  0  0
  1 37  1  0  0  0
  2  7  1  0  0  0
  2  3  2  0  0  0
  3  4  1  0  0  0
  3 38  1  0  0  0
  4  5  2  0  0  0
  5  6  1  0  0  0
  5 25  1  0  0  0
  6  7  2  0  0  0
  7  8  1  0  0  0
  8 12  2  0  0  0
  8  9  1  0  0  0
  9 10  2  0  0  0
  9 39  1  0  0  0
 10 11  1  0  0  0
 10 13  1  0  0  0
 11 33  1  0  0  0
 11 12  1  0  0  0
 12 40  1  0  0  0
 13 14  2  0  0  0
 13 15  1  0  0  0
 15 16  1  0  0  0
 15 41  1  0  0  0
 16 34  1  0  0  0
 16 17  1  0  0  0
 16 19  1  0  0  0
 17 18  1  0  0  0
 17 42  1  0  0  0
 17 43  1  0  0  0
 18 44  1  0  0  0
 19 24  1  0  0  0
 19 20  2  0  0  0
 20 21  1  0  0  0
 20 45  1  0  0  0
 21 22  2  0  0  0
 21 46  1  0  0  0
 22 23  1  0  0  0
 22 47  1  0  0  0
 23 24  2  0  0  0
 23 48  1  0  0  0
 24 49  1  0  0  0
 25 26  1  0  0  0
 25 50  1  0  0  0
 26 31  1  0  0  0
 26 27  2  0  0  0
 27 28  1  0  0  0
 27 51  1  0  0  0
 28 29  2  0  0  0
 28 52  1  0  0  0
 29 30  1  0  0  0
 29 53  1  0  0  0
 30 31  2  0  0  0
 30 54  1  0  0  0
 31 32  1  0  0  0
 32 55  1  0  0  0
M  END
> <s_m_entry_id>
34603

> <s_m_entry_name>
ligand_docking-pose.100

> <s_m_Source_Path>
/home/csk/Desktop/cluster/DUD-E-result/cdk2

> <s_m_Source_File>
ligand_docking-pose.sdf

> <i_m_Source_File_Index>
100

> <i_lp_mmshare_version>
53161

> <r_lp_tautomer_probability>
0.999999987636

> <s_lp_Force_Field>
OPLS_2005

> <r_lp_Energy>
9.046879

> <b_lp_Chiralities_Consistent>
1

> <s_lp_Variant>
574870-1

> <s_i_glide_gridfile>
glide-grid_1h00

> <i_i_glide_lignum>
809

> <i_i_glide_rotatable_bonds>
10

> <r_i_docking_score>
-8.18810255878921

> <r_i_glide_ligand_efficiency>
-0.255878204962163

> <r_i_glide_ligand_efficiency_sa>
-0.812362662526866

> <r_i_glide_ligand_efficiency_ln>
-1.83353936215883

> <r_i_glide_gscore>
-8.18810255878921

> <r_i_glide_lipo>
-2.70377633626958

> <r_i_glide_hbond>
-0.614359099029865

> <r_i_glide_metal>
0

> <r_i_glide_rewards>
-2.13533908673734

> <r_i_glide_evdw>
-38.7504806518555

> <r_i_glide_ecoul>
-8.35563850402832

> <r_i_glide_erotb>
0.527941647189699

> <r_i_glide_esite>
-0.0716998757451058

> <r_i_glide_emodel>
-68.5367250753199

> <r_i_glide_energy>
-47.1061191558838

> <r_i_glide_einternal>
7.27880334854126

> <i_i_glide_confnum>
13

> <i_i_glide_posenum>
389

> <r_i_glide_eff_state_penalty>
0

> <i_f3d_flags>
0

> <s_user_duplicate_titles>
574870

> <s_m_subgroup_title>
dock_pv

> <s_m_subgroupid>
dock_pv1

> <b_m_subgroup_collapsed>
0

$$$$
300793
                    3D
 Schrodinger Suite 2021-1.
 70 74  0  0  1  0            999 V2000
    8.9478   25.7993    4.2030 C   0  0  0  0  0  0
    8.7976   24.9998    5.4382 N   0  0  0  0  0  0
    9.5890   25.4784    6.5874 C   0  0  0  0  0  0
    7.1748   24.3678    5.7873 S   0  0  0  0  0  0
    7.2579   23.5089    6.9746 O   0  0  0  0  0  0
    6.6118   23.8480    4.5369 O   0  0  0  0  0  0
    6.2025   25.7987    6.2459 C   0  0  0  0  0  0
    6.0490   26.1441    7.5908 C   0  0  0  0  0  0
    5.2579   27.2364    7.9377 C   0  0  0  0  0  0
    4.6255   27.9798    6.9434 C   0  0  0  0  0  0
    4.8234   27.6636    5.5998 C   0  0  0  0  0  0
    5.6009   26.5656    5.2480 C   0  0  0  0  0  0
    3.7774   29.0520    7.2301 N   0  0  0  0  0  0
    2.6895   29.1825    8.1056 C   0  0  0  0  0  0
    2.3643   28.2516    9.0976 C   0  0  0  0  0  0
    1.1515   28.3821    9.7760 C   0  0  0  0  0  0
    0.2655   29.3757    9.5180 N   0  0  0  0  0  0
    0.6074   30.2977    8.6227 C   0  0  0  0  0  0
    1.8118   30.2235    7.9138 N   0  0  0  0  0  0
    1.9512   31.2756    7.0670 N   0  0  0  0  0  0
    0.9432   32.0611    7.3760 C   0  0  0  0  0  0
   -0.0059   31.5108    8.2239 C   0  0  0  0  0  0
   -1.2960   32.1440    8.7102 C   0  0  0  0  0  0
   -2.5657   31.2821    8.5880 C   0  0  0  0  0  0
   -3.2885   31.3351    9.9359 C   0  0  0  0  0  0
   -2.6652   32.5214   10.6595 C   0  0  0  0  0  0
   -1.2268   32.5118   10.1761 C   0  0  0  0  0  0
    0.8257   27.4437   10.7636 N   0  0  0  0  0  0
   -0.5147   27.3715   11.3650 C   0  0  2  0  0  0
   -0.4180   26.9454   12.8419 C   0  0  0  0  0  0
    0.0580   25.4858   12.9988 C   0  0  0  0  0  0
   -0.7920   24.4821   12.1960 C   0  0  1  0  0  0
   -0.8893   24.9147   10.7169 C   0  0  0  0  0  0
   -1.3880   26.3687   10.5797 C   0  0  0  0  0  0
   -0.3296   23.1172   12.3681 N   0  0  0  0  0  0
   10.0010   25.8708    3.9261 H   0  0  0  0  0  0
    8.4068   25.3256    3.3837 H   0  0  0  0  0  0
    8.5357   26.7976    4.3528 H   0  0  0  0  0  0
   10.6386   25.5761    6.3078 H   0  0  0  0  0  0
    9.2035   26.4421    6.9224 H   0  0  0  0  0  0
    9.5098   24.7702    7.4119 H   0  0  0  0  0  0
    6.5281   25.5662    8.3691 H   0  0  0  0  0  0
    5.1456   27.5057    8.9758 H   0  0  0  0  0  0
    4.3498   28.2477    4.8246 H   0  0  0  0  0  0
    5.7277   26.3092    4.2055 H   0  0  0  0  0  0
    3.8337   29.8239    6.5746 H   0  0  0  0  0  0
    3.0007   27.4095    9.3111 H   0  0  0  0  0  0
    0.8580   33.0519    6.9759 H   0  0  0  0  0  0
   -1.4625   33.0802    8.1755 H   0  0  0  0  0  0
   -3.2026   31.6306    7.7761 H   0  0  0  0  0  0
   -2.3053   30.2520    8.3805 H   0  0  0  0  0  0
   -4.3673   31.4491    9.8281 H   0  0  0  0  0  0
   -3.1086   30.4191   10.5018 H   0  0  0  0  0  0
   -3.1420   33.4522   10.3668 H   0  0  0  0  0  0
   -2.7420   32.4414   11.7439 H   0  0  0  0  0  0
   -0.6777   31.7426   10.7199 H   0  0  0  0  0  0
   -0.7216   33.4519   10.3730 H   0  0  0  0  0  0
    1.4381   26.6513   10.8754 H   0  0  0  0  0  0
   -0.9997   28.3493   11.3231 H   0  0  0  0  0  0
   -1.3933   27.0678   13.3158 H   0  0  0  0  0  0
    0.2557   27.6168   13.3767 H   0  0  0  0  0  0
    1.0923   25.4269   12.6566 H   0  0  0  0  0  0
    0.0579   25.2214   14.0567 H   0  0  0  0  0  0
   -1.8042   24.5457   12.6028 H   0  0  0  0  0  0
    0.0868   24.8250   10.2372 H   0  0  0  0  0  0
   -1.5634   24.2529   10.1768 H   0  0  0  0  0  0
   -1.4381   26.6514    9.5267 H   0  0  0  0  0  0
   -2.4092   26.4266   10.9612 H   0  0  0  0  0  0
   -0.3014   22.8884   13.3509 H   0  0  0  0  0  0
   -0.9736   22.4647   11.9486 H   0  0  0  0  0  0
  1  2  1  0  0  0
  1 36  1  0  0  0
  1 37  1  0  0  0
  1 38  1  0  0  0
  2  3  1  0  0  0
  2  4  1  0  0  0
  3 39  1  0  0  0
  3 40  1  0  0  0
  3 41  1  0  0  0
  4  5  2  0  0  0
  4  6  2  0  0  0
  4  7  1  0  0  0
  7 12  1  0  0  0
  7  8  2  0  0  0
  8  9  1  0  0  0
  8 42  1  0  0  0
  9 10  2  0  0  0
  9 43  1  0  0  0
 10 11  1  0  0  0
 10 13  1  0  0  0
 11 12  2  0  0  0
 11 44  1  0  0  0
 12 45  1  0  0  0
 13 14  1  0  0  0
 13 46  1  0  0  0
 14 19  1  0  0  0
 14 15  2  0  0  0
 15 16  1  0  0  0
 15 47  1  0  0  0
 16 17  2  0  0  0
 16 28  1  0  0  0
 17 18  1  0  0  0
 18 22  2  0  0  0
 18 19  1  0  0  0
 19 20  1  0  0  0
 20 21  2  0  0  0
 21 22  1  0  0  0
 21 48  1  0  0  0
 22 23  1  0  0  0
 23 27  1  0  0  0
 23 24  1  0  0  0
 23 49  1  0  0  0
 24 25  1  0  0  0
 24 50  1  0  0  0
 24 51  1  0  0  0
 25 26  1  0  0  0
 25 52  1  0  0  0
 25 53  1  0  0  0
 26 27  1  0  0  0
 26 54  1  0  0  0
 26 55  1  0  0  0
 27 56  1  0  0  0
 27 57  1  0  0  0
 28 29  1  0  0  0
 28 58  1  0  0  0
 29 34  1  0  0  0
 29 30  1  0  0  0
 29 59  1  0  0  0
 30 31  1  0  0  0
 30 60  1  0  0  0
 30 61  1  0  0  0
 31 32  1  0  0  0
 31 62  1  0  0  0
 31 63  1  0  0  0
 32 33  1  0  0  0
 32 35  1  0  0  0
 32 64  1  0  0  0
 33 34  1  0  0  0
 33 65  1  0  0  0
 33 66  1  0  0  0
 34 67  1  0  0  0
 34 68  1  0  0  0
 35 69  1  0  0  0
 35 70  1  0  0  0
M  END
> <s_m_entry_id>
34605

> <s_m_entry_name>
ligand_docking-pose.102

> <s_m_Source_Path>
/home/csk/Desktop/cluster/DUD-E-result/cdk2

> <s_m_Source_File>
ligand_docking-pose.sdf

> <i_m_Source_File_Index>
102

> <i_lp_mmshare_version>
53161

> <r_lp_tautomer_probability>
1

> <s_lp_Force_Field>
OPLS_2005

> <r_lp_Energy>
33.660367

> <b_lp_Chiralities_Consistent>
1

> <s_lp_Variant>
300793-1

> <s_i_glide_gridfile>
glide-grid_1h00

> <i_i_glide_lignum>
1564

> <i_i_glide_rotatable_bonds>
7

> <r_i_docking_score>
-8.18103975003157

> <r_i_glide_ligand_efficiency>
-0.233743992858045

> <r_i_glide_ligand_efficiency_sa>
-0.764592099340782

> <r_i_glide_ligand_efficiency_ln>
-1.79591979352653

> <r_i_glide_gscore>
-8.18103975003157

> <r_i_glide_lipo>
-3.63401155404702

> <r_i_glide_hbond>
-0.305944090960466

> <r_i_glide_metal>
0

> <r_i_glide_rewards>
-1.71178169898201

> <r_i_glide_evdw>
-50.7175254821777

> <r_i_glide_ecoul>
-3.17357659339905

> <r_i_glide_erotb>
0.494236763633694

> <r_i_glide_esite>
-0.0116264065570168

> <r_i_glide_emodel>
-73.3650567284451

> <r_i_glide_energy>
-53.8911020755768

> <r_i_glide_einternal>
8.53269958496094

> <i_i_glide_confnum>
12

> <i_i_glide_posenum>
154

> <r_i_glide_eff_state_penalty>
0

> <i_f3d_flags>
0

> <s_user_duplicate_titles>
300793

> <s_m_subgroup_title>
dock_pv

> <s_m_subgroupid>
dock_pv1

> <b_m_subgroup_collapsed>
0

$$$$
310778
                    3D
 Schrodinger Suite 2021-1.
 47 50  0  0  1  0            999 V2000
    6.8435   25.3888    5.5632 C   0  0  0  0  0  0
    6.1461   25.5506    6.7940 O   0  0  0  0  0  0
    5.2702   26.6093    6.9353 C   0  0  0  0  0  0
    4.6543   26.7449    8.1760 C   0  0  0  0  0  0
    3.7778   27.7930    8.4356 C   0  0  0  0  0  0
    3.4810   28.7066    7.4254 C   0  0  0  0  0  0
    4.0859   28.5767    6.1713 C   0  0  0  0  0  0
    4.9727   27.5341    5.9256 C   0  0  0  0  0  0
    2.4634   29.7673    7.6473 C   0  0  0  0  0  0
    1.3222   29.8517    8.4281 C   0  0  0  0  0  0
    0.7573   31.0696    8.1305 C   0  0  0  0  0  0
    1.4271   31.7548    7.2410 N   0  0  0  0  0  0
    2.4580   30.9556    6.9760 N   0  0  0  0  0  0
   -0.4411   31.2700    8.9070 C   0  0  0  0  0  0
   -1.3085   32.3486    8.9673 C   0  0  0  0  0  0
   -2.4474   32.2366    9.7407 C   0  0  0  0  0  0
   -2.7028   31.0680   10.4451 C   0  0  0  0  0  0
   -1.7696   30.0281   10.5066 C   0  0  0  0  0  0
   -0.6267   30.1155    9.6781 C   0  0  0  0  0  0
    0.4803   29.1483    9.3761 C   0  0  0  0  0  0
    0.6317   28.0009    9.7896 O   0  0  0  0  0  0
   -2.1270   28.9797   11.3757 N   0  0  0  0  0  0
   -1.3174   28.2121   12.1275 C   0  0  0  0  0  0
   -0.1663   28.5189   12.4477 O   0  0  0  0  0  0
   -1.9407   27.0690   12.4737 N   0  0  0  0  0  0
   -1.1443   25.9960   12.8728 N   0  0  0  0  0  0
   -1.3707   25.4332   14.0854 C   0  0  0  0  0  0
   -2.0398   25.9661   14.9776 O   0  0  0  0  0  0
   -0.7421   24.0857   14.3118 C   0  0  0  0  0  0
   -0.8718   23.4805   15.3759 O   0  0  0  0  0  0
   -0.0388   23.5358   13.3096 N   0  0  0  0  0  0
    3.2032   31.2285    6.3411 H   0  0  0  0  0  0
    7.4962   24.5186    5.6312 H   0  0  0  0  0  0
    6.1572   25.2216    4.7319 H   0  0  0  0  0  0
    7.4712   26.2534    5.3420 H   0  0  0  0  0  0
    4.8583   26.0260    8.9530 H   0  0  0  0  0  0
    3.3142   27.8700    9.4090 H   0  0  0  0  0  0
    3.8639   29.2727    5.3758 H   0  0  0  0  0  0
    5.4300   27.4662    4.9505 H   0  0  0  0  0  0
   -1.1271   33.2467    8.3941 H   0  0  0  0  0  0
   -3.1420   33.0524    9.7818 H   0  0  0  0  0  0
   -3.6351   31.0057   10.9760 H   0  0  0  0  0  0
   -3.0907   28.9985   11.6771 H   0  0  0  0  0  0
   -2.7599   26.7579   11.9732 H   0  0  0  0  0  0
   -0.7827   25.4817   12.0852 H   0  0  0  0  0  0
    0.3547   22.6179   13.4540 H   0  0  0  0  0  0
    0.1146   24.0075   12.4334 H   0  0  0  0  0  0
  1  2  1  0  0  0
  1 33  1  0  0  0
  1 34  1  0  0  0
  1 35  1  0  0  0
  2  3  1  0  0  0
  3  8  1  0  0  0
  3  4  2  0  0  0
  4  5  1  0  0  0
  4 36  1  0  0  0
  5  6  2  0  0  0
  5 37  1  0  0  0
  6  7  1  0  0  0
  6  9  1  0  0  0
  7  8  2  0  0  0
  7 38  1  0  0  0
  8 39  1  0  0  0
  9 13  1  0  0  0
  9 10  2  0  0  0
 10 20  1  0  0  0
 10 11  1  0  0  0
 11 12  2  0  0  0
 11 14  1  0  0  0
 12 13  1  0  0  0
 13 32  1  0  0  0
 14 19  2  0  0  0
 14 15  1  0  0  0
 15 16  2  0  0  0
 15 40  1  0  0  0
 16 17  1  0  0  0
 16 41  1  0  0  0
 17 18  2  0  0  0
 17 42  1  0  0  0
 18 19  1  0  0  0
 18 22  1  0  0  0
 19 20  1  0  0  0
 20 21  2  0  0  0
 22 23  1  0  0  0
 22 43  1  0  0  0
 23 24  2  0  0  0
 23 25  1  0  0  0
 25 26  1  0  0  0
 25 44  1  0  0  0
 26 27  1  0  0  0
 26 45  1  0  0  0
 27 28  2  0  0  0
 27 29  1  0  0  0
 29 30  2  0  0  0
 29 31  1  0  0  0
 31 46  1  0  0  0
 31 47  1  0  0  0
M  END
> <s_m_entry_id>
34610

> <s_m_entry_name>
ligand_docking-pose.107

> <s_m_Source_Path>
/home/csk/Desktop/cluster/DUD-E-result/cdk2

> <s_m_Source_File>
ligand_docking-pose.sdf

> <i_m_Source_File_Index>
107

> <i_lp_mmshare_version>
53161

> <r_lp_tautomer_probability>
1

> <s_lp_Force_Field>
OPLS_2005

> <r_lp_Energy>
62.130573

> <b_lp_Chiralities_Consistent>
1

> <s_lp_Variant>
310778-1

> <s_i_glide_gridfile>
glide-grid_1h00

> <i_i_glide_lignum>
1660

> <i_i_glide_rotatable_bonds>
8

> <r_i_docking_score>
-8.15081241570364

> <r_i_glide_ligand_efficiency>
-0.262929432764634

> <r_i_glide_ligand_efficiency_sa>
-0.825961432085616

> <r_i_glide_ligand_efficiency_ln>
-1.83825799214278

> <r_i_glide_gscore>
-8.15081241570364

> <r_i_glide_lipo>
-2.62721888601603

> <r_i_glide_hbond>
-0.32

> <r_i_glide_metal>
0

> <r_i_glide_rewards>
-2.17652210784977

> <r_i_glide_evdw>
-41.1478462219238

> <r_i_glide_ecoul>
-10.7115812301636

> <r_i_glide_erotb>
0.671982524874037

> <r_i_glide_esite>
-0.03492445109115

> <r_i_glide_emodel>
-72.9384851872843

> <r_i_glide_energy>
-51.8594274520874

> <r_i_glide_einternal>
13.1284618377686

> <i_i_glide_confnum>
42

> <i_i_glide_posenum>
144

> <r_i_glide_eff_state_penalty>
0

> <i_f3d_flags>
0

> <s_user_duplicate_titles>
310778

> <s_m_subgroup_title>
dock_pv

> <s_m_subgroupid>
dock_pv1

> <b_m_subgroup_collapsed>
0

$$$$
210905
                    3D
 Schrodinger Suite 2021-1.
 40 42  0  0  1  0            999 V2000
   -0.5821   25.9074   13.6788 C   0  0  0  0  0  0
   -1.6956   26.4411   12.7630 C   0  0  0  0  0  0
   -1.4046   27.8269   12.2312 C   0  0  0  0  0  0
   -0.3932   28.7592   12.3838 C   0  0  0  0  0  0
   -0.6456   29.8520   11.6922 N   0  0  0  0  0  0
   -1.7737   29.5868   11.0710 C   0  0  0  0  0  0
   -2.3008   28.3725   11.3761 O   0  0  0  0  0  0
   -2.5255   30.4315   10.0537 C   0  0  0  0  0  0
   -1.7407   32.0036    9.5400 S   0  0  0  0  0  0
   -0.3420   31.4958    8.5779 C   0  0  0  0  0  0
    0.4579   32.3121    7.7760 C   0  0  0  0  0  0
    1.5160   31.7629    7.2115 N   0  0  0  0  0  0
    1.6830   30.5286    7.6062 C   0  0  0  0  0  0
    0.3758   29.9050    8.5761 S   0  0  0  0  0  0
    2.8581   29.8522    7.3062 N   0  0  0  0  0  0
    3.4333   28.8467    8.0001 C   0  0  0  0  0  0
    2.9366   28.2840    8.9759 O   0  0  0  0  0  0
    4.8239   28.4106    7.5202 C   0  0  0  0  0  0
    4.7698   27.0753    6.7921 C   0  0  0  0  0  0
    4.5706   27.0181    5.4067 C   0  0  0  0  0  0
    4.4692   25.7766    4.7751 C   0  0  0  0  0  0
    4.5698   24.6231    5.5557 C   0  0  0  0  0  0
    4.7637   24.6539    6.8996 N   0  0  0  0  0  0
    4.8585   25.8692    7.4977 C   0  0  0  0  0  0
   -0.8163   24.9047   14.0374 H   0  0  0  0  0  0
    0.3721   25.8579   13.1517 H   0  0  0  0  0  0
   -0.4435   26.5498   14.5495 H   0  0  0  0  0  0
   -2.6387   26.4512   13.3109 H   0  0  0  0  0  0
   -1.8398   25.7485   11.9327 H   0  0  0  0  0  0
    0.5002   28.6465   12.9762 H   0  0  0  0  0  0
   -3.5017   30.6906   10.4642 H   0  0  0  0  0  0
   -2.7341   29.8523    9.1569 H   0  0  0  0  0  0
    0.2643   33.3609    7.5982 H   0  0  0  0  0  0
    3.4504   30.3140    6.6239 H   0  0  0  0  0  0
    5.4850   28.3407    8.3852 H   0  0  0  0  0  0
    5.2577   29.1655    6.8631 H   0  0  0  0  0  0
    4.4897   27.9255    4.8260 H   0  0  0  0  0  0
    4.3156   25.7075    3.7068 H   0  0  0  0  0  0
    4.4927   23.6455    5.1026 H   0  0  0  0  0  0
    4.9885   25.8655    8.5720 H   0  0  0  0  0  0
  1  2  1  0  0  0
  1 25  1  0  0  0
  1 26  1  0  0  0
  1 27  1  0  0  0
  2  3  1  0  0  0
  2 28  1  0  0  0
  2 29  1  0  0  0
  3  7  1  0  0  0
  3  4  2  0  0  0
  4  5  1  0  0  0
  4 30  1  0  0  0
  5  6  2  0  0  0
  6  7  1  0  0  0
  6  8  1  0  0  0
  8  9  1  0  0  0
  8 31  1  0  0  0
  8 32  1  0  0  0
  9 10  1  0  0  0
 10 14  1  0  0  0
 10 11  2  0  0  0
 11 12  1  0  0  0
 11 33  1  0  0  0
 12 13  2  0  0  0
 13 14  1  0  0  0
 13 15  1  0  0  0
 15 16  1  0  0  0
 15 34  1  0  0  0
 16 17  2  0  0  0
 16 18  1  0  0  0
 18 19  1  0  0  0
 18 35  1  0  0  0
 18 36  1  0  0  0
 19 24  1  0  0  0
 19 20  2  0  0  0
 20 21  1  0  0  0
 20 37  1  0  0  0
 21 22  2  0  0  0
 21 38  1  0  0  0
 22 23  1  0  0  0
 22 39  1  0  0  0
 23 24  2  0  0  0
 24 40  1  0  0  0
M  END
> <s_m_entry_id>
34611

> <s_m_entry_name>
ligand_docking-pose.108

> <s_m_Source_Path>
/home/csk/Desktop/cluster/DUD-E-result/cdk2

> <s_m_Source_File>
ligand_docking-pose.sdf

> <i_m_Source_File_Index>
108

> <i_lp_mmshare_version>
53161

> <r_lp_tautomer_probability>
0.999000488399163

> <s_lp_Force_Field>
OPLS_2005

> <r_lp_Energy>
4.95593

> <b_lp_Chiralities_Consistent>
1

> <s_lp_Variant>
210905-1

> <s_i_glide_gridfile>
glide-grid_1h00

> <i_i_glide_lignum>
1060

> <i_i_glide_rotatable_bonds>
8

> <r_i_docking_score>
-8.15064317478497

> <r_i_glide_ligand_efficiency>
-0.339610132282707

> <r_i_glide_ligand_efficiency_sa>
-0.979605133675807

> <r_i_glide_ligand_efficiency_ln>
-1.95082292037061

> <r_i_glide_gscore>
-8.15064317478497

> <r_i_glide_lipo>
-2.72309375154896

> <r_i_glide_hbond>
-0.336370910638275

> <r_i_glide_metal>
0

> <r_i_glide_rewards>
-2.69458157602074

> <r_i_glide_evdw>
-43.9822044372559

> <r_i_glide_ecoul>
-5.44975566864014

> <r_i_glide_erotb>
0.619976635581807

> <r_i_glide_esite>
0

> <r_i_glide_emodel>
-71.3486413111392

> <r_i_glide_energy>
-49.431960105896

> <r_i_glide_einternal>
4.74603366851807

> <i_i_glide_confnum>
30

> <i_i_glide_posenum>
314

> <r_i_glide_eff_state_penalty>
0

> <i_f3d_flags>
0

> <s_user_duplicate_titles>
210905

> <s_m_subgroup_title>
dock_pv

> <s_m_subgroupid>
dock_pv1

> <b_m_subgroup_collapsed>
0

$$$$
320729
                    3D
 Schrodinger Suite 2021-1.
 45 48  0  0  1  0            999 V2000
    5.5042   28.0605    8.5765 C   0  0  0  0  0  0
    4.6154   28.1442    7.3310 C   0  0  1  0  0  0
    4.5012   26.7779    6.6347 C   0  0  0  0  0  0
    4.4588   26.7032    5.2400 C   0  0  0  0  0  0
    4.3544   25.4659    4.6012 C   0  0  0  0  0  0
    4.3054   24.2722    5.3432 C   0  0  0  0  0  0
    4.3734   24.3630    6.7439 C   0  0  0  0  0  0
    4.4584   25.5939    7.3778 C   0  0  0  0  0  0
    4.1416   23.0275    4.6628 N   0  0  0  0  0  0
    3.8084   22.9253    3.2545 C   0  0  0  0  0  0
    3.6581   21.4506    3.0361 C   0  0  0  0  0  0
    3.3233   20.8770    2.0033 O   0  0  0  0  0  0
    3.9577   20.9038    4.2096 N   0  0  0  0  0  0
    4.2447   21.7748    5.1925 C   0  0  0  0  0  0
    4.5422   21.4325    6.3363 O   0  0  0  0  0  0
    3.2581   28.7543    7.7513 C   0  0  0  0  0  0
    2.6421   28.2666    8.7026 O   0  0  0  0  0  0
    2.8579   29.8520    7.0760 N   0  0  0  0  0  0
    1.7778   30.6516    7.3945 C   0  0  0  0  0  0
    0.6318   30.3767    8.1609 C   0  0  0  0  0  0
   -0.0822   31.5621    8.2374 C   0  0  0  0  0  0
    0.6882   32.4465    7.5289 N   0  0  0  0  0  0
    1.7687   31.8934    6.9760 N   0  0  0  0  0  0
   -1.3828   31.9556    8.9049 C   0  0  0  0  0  0
   -2.4142   30.9002    9.2274 C   0  0  0  0  0  0
   -1.6511   31.5824   10.3417 C   0  0  0  0  0  0
    0.4561   33.4199    7.3812 H   0  0  0  0  0  0
    5.0215   27.4957    9.3689 H   0  0  0  0  0  0
    6.4521   27.5539    8.3836 H   0  0  0  0  0  0
    5.6562   29.0596    8.9755 H   0  0  0  0  0  0
    5.1101   28.8212    6.6311 H   0  0  0  0  0  0
    4.4992   27.6033    4.6440 H   0  0  0  0  0  0
    4.3107   25.4519    3.5220 H   0  0  0  0  0  0
    4.3076   23.4982    7.3827 H   0  0  0  0  0  0
    4.4735   25.6113    8.4568 H   0  0  0  0  0  0
    2.8833   23.4504    3.0207 H   0  0  0  0  0  0
    4.6258   23.3067    2.6415 H   0  0  0  0  0  0
    3.9747   19.9083    4.3543 H   0  0  0  0  0  0
    3.5254   30.2756    6.4405 H   0  0  0  0  0  0
    0.3692   29.4378    8.6237 H   0  0  0  0  0  0
   -1.7702   32.9223    8.5840 H   0  0  0  0  0  0
   -2.1907   29.8531    9.0180 H   0  0  0  0  0  0
   -3.4706   31.1365    9.0916 H   0  0  0  0  0  0
   -2.1891   32.2861   10.9765 H   0  0  0  0  0  0
   -0.8985   31.0164   10.8909 H   0  0  0  0  0  0
  1  2  1  0  0  0
  1 28  1  0  0  0
  1 29  1  0  0  0
  1 30  1  0  0  0
  2  3  1  0  0  0
  2 16  1  0  0  0
  2 31  1  0  0  0
  3  8  1  0  0  0
  3  4  2  0  0  0
  4  5  1  0  0  0
  4 32  1  0  0  0
  5  6  2  0  0  0
  5 33  1  0  0  0
  6  7  1  0  0  0
  6  9  1  0  0  0
  7  8  2  0  0  0
  7 34  1  0  0  0
  8 35  1  0  0  0
  9 14  1  0  0  0
  9 10  1  0  0  0
 10 11  1  0  0  0
 10 36  1  0  0  0
 10 37  1  0  0  0
 11 12  2  0  0  0
 11 13  1  0  0  0
 13 14  1  0  0  0
 13 38  1  0  0  0
 14 15  2  0  0  0
 16 17  2  0  0  0
 16 18  1  0  0  0
 18 19  1  0  0  0
 18 39  1  0  0  0
 19 23  2  0  0  0
 19 20  1  0  0  0
 20 21  2  0  0  0
 20 40  1  0  0  0
 21 22  1  0  0  0
 21 24  1  0  0  0
 22 27  1  0  0  0
 22 23  1  0  0  0
 24 26  1  0  0  0
 24 25  1  0  0  0
 24 41  1  0  0  0
 25 26  1  0  0  0
 25 42  1  0  0  0
 25 43  1  0  0  0
 26 44  1  0  0  0
 26 45  1  0  0  0
M  END
> <s_m_entry_id>
34612

> <s_m_entry_name>
ligand_docking-pose.109

> <s_m_Source_Path>
/home/csk/Desktop/cluster/DUD-E-result/cdk2

> <s_m_Source_File>
ligand_docking-pose.sdf

> <i_m_Source_File_Index>
109

> <i_lp_mmshare_version>
53161

> <r_lp_tautomer_probability>
0.499999999890788

> <s_lp_Force_Field>
OPLS_2005

> <r_lp_Energy>
38.948938

> <b_lp_Chiralities_Consistent>
1

> <s_lp_Variant>
320729-2

> <s_i_glide_gridfile>
glide-grid_1h00

> <i_i_glide_lignum>
1040

> <i_i_glide_rotatable_bonds>
6

> <r_i_docking_score>
-8.14690631422192

> <r_i_glide_ligand_efficiency>
-0.313342550546997

> <r_i_glide_ligand_efficiency_sa>
-0.928276073052079

> <r_i_glide_ligand_efficiency_ln>
-1.91327421571503

> <r_i_glide_gscore>
-8.14690631422192

> <r_i_glide_lipo>
-2.52337626729172

> <r_i_glide_hbond>
-0.768106559237745

> <r_i_glide_metal>
0

> <r_i_glide_rewards>
-2.617653192543

> <r_i_glide_evdw>
-30.9772338867188

> <r_i_glide_ecoul>
-8.31562614440918

> <r_i_glide_erotb>
0.642275912427863

> <r_i_glide_esite>
-0.0838405915800052

> <r_i_glide_emodel>
-57.5396021825861

> <r_i_glide_energy>
-39.2928600311279

> <r_i_glide_einternal>
5.21008205413818

> <i_i_glide_confnum>
3

> <i_i_glide_posenum>
23

> <r_i_glide_eff_state_penalty>
0

> <i_f3d_flags>
0

> <s_user_duplicate_titles>
320729

> <s_m_subgroup_title>
dock_pv

> <s_m_subgroupid>
dock_pv1

> <b_m_subgroup_collapsed>
0

$$$$
303731
                    3D
 Schrodinger Suite 2021-1.
 56 60  0  0  1  0            999 V2000
    4.6281   28.2527    6.2055 C   0  0  0  0  0  0
    5.2071   26.9978    6.0544 C   0  0  0  0  0  0
    5.0278   26.0120    7.0314 C   0  0  0  0  0  0
    4.2926   26.3347    8.1760 C   0  0  0  0  0  0
    3.7389   27.6019    8.3488 C   0  0  0  0  0  0
    3.8730   28.5531    7.3377 C   0  0  0  0  0  0
    3.2580   29.8093    7.3760 N   0  0  0  0  0  0
    2.0181   30.2481    7.8343 C   0  0  0  0  0  0
    1.6383   31.4445    7.3357 N   0  0  0  0  0  0
    0.4537   31.9132    7.7762 C   0  0  0  0  0  0
   -0.3846   31.2102    8.6780 C   0  0  0  0  0  0
   -1.6244   31.7046    9.1337 C   0  0  0  0  0  0
   -2.3751   30.9563   10.0320 C   0  0  0  0  0  0
   -1.9290   29.7218   10.4960 C   0  0  0  0  0  0
   -0.6910   29.1928   10.0834 C   0  0  0  0  0  0
    0.0985   29.9466    9.1444 C   0  0  0  0  0  0
    1.3117   29.4859    8.7099 N   0  0  0  0  0  0
   -0.1543   27.8534   10.6483 C   0  0  0  0  0  0
    0.0096   27.7855   12.1768 C   0  0  0  0  0  0
    0.0500   26.2925   12.4982 C   0  0  0  0  0  0
   -0.9651   25.6882   11.5295 C   0  0  0  0  0  0
   -0.9137   26.5620   10.2633 C   0  0  0  0  0  0
   -2.7399   29.0520   11.3759 O   0  0  0  0  0  0
    5.5165   24.7176    6.8743 N   0  0  0  0  0  0
    6.6185   24.3911    5.9483 C   0  0  0  0  0  0
    6.1315   23.9990    4.5278 C   0  0  0  0  0  0
    5.1780   22.8937    4.5735 N   0  0  0  0  0  0
    4.0642   23.2626    5.4413 C   0  0  0  0  0  0
    4.5645   23.5917    6.8694 C   0  0  0  0  0  0
    4.7577   28.9884    5.4243 H   0  0  0  0  0  0
    5.7731   26.8002    5.1574 H   0  0  0  0  0  0
    4.1558   25.6007    8.9570 H   0  0  0  0  0  0
    3.1872   27.8183    9.2507 H   0  0  0  0  0  0
    3.7231   30.4988    6.7880 H   0  0  0  0  0  0
    0.1502   32.8813    7.4004 H   0  0  0  0  0  0
   -1.9836   32.6632    8.7858 H   0  0  0  0  0  0
   -3.3229   31.3465   10.3754 H   0  0  0  0  0  0
    0.8709   27.7032   10.3093 H   0  0  0  0  0  0
   -0.8451   28.2232   12.6897 H   0  0  0  0  0  0
    0.8580   28.3666   12.5335 H   0  0  0  0  0  0
   -0.1883   26.0848   13.5420 H   0  0  0  0  0  0
    1.0465   25.8937   12.2993 H   0  0  0  0  0  0
   -1.9634   25.7321   11.9701 H   0  0  0  0  0  0
   -0.7545   24.6393   11.3173 H   0  0  0  0  0  0
   -0.3958   26.0136    9.4764 H   0  0  0  0  0  0
   -1.9417   26.7503    9.9711 H   0  0  0  0  0  0
   -3.2609   29.6539   11.9316 H   0  0  0  0  0  0
    7.3173   25.2263    5.8852 H   0  0  0  0  0  0
    7.1874   23.5600    6.3683 H   0  0  0  0  0  0
    6.9753   23.7058    3.9022 H   0  0  0  0  0  0
    5.6756   24.8494    4.0179 H   0  0  0  0  0  0
    4.8388   22.7093    3.6375 H   0  0  0  0  0  0
    3.3395   22.4482    5.4610 H   0  0  0  0  0  0
    3.5363   24.1169    5.0149 H   0  0  0  0  0  0
    5.0503   22.7125    7.2958 H   0  0  0  0  0  0
    3.7040   23.8038    7.5057 H   0  0  0  0  0  0
  1  6  1  0  0  0
  1  2  2  0  0  0
  1 30  1  0  0  0
  2  3  1  0  0  0
  2 31  1  0  0  0
  3  4  2  0  0  0
  3 24  1  0  0  0
  4  5  1  0  0  0
  4 32  1  0  0  0
  5  6  2  0  0  0
  5 33  1  0  0  0
  6  7  1  0  0  0
  7  8  1  0  0  0
  7 34  1  0  0  0
  8 17  1  0  0  0
  8  9  2  0  0  0
  9 10  1  0  0  0
 10 11  2  0  0  0
 10 35  1  0  0  0
 11 16  1  0  0  0
 11 12  1  0  0  0
 12 13  2  0  0  0
 12 36  1  0  0  0
 13 14  1  0  0  0
 13 37  1  0  0  0
 14 15  2  0  0  0
 14 23  1  0  0  0
 15 16  1  0  0  0
 15 18  1  0  0  0
 16 17  2  0  0  0
 18 22  1  0  0  0
 18 19  1  0  0  0
 18 38  1  0  0  0
 19 20  1  0  0  0
 19 39  1  0  0  0
 19 40  1  0  0  0
 20 21  1  0  0  0
 20 41  1  0  0  0
 20 42  1  0  0  0
 21 22  1  0  0  0
 21 43  1  0  0  0
 21 44  1  0  0  0
 22 45  1  0  0  0
 22 46  1  0  0  0
 23 47  1  0  0  0
 24 29  1  0  0  0
 24 25  1  0  0  0
 25 26  1  0  0  0
 25 48  1  0  0  0
 25 49  1  0  0  0
 26 27  1  0  0  0
 26 50  1  0  0  0
 26 51  1  0  0  0
 27 28  1  0  0  0
 27 52  1  0  0  0
 28 29  1  0  0  0
 28 53  1  0  0  0
 28 54  1  0  0  0
 29 55  1  0  0  0
 29 56  1  0  0  0
M  END
> <s_m_entry_id>
34613

> <s_m_entry_name>
ligand_docking-pose.110

> <s_m_Source_Path>
/home/csk/Desktop/cluster/DUD-E-result/cdk2

> <s_m_Source_File>
ligand_docking-pose.sdf

> <i_m_Source_File_Index>
110

> <i_lp_mmshare_version>
53161

> <r_lp_tautomer_probability>
1

> <s_lp_Force_Field>
OPLS_2005

> <r_lp_Energy>
56.220327

> <b_lp_Chiralities_Consistent>
1

> <s_lp_Variant>
303731-1

> <s_i_glide_gridfile>
glide-grid_1h00

> <i_i_glide_lignum>
424

> <i_i_glide_rotatable_bonds>
5

> <r_i_docking_score>
-8.12722684479645

> <r_i_glide_ligand_efficiency>
-0.280249201544705

> <r_i_glide_ligand_efficiency_sa>
-0.861014336324391

> <r_i_glide_ligand_efficiency_ln>
-1.86092885876742

> <r_i_glide_gscore>
-8.12722684479645

> <r_i_glide_lipo>
-2.87038565524766

> <r_i_glide_hbond>
-0.456

> <r_i_glide_metal>
0

> <r_i_glide_rewards>
-1.88999265490611

> <r_i_glide_evdw>
-38.3334655761719

> <r_i_glide_ecoul>
-10.0546283721924

> <r_i_glide_erotb>
0.514018999994776

> <r_i_glide_esite>
0

> <r_i_glide_emodel>
-68.6638683362461

> <r_i_glide_energy>
-48.3880939483643

> <r_i_glide_einternal>
7.46283531188965

> <i_i_glide_confnum>
129

> <i_i_glide_posenum>
128

> <r_i_glide_eff_state_penalty>
0

> <i_f3d_flags>
0

> <s_user_duplicate_titles>
303731

> <s_m_subgroup_title>
dock_pv

> <s_m_subgroupid>
dock_pv1

> <b_m_subgroup_collapsed>
0

$$$$
285699
                    3D
 Schrodinger Suite 2021-1.
 41 43  0  0  1  0            999 V2000
    2.6431   23.9034    9.5047 C   0  0  0  0  0  0
    2.1471   25.2045    9.7760 O   0  0  0  0  0  0
    1.1858   25.2773   10.7514 C   0  0  0  0  0  0
    0.8202   24.2948   11.6962 C   0  0  0  0  0  0
   -0.2083   24.8055   12.4617 C   0  0  0  0  0  0
   -0.4568   26.0665   11.9959 N   0  0  0  0  0  0
    0.3703   26.3885   10.9487 C   0  0  0  0  0  0
    0.3382   27.6779   10.2481 C   0  0  0  0  0  0
   -0.4484   28.7867   10.3092 C   0  0  0  0  0  0
   -0.3562   30.0540    9.5492 C   0  0  0  0  0  0
   -1.3943   30.8461   10.0040 C   0  0  0  0  0  0
   -1.6151   32.1356    9.5295 C   0  0  0  0  0  0
   -0.7422   32.6519    8.5760 C   0  0  0  0  0  0
    0.3241   31.8838    8.1046 C   0  0  0  0  0  0
    0.5258   30.5735    8.5760 C   0  0  0  0  0  0
    1.7296   29.8638    8.1520 C   0  0  0  0  0  0
    2.7943   29.3439    7.8502 C   0  0  0  0  0  0
    4.1024   28.7336    7.5530 C   0  0  1  0  0  0
    4.2872   27.3504    8.2170 C   0  0  0  0  0  0
    5.6371   26.9301    8.1760 O   0  0  0  0  0  0
    4.2334   28.6519    6.1094 N   0  0  0  0  0  0
    1.1845   32.4481    7.2196 F   0  0  0  0  0  0
   -2.0831   30.1680   10.9735 N   0  0  0  0  0  0
   -1.5968   28.9433   11.1956 C   0  0  0  0  0  0
   -2.0818   28.1626   12.0077 O   0  0  0  0  0  0
   -1.1737   26.6944   12.3496 H   0  0  0  0  0  0
    4.8578   29.4216    7.9379 H   0  0  0  0  0  0
    3.2582   23.9157    8.6042 H   0  0  0  0  0  0
    3.2579   23.5633   10.3296 H   0  0  0  0  0  0
    1.8414   23.1741    9.3760 H   0  0  0  0  0  0
    1.2578   23.3144   11.8053 H   0  0  0  0  0  0
   -0.7818   24.3959   13.2803 H   0  0  0  0  0  0
    1.1411   27.7058    9.5306 H   0  0  0  0  0  0
   -2.4293   32.7422    9.8996 H   0  0  0  0  0  0
   -0.8739   33.6583    8.2045 H   0  0  0  0  0  0
    3.6580   26.5805    7.7728 H   0  0  0  0  0  0
    4.0075   27.4020    9.2717 H   0  0  0  0  0  0
    5.8041   26.4791    9.0176 H   0  0  0  0  0  0
    4.3528   29.6042    5.7756 H   0  0  0  0  0  0
    5.1029   28.1759    5.9058 H   0  0  0  0  0  0
   -2.8524   30.5430   11.5222 H   0  0  0  0  0  0
  1  2  1  0  0  0
  1 28  1  0  0  0
  1 29  1  0  0  0
  1 30  1  0  0  0
  2  3  1  0  0  0
  3  7  2  0  0  0
  3  4  1  0  0  0
  4  5  2  0  0  0
  4 31  1  0  0  0
  5  6  1  0  0  0
  5 32  1  0  0  0
  6 26  1  0  0  0
  6  7  1  0  0  0
  7  8  1  0  0  0
  8  9  2  0  0  0
  8 33  1  0  0  0
  9 24  1  0  0  0
  9 10  1  0  0  0
 10 15  2  0  0  0
 10 11  1  0  0  0
 11 12  2  0  0  0
 11 23  1  0  0  0
 12 13  1  0  0  0
 12 34  1  0  0  0
 13 14  2  0  0  0
 13 35  1  0  0  0
 14 15  1  0  0  0
 14 22  1  0  0  0
 15 16  1  0  0  0
 16 17  3  0  0  0
 17 18  1  0  0  0
 18 27  1  0  0  0
 18 19  1  0  0  0
 18 21  1  0  0  0
 19 20  1  0  0  0
 19 36  1  0  0  0
 19 37  1  0  0  0
 20 38  1  0  0  0
 21 39  1  0  0  0
 21 40  1  0  0  0
 23 24  1  0  0  0
 23 41  1  0  0  0
 24 25  2  0  0  0
M  END
> <s_m_entry_id>
34614

> <s_m_entry_name>
ligand_docking-pose.111

> <s_m_Source_Path>
/home/csk/Desktop/cluster/DUD-E-result/cdk2

> <s_m_Source_File>
ligand_docking-pose.sdf

> <i_m_Source_File_Index>
111

> <i_lp_mmshare_version>
53161

> <r_lp_tautomer_probability>
1

> <s_lp_Force_Field>
OPLS_2005

> <r_lp_Energy>
36.701131

> <b_lp_Chiralities_Consistent>
1

> <s_lp_Variant>
285699-1

> <s_i_glide_gridfile>
glide-grid_1h00

> <i_i_glide_lignum>
1727

> <i_i_glide_rotatable_bonds>
6

> <r_i_docking_score>
-8.11955361899324

> <r_i_glide_ligand_efficiency>
-0.32478214475973

> <r_i_glide_ligand_efficiency_sa>
-0.949668751313313

> <r_i_glide_ligand_efficiency_ln>
-1.92457753108837

> <r_i_glide_gscore>
-8.11955361899324

> <r_i_glide_lipo>
-3.28920832442939

> <r_i_glide_hbond>
-0.576

> <r_i_glide_metal>
0

> <r_i_glide_rewards>
-2.05921664680039

> <r_i_glide_evdw>
-37.092155456543

> <r_i_glide_ecoul>
-6.19053554534912

> <r_i_glide_erotb>
0.650539770909039

> <r_i_glide_esite>
-0.0624803140429866

> <r_i_glide_emodel>
-64.682115847747

> <r_i_glide_energy>
-43.2826910018921

> <r_i_glide_einternal>
2.55512881278992

> <i_i_glide_confnum>
1

> <i_i_glide_posenum>
11

> <r_i_glide_eff_state_penalty>
0

> <i_f3d_flags>
0

> <s_user_duplicate_titles>
285699

> <s_m_subgroup_title>
dock_pv

> <s_m_subgroupid>
dock_pv1

> <b_m_subgroup_collapsed>
0

$$$$
286240
                    3D
 Schrodinger Suite 2021-1.
 47 50  0  0  1  0            999 V2000
   -1.2676   26.2581   14.1541 C   0  0  0  0  0  0
   -0.3396   26.8094   13.2290 O   0  0  0  0  0  0
    0.0094   25.9846   12.1885 C   0  0  0  0  0  0
    0.1958   24.5899   12.2380 C   0  0  0  0  0  0
    0.5975   24.1652   10.9858 C   0  0  0  0  0  0
    0.6398   25.2677   10.1766 N   0  0  0  0  0  0
    0.2654   26.3932   10.8727 C   0  0  0  0  0  0
    0.2673   27.6791   10.1792 C   0  0  0  0  0  0
   -0.5902   28.7302   10.1985 C   0  0  0  0  0  0
   -0.5310   30.0305    9.4926 C   0  0  0  0  0  0
   -1.6289   30.7440    9.9335 C   0  0  0  0  0  0
   -1.8864   32.0484    9.5237 C   0  0  0  0  0  0
   -0.9935   32.6562    8.6453 C   0  0  0  0  0  0
    0.1201   31.9621    8.1761 C   0  0  0  0  0  0
    0.3585   30.6359    8.5774 C   0  0  0  0  0  0
    1.5670   29.9634    8.1142 C   0  0  0  0  0  0
    2.5946   29.3861    7.7915 C   0  0  0  0  0  0
    3.8187   28.6140    7.4946 C   0  0  0  0  0  0
    3.8900   27.3785    8.4319 C   0  0  0  0  0  0
    4.9589   26.3675    7.9810 C   0  0  0  0  0  0
    4.7419   26.0297    6.6138 O   0  0  0  0  0  0
    4.9442   27.1256    5.7267 C   0  0  0  0  0  0
    3.8925   28.2242    5.9944 C   0  0  0  0  0  0
    4.9047   29.4520    7.7765 O   0  0  0  0  0  0
    0.9922   32.6170    7.3726 F   0  0  0  0  0  0
   -2.3420   29.9715   10.8096 N   0  0  0  0  0  0
   -1.8222   28.7512   10.9765 C   0  0  0  0  0  0
   -2.3422   27.8739   11.6600 O   0  0  0  0  0  0
    0.9098   25.2550    9.2024 H   0  0  0  0  0  0
   -1.6507   27.0537   14.7932 H   0  0  0  0  0  0
   -2.1241   25.8012   13.6541 H   0  0  0  0  0  0
   -0.7921   25.5138   14.7948 H   0  0  0  0  0  0
    0.0717   23.9647   13.1088 H   0  0  0  0  0  0
    0.8581   23.1898   10.6006 H   0  0  0  0  0  0
    1.1330   27.7717    9.5475 H   0  0  0  0  0  0
   -2.7438   32.5966    9.8875 H   0  0  0  0  0  0
   -1.1425   33.6794    8.3336 H   0  0  0  0  0  0
    2.9400   26.8483    8.4776 H   0  0  0  0  0  0
    4.0863   27.6862    9.4603 H   0  0  0  0  0  0
    4.8963   25.4565    8.5760 H   0  0  0  0  0  0
    5.9645   26.7667    8.1298 H   0  0  0  0  0  0
    4.8634   26.7675    4.6998 H   0  0  0  0  0  0
    5.9613   27.5004    5.8399 H   0  0  0  0  0  0
    4.1043   29.0969    5.3744 H   0  0  0  0  0  0
    2.9353   27.8533    5.6349 H   0  0  0  0  0  0
    4.8580   30.1946    7.1592 H   0  0  0  0  0  0
   -3.1507   30.2852   11.3327 H   0  0  0  0  0  0
  1  2  1  0  0  0
  1 30  1  0  0  0
  1 31  1  0  0  0
  1 32  1  0  0  0
  2  3  1  0  0  0
  3  7  2  0  0  0
  3  4  1  0  0  0
  4  5  2  0  0  0
  4 33  1  0  0  0
  5  6  1  0  0  0
  5 34  1  0  0  0
  6 29  1  0  0  0
  6  7  1  0  0  0
  7  8  1  0  0  0
  8  9  2  0  0  0
  8 35  1  0  0  0
  9 27  1  0  0  0
  9 10  1  0  0  0
 10 15  2  0  0  0
 10 11  1  0  0  0
 11 12  2  0  0  0
 11 26  1  0  0  0
 12 13  1  0  0  0
 12 36  1  0  0  0
 13 14  2  0  0  0
 13 37  1  0  0  0
 14 15  1  0  0  0
 14 25  1  0  0  0
 15 16  1  0  0  0
 16 17  3  0  0  0
 17 18  1  0  0  0
 18 23  1  0  0  0
 18 19  1  0  0  0
 18 24  1  0  0  0
 19 20  1  0  0  0
 19 38  1  0  0  0
 19 39  1  0  0  0
 20 21  1  0  0  0
 20 40  1  0  0  0
 20 41  1  0  0  0
 21 22  1  0  0  0
 22 23  1  0  0  0
 22 42  1  0  0  0
 22 43  1  0  0  0
 23 44  1  0  0  0
 23 45  1  0  0  0
 24 46  1  0  0  0
 26 27  1  0  0  0
 26 47  1  0  0  0
 27 28  2  0  0  0
M  END
> <s_m_entry_id>
34615

> <s_m_entry_name>
ligand_docking-pose.112

> <s_m_Source_Path>
/home/csk/Desktop/cluster/DUD-E-result/cdk2

> <s_m_Source_File>
ligand_docking-pose.sdf

> <i_m_Source_File_Index>
112

> <i_lp_mmshare_version>
53161

> <r_lp_tautomer_probability>
1

> <s_lp_Force_Field>
OPLS_2005

> <r_lp_Energy>
37.953308

> <b_lp_Chiralities_Consistent>
1

> <s_lp_Variant>
286240-1

> <s_i_glide_gridfile>
glide-grid_1h00

> <i_i_glide_lignum>
1720

> <i_i_glide_rotatable_bonds>
5

> <r_i_docking_score>
-8.11819938743739

> <r_i_glide_ligand_efficiency>
-0.289935692408478

> <r_i_glide_ligand_efficiency_sa>
-0.880415525142811

> <r_i_glide_ligand_efficiency_ln>
-1.87391877931198

> <r_i_glide_gscore>
-8.11819938743739

> <r_i_glide_lipo>
-3.41070070686238

> <r_i_glide_hbond>
-0.455442831247718

> <r_i_glide_metal>
0

> <r_i_glide_rewards>
-1.74452219497195

> <r_i_glide_evdw>
-39.525447845459

> <r_i_glide_ecoul>
-5.85536861419678

> <r_i_glide_erotb>
0.398467377952508

> <r_i_glide_esite>
-0.0514233479053809

> <r_i_glide_emodel>
-62.8641760421047

> <r_i_glide_energy>
-45.3808164596558

> <r_i_glide_einternal>
3.81271624565125

> <i_i_glide_confnum>
3

> <i_i_glide_posenum>
318

> <r_i_glide_eff_state_penalty>
0

> <i_f3d_flags>
0

> <s_user_duplicate_titles>
286240

> <s_m_subgroup_title>
dock_pv

> <s_m_subgroupid>
dock_pv1

> <b_m_subgroup_collapsed>
0

$$$$
235642
                    3D
 Schrodinger Suite 2021-1.
 37 39  0  0  1  0            999 V2000
   -0.2725   28.3420   12.6393 C   0  0  0  0  0  0
    0.3096   27.9723   11.2685 C   0  0  0  0  0  0
   -0.6864   28.1056   10.0978 C   0  0  0  0  0  0
   -1.1351   29.4990    9.8446 N   0  0  0  0  0  0
   -2.3451   29.8807   10.3672 C   0  0  0  0  0  0
   -3.1037   29.1249   10.9760 O   0  0  0  0  0  0
   -2.6983   31.2743   10.1177 C   0  0  0  0  0  0
   -1.9634   32.1189    9.3618 C   0  0  0  0  0  0
   -0.7076   31.6565    8.7638 C   0  0  0  0  0  0
   -0.3043   30.3436    9.0472 C   0  0  0  0  0  0
    0.8674   29.8519    8.5752 N   0  0  0  0  0  0
    1.6086   30.6521    7.7758 C   0  0  0  0  0  0
    1.2580   31.9056    7.3761 N   0  0  0  0  0  0
    0.1180   32.4147    7.9261 C   0  0  0  0  0  0
    2.8580   30.2053    7.3455 N   0  0  0  0  0  0
    3.5476   28.9932    7.4723 C   0  0  0  0  0  0
    4.4213   28.6518    6.4374 C   0  0  0  0  0  0
    5.1129   27.4456    6.4687 C   0  0  0  0  0  0
    4.9202   26.5747    7.5350 C   0  0  0  0  0  0
    4.0576   26.9125    8.5736 C   0  0  0  0  0  0
    3.3909   28.1331    8.5629 C   0  0  0  0  0  0
    0.4576   28.1349   13.4187 H   0  0  0  0  0  0
   -1.1734   27.7690   12.8619 H   0  0  0  0  0  0
   -0.5253   29.4011   12.6989 H   0  0  0  0  0  0
    1.2011   28.5698   11.0785 H   0  0  0  0  0  0
    0.6545   26.9385   11.3113 H   0  0  0  0  0  0
   -0.2343   27.6973    9.1937 H   0  0  0  0  0  0
   -1.5418   27.4558   10.2920 H   0  0  0  0  0  0
   -3.6094   31.6349   10.5741 H   0  0  0  0  0  0
   -2.2931   33.1397    9.2274 H   0  0  0  0  0  0
   -0.1353   33.4323    7.6617 H   0  0  0  0  0  0
    3.3716   30.8789    6.7827 H   0  0  0  0  0  0
    4.5604   29.3133    5.5942 H   0  0  0  0  0  0
    5.7883   27.1858    5.6662 H   0  0  0  0  0  0
    5.4412   25.6290    7.5583 H   0  0  0  0  0  0
    3.9007   26.2140    9.3760 H   0  0  0  0  0  0
    2.7434   28.3835    9.3865 H   0  0  0  0  0  0
  1  2  1  0  0  0
  1 22  1  0  0  0
  1 23  1  0  0  0
  1 24  1  0  0  0
  2  3  1  0  0  0
  2 25  1  0  0  0
  2 26  1  0  0  0
  3  4  1  0  0  0
  3 27  1  0  0  0
  3 28  1  0  0  0
  4 10  1  0  0  0
  4  5  1  0  0  0
  5  6  2  0  0  0
  5  7  1  0  0  0
  7  8  2  0  0  0
  7 29  1  0  0  0
  8  9  1  0  0  0
  8 30  1  0  0  0
  9 14  2  0  0  0
  9 10  1  0  0  0
 10 11  2  0  0  0
 11 12  1  0  0  0
 12 13  2  0  0  0
 12 15  1  0  0  0
 13 14  1  0  0  0
 14 31  1  0  0  0
 15 16  1  0  0  0
 15 32  1  0  0  0
 16 21  1  0  0  0
 16 17  2  0  0  0
 17 18  1  0  0  0
 17 33  1  0  0  0
 18 19  2  0  0  0
 18 34  1  0  0  0
 19 20  1  0  0  0
 19 35  1  0  0  0
 20 21  2  0  0  0
 20 36  1  0  0  0
 21 37  1  0  0  0
M  END
> <s_m_entry_id>
34621

> <s_m_entry_name>
ligand_docking-pose.118

> <s_m_Source_Path>
/home/csk/Desktop/cluster/DUD-E-result/cdk2

> <s_m_Source_File>
ligand_docking-pose.sdf

> <i_m_Source_File_Index>
118

> <i_lp_mmshare_version>
53161

> <r_lp_tautomer_probability>
1

> <s_lp_Force_Field>
OPLS_2005

> <r_lp_Energy>
19.760622

> <b_lp_Chiralities_Consistent>
1

> <s_lp_Variant>
235642-1

> <s_i_glide_gridfile>
glide-grid_1h00

> <i_i_glide_lignum>
1259

> <i_i_glide_rotatable_bonds>
4

> <r_i_docking_score>
-8.08502841872339

> <r_i_glide_ligand_efficiency>
-0.385001353272542

> <r_i_glide_ligand_efficiency_sa>
-1.06218954040511

> <r_i_glide_ligand_efficiency_ln>
-1.99900693919114

> <r_i_glide_gscore>
-8.08502841872339

> <r_i_glide_lipo>
-2.38787206842096

> <r_i_glide_hbond>
-0.32

> <r_i_glide_metal>
0

> <r_i_glide_rewards>
-3.66526644409231

> <r_i_glide_evdw>
-29.955020904541

> <r_i_glide_ecoul>
-6.02360153198242

> <r_i_glide_erotb>
0.6894013688143

> <r_i_glide_esite>
0

> <r_i_glide_emodel>
-54.3334023983575

> <r_i_glide_energy>
-35.9786224365234

> <r_i_glide_einternal>
0.619329392910004

> <i_i_glide_confnum>
6

> <i_i_glide_posenum>
61

> <r_i_glide_eff_state_penalty>
0

> <i_f3d_flags>
0

> <s_user_duplicate_titles>
235642

> <s_m_subgroup_title>
dock_pv

> <s_m_subgroupid>
dock_pv1

> <b_m_subgroup_collapsed>
0

$$$$
72744
                    3D
 Schrodinger Suite 2021-1.
 63 65  0  0  1  0            999 V2000
   -1.4400   25.3258   11.1723 C   0  0  0  0  0  0
   -1.3023   26.1471   12.4755 C   0  0  0  0  0  0
   -2.5319   25.8942   13.3743 C   0  0  0  0  0  0
   -0.0211   25.7025   13.2192 C   0  0  0  0  0  0
   -1.2233   27.6330   12.1404 C   0  0  0  0  0  0
   -0.3429   28.6694   12.4070 C   0  0  0  0  0  0
   -0.7355   29.7944   11.8432 N   0  0  0  0  0  0
   -1.8327   29.4605   11.2032 C   0  0  0  0  0  0
   -2.2054   28.1673   11.3763 O   0  0  0  0  0  0
   -2.6816   30.3028   10.2669 C   0  0  0  0  0  0
   -2.0409   31.9676    9.8667 S   0  0  0  0  0  0
   -0.6573   31.6395    8.8147 C   0  0  0  0  0  0
    0.0582   32.5770    8.0708 C   0  0  0  0  0  0
    1.0985   32.1457    7.3765 N   0  0  0  0  0  0
    1.3230   30.8743    7.5907 C   0  0  0  0  0  0
    0.1136   30.0917    8.5760 S   0  0  0  0  0  0
    2.4580   30.2513    7.0801 N   0  0  0  0  0  0
    3.1478   29.2294    7.6374 C   0  0  0  0  0  0
    2.8444   28.6819    8.6979 O   0  0  0  0  0  0
    4.4280   28.7919    6.8970 C   0  0  0  0  0  0
    4.5154   27.2861    6.6483 C   0  0  0  0  0  0
    4.6495   26.3996    7.7198 C   0  0  0  0  0  0
    4.6781   25.0281    7.4914 C   0  0  0  0  0  0
    4.5843   24.5231    6.1920 C   0  0  0  0  0  0
    4.4789   25.4115    5.1149 C   0  0  0  0  0  0
    4.4514   26.7866    5.3431 C   0  0  0  0  0  0
    4.6442   23.0102    5.9880 C   0  0  0  0  0  0
    3.7175   22.5057    4.9734 N   0  0  2  0  0  0
    3.7557   21.0426    4.8301 C   0  0  0  0  0  0
    3.1185   20.6536    3.4739 C   0  0  0  0  0  0
    3.2587   19.2688    3.2067 O   0  0  0  0  0  0
    3.0832   20.3243    6.0355 C   0  0  0  0  0  0
    1.7108   20.6521    6.1597 O   0  0  0  0  0  0
   -1.4870   24.2549   11.3734 H   0  0  0  0  0  0
   -0.5973   25.4991   10.5011 H   0  0  0  0  0  0
   -2.3434   25.5916   10.6211 H   0  0  0  0  0  0
   -2.4744   26.4705   14.2991 H   0  0  0  0  0  0
   -3.4564   26.1919   12.8767 H   0  0  0  0  0  0
   -2.6288   24.8410   13.6426 H   0  0  0  0  0  0
    0.1164   26.2587   14.1481 H   0  0  0  0  0  0
   -0.0496   24.6419   13.4717 H   0  0  0  0  0  0
    0.8695   25.8702   12.6110 H   0  0  0  0  0  0
    0.5710   28.6024   12.9759 H   0  0  0  0  0  0
   -2.8513   29.7670    9.3386 H   0  0  0  0  0  0
   -3.6740   30.4405   10.6922 H   0  0  0  0  0  0
   -0.1901   33.6275    8.0283 H   0  0  0  0  0  0
    2.9487   30.7430    6.3439 H   0  0  0  0  0  0
    4.5161   29.3177    5.9457 H   0  0  0  0  0  0
    5.2864   29.1033    7.4927 H   0  0  0  0  0  0
    4.7101   26.7714    8.7334 H   0  0  0  0  0  0
    4.7644   24.3623    8.3358 H   0  0  0  0  0  0
    4.4232   25.0450    4.0995 H   0  0  0  0  0  0
    4.3614   27.4594    4.5029 H   0  0  0  0  0  0
    5.6674   22.7784    5.6863 H   0  0  0  0  0  0
    4.4964   22.5195    6.9500 H   0  0  0  0  0  0
    3.9005   22.9428    4.0784 H   0  0  0  0  0  0
    4.8048   20.7430    4.7802 H   0  0  0  0  0  0
    2.0580   20.8887    3.4661 H   0  0  0  0  0  0
    3.5850   21.1991    2.6519 H   0  0  0  0  0  0
    4.1534   19.1099    2.8925 H   0  0  0  0  0  0
    3.1632   19.2438    5.9157 H   0  0  0  0  0  0
    3.5957   20.5462    6.9709 H   0  0  0  0  0  0
    1.6600   21.6088    6.2845 H   0  0  0  0  0  0
  1  2  1  0  0  0
  1 34  1  0  0  0
  1 35  1  0  0  0
  1 36  1  0  0  0
  2  3  1  0  0  0
  2  4  1  0  0  0
  2  5  1  0  0  0
  3 37  1  0  0  0
  3 38  1  0  0  0
  3 39  1  0  0  0
  4 40  1  0  0  0
  4 41  1  0  0  0
  4 42  1  0  0  0
  5  9  1  0  0  0
  5  6  2  0  0  0
  6  7  1  0  0  0
  6 43  1  0  0  0
  7  8  2  0  0  0
  8  9  1  0  0  0
  8 10  1  0  0  0
 10 11  1  0  0  0
 10 44  1  0  0  0
 10 45  1  0  0  0
 11 12  1  0  0  0
 12 16  1  0  0  0
 12 13  2  0  0  0
 13 14  1  0  0  0
 13 46  1  0  0  0
 14 15  2  0  0  0
 15 16  1  0  0  0
 15 17  1  0  0  0
 17 18  1  0  0  0
 17 47  1  0  0  0
 18 19  2  0  0  0
 18 20  1  0  0  0
 20 21  1  0  0  0
 20 48  1  0  0  0
 20 49  1  0  0  0
 21 26  1  0  0  0
 21 22  2  0  0  0
 22 23  1  0  0  0
 22 50  1  0  0  0
 23 24  2  0  0  0
 23 51  1  0  0  0
 24 25  1  0  0  0
 24 27  1  0  0  0
 25 26  2  0  0  0
 25 52  1  0  0  0
 26 53  1  0  0  0
 27 28  1  0  0  0
 27 54  1  0  0  0
 27 55  1  0  0  0
 28 29  1  0  0  0
 28 56  1  0  0  0
 29 30  1  0  0  0
 29 32  1  0  0  0
 29 57  1  0  0  0
 30 31  1  0  0  0
 30 58  1  0  0  0
 30 59  1  0  0  0
 31 60  1  0  0  0
 32 33  1  0  0  0
 32 61  1  0  0  0
 32 62  1  0  0  0
 33 63  1  0  0  0
M  END
> <s_m_entry_id>
34622

> <s_m_entry_name>
ligand_docking-pose.119

> <s_m_Source_Path>
/home/csk/Desktop/cluster/DUD-E-result/cdk2

> <s_m_Source_File>
ligand_docking-pose.sdf

> <i_m_Source_File_Index>
119

> <i_lp_mmshare_version>
53161

> <r_lp_tautomer_probability>
0.999000488399163

> <s_lp_Force_Field>
OPLS_2005

> <r_lp_Energy>
13.490684

> <b_lp_Chiralities_Consistent>
1

> <s_lp_Variant>
72744-1

> <s_i_glide_gridfile>
glide-grid_1h00

> <i_i_glide_lignum>
1152

> <i_i_glide_rotatable_bonds>
15

> <r_i_docking_score>
-8.08457627534107

> <r_i_glide_ligand_efficiency>
-0.24498715985882

> <r_i_glide_ligand_efficiency_sa>
-0.785804724739484

> <r_i_glide_ligand_efficiency_ln>
-1.79796790394018

> <r_i_glide_gscore>
-8.08457627534107

> <r_i_glide_lipo>
-3.01748443439645

> <r_i_glide_hbond>
-0.503458424256235

> <r_i_glide_metal>
0

> <r_i_glide_rewards>
-1.62949991064321

> <r_i_glide_evdw>
-50.5732955932617

> <r_i_glide_ecoul>
-9.46658802032471

> <r_i_glide_erotb>
1.01451947666662

> <r_i_glide_esite>
0

> <r_i_glide_emodel>
-84.422572891073

> <r_i_glide_energy>
-60.0398836135864

> <r_i_glide_einternal>
5.05941772460938

> <i_i_glide_confnum>
29

> <i_i_glide_posenum>
20

> <r_i_glide_eff_state_penalty>
0

> <i_f3d_flags>
0

> <s_user_duplicate_titles>
72744

> <s_m_subgroup_title>
dock_pv

> <s_m_subgroupid>
dock_pv1

> <b_m_subgroup_collapsed>
0

$$$$
147436
                    3D
 Schrodinger Suite 2021-1.
 56 59  0  0  1  0            999 V2000
   -3.1594   30.5287    9.3554 C   0  0  0  0  0  0
   -1.9647   31.3095    9.9273 C   0  0  0  0  0  0
   -2.2283   32.8272    9.9901 C   0  0  0  0  0  0
   -0.7422   30.9989    9.1699 N   0  0  0  0  0  0
   -0.1338   31.7487    8.1762 C   0  0  0  0  0  0
    0.9861   31.2522    7.7199 N   0  0  0  0  0  0
    1.1742   30.1257    8.4750 C   0  0  0  0  0  0
    0.0769   29.8963    9.3300 C   0  0  0  0  0  0
   -0.0526   28.8603   10.1580 N   0  0  0  0  0  0
    1.0055   27.9967   10.1607 C   0  0  0  0  0  0
    2.1464   28.1601    9.4229 N   0  0  0  0  0  0
    2.2424   29.2236    8.5768 C   0  0  0  0  0  0
    3.4118   29.4472    7.8314 N   0  0  0  0  0  0
    4.6199   28.6458    8.0018 C   0  0  0  0  0  0
    4.5710   27.3929    7.1426 C   0  0  0  0  0  0
    4.5081   27.4997    5.7374 C   0  0  0  0  0  0
    4.4592   26.3542    4.9306 C   0  0  0  0  0  0
    4.4686   25.1193    5.5694 C   0  0  0  0  0  0
    4.5370   25.0093    6.9292 C   0  0  0  0  0  0
    4.6003   26.1280    7.7521 C   0  0  0  0  0  0
    4.5546   23.6953    7.2762 O   0  0  0  0  0  0
    4.2925   22.9888    6.0923 C   0  0  0  0  0  0
    4.4443   23.8782    5.0186 O   0  0  0  0  0  0
    0.8893   26.8344   10.9750 N   0  0  0  0  0  0
   -0.3843   26.5088   11.6419 C   0  0  0  0  0  0
   -0.7130   27.3301   12.9083 C   0  0  0  0  0  0
   -1.9417   26.9579   13.5114 O   0  0  0  0  0  0
    1.9370   25.8000   10.9537 C   0  0  0  0  0  0
    1.9429   24.9015    9.6982 C   0  0  0  0  0  0
    2.6958   23.7097    9.7772 O   0  0  0  0  0  0
   -4.0680   30.7260    9.9295 H   0  0  0  0  0  0
   -2.9784   29.4532    9.3934 H   0  0  0  0  0  0
   -3.3585   30.7974    8.3158 H   0  0  0  0  0  0
   -1.7967   30.9697   10.9525 H   0  0  0  0  0  0
   -3.1344   33.0448   10.5569 H   0  0  0  0  0  0
   -1.4090   33.3519   10.4816 H   0  0  0  0  0  0
   -2.3463   33.2559    8.9962 H   0  0  0  0  0  0
   -0.5706   32.6780    7.8411 H   0  0  0  0  0  0
    3.4774   30.2950    7.2820 H   0  0  0  0  0  0
    5.4839   29.2439    7.7096 H   0  0  0  0  0  0
    4.7642   28.3874    9.0526 H   0  0  0  0  0  0
    4.5021   28.4760    5.2733 H   0  0  0  0  0  0
    4.4183   26.4324    3.8538 H   0  0  0  0  0  0
    4.6465   26.0285    8.8260 H   0  0  0  0  0  0
    3.2637   22.6261    6.1089 H   0  0  0  0  0  0
    4.9805   22.1494    5.9875 H   0  0  0  0  0  0
   -1.2184   26.6169   10.9481 H   0  0  0  0  0  0
   -0.4601   25.4463   11.8733 H   0  0  0  0  0  0
    0.1273   27.2693   13.5992 H   0  0  0  0  0  0
   -0.6293   28.3989   12.7108 H   0  0  0  0  0  0
   -2.4463   27.7483   13.7544 H   0  0  0  0  0  0
    2.9351   26.2181   11.0930 H   0  0  0  0  0  0
    1.8788   25.1756   11.8459 H   0  0  0  0  0  0
    0.9054   24.6052    9.5343 H   0  0  0  0  0  0
    2.0577   25.4554    8.7709 H   0  0  0  0  0  0
    2.6818   23.3211    8.8941 H   0  0  0  0  0  0
  1  2  1  0  0  0
  1 31  1  0  0  0
  1 32  1  0  0  0
  1 33  1  0  0  0
  2  3  1  0  0  0
  2  4  1  0  0  0
  2 34  1  0  0  0
  3 35  1  0  0  0
  3 36  1  0  0  0
  3 37  1  0  0  0
  4  8  1  0  0  0
  4  5  1  0  0  0
  5  6  2  0  0  0
  5 38  1  0  0  0
  6  7  1  0  0  0
  7 12  2  0  0  0
  7  8  1  0  0  0
  8  9  2  0  0  0
  9 10  1  0  0  0
 10 11  2  0  0  0
 10 24  1  0  0  0
 11 12  1  0  0  0
 12 13  1  0  0  0
 13 14  1  0  0  0
 13 39  1  0  0  0
 14 15  1  0  0  0
 14 40  1  0  0  0
 14 41  1  0  0  0
 15 20  1  0  0  0
 15 16  2  0  0  0
 16 17  1  0  0  0
 16 42  1  0  0  0
 17 18  2  0  0  0
 17 43  1  0  0  0
 18 23  1  0  0  0
 18 19  1  0  0  0
 19 20  2  0  0  0
 19 21  1  0  0  0
 20 44  1  0  0  0
 21 22  1  0  0  0
 22 23  1  0  0  0
 22 45  1  0  0  0
 22 46  1  0  0  0
 24 25  1  0  0  0
 24 28  1  0  0  0
 25 26  1  0  0  0
 25 47  1  0  0  0
 25 48  1  0  0  0
 26 27  1  0  0  0
 26 49  1  0  0  0
 26 50  1  0  0  0
 27 51  1  0  0  0
 28 29  1  0  0  0
 28 52  1  0  0  0
 28 53  1  0  0  0
 29 30  1  0  0  0
 29 54  1  0  0  0
 29 55  1  0  0  0
 30 56  1  0  0  0
M  END
> <s_m_entry_id>
34624

> <s_m_entry_name>
ligand_docking-pose.121

> <s_m_Source_Path>
/home/csk/Desktop/cluster/DUD-E-result/cdk2

> <s_m_Source_File>
ligand_docking-pose.sdf

> <i_m_Source_File_Index>
121

> <i_lp_mmshare_version>
53161

> <r_lp_tautomer_probability>
0.999997216410988

> <s_lp_Force_Field>
OPLS_2005

> <r_lp_Energy>
33.764381

> <b_lp_Chiralities_Consistent>
1

> <s_lp_Variant>
147436-1

> <s_i_glide_gridfile>
glide-grid_1h00

> <i_i_glide_lignum>
1250

> <i_i_glide_rotatable_bonds>
11

> <r_i_docking_score>
-8.06995833753159

> <r_i_glide_ligand_efficiency>
-0.268998611251053

> <r_i_glide_ligand_efficiency_sa>
-0.835841227988097

> <r_i_glide_ligand_efficiency_ln>
-1.83358246352584

> <r_i_glide_gscore>
-8.06995833753159

> <r_i_glide_lipo>
-2.79929402395565

> <r_i_glide_hbond>
-0.358694466707492

> <r_i_glide_metal>
0

> <r_i_glide_rewards>
-2.32208778060587

> <r_i_glide_evdw>
-44.620059967041

> <r_i_glide_ecoul>
-8.46936798095703

> <r_i_glide_erotb>
0.91923206524279

> <r_i_glide_esite>
-0.00770593600975989

> <r_i_glide_emodel>
-78.2981332181196

> <r_i_glide_energy>
-53.089427947998

> <r_i_glide_einternal>
6.82535171508789

> <i_i_glide_confnum>
114

> <i_i_glide_posenum>
183

> <r_i_glide_eff_state_penalty>
0

> <i_f3d_flags>
0

> <s_user_duplicate_titles>
147436

> <s_m_subgroup_title>
dock_pv

> <s_m_subgroupid>
dock_pv1

> <b_m_subgroup_collapsed>
0

$$$$
248129
                    3D
 Schrodinger Suite 2021-1.
 59 63  0  0  1  0            999 V2000
    7.5230   25.1592    7.3688 C   0  0  0  0  0  0
    6.7819   25.8475    6.3719 O   0  0  0  0  0  0
    5.8154   26.7500    6.7657 C   0  0  0  0  0  0
    5.5118   27.0521    8.1010 C   0  0  0  0  0  0
    4.5082   27.9641    8.4078 C   0  0  0  0  0  0
    3.8271   28.6134    7.3844 C   0  0  0  0  0  0
    4.1412   28.3352    6.0509 C   0  0  0  0  0  0
    5.1200   27.3968    5.7471 C   0  0  0  0  0  0
    2.7015   29.5249    7.6908 C   0  0  0  0  0  0
    1.6365   29.4521    8.5761 C   0  0  0  0  0  0
    0.7862   30.4865    8.2145 C   0  0  0  0  0  0
    1.2832   31.2561    7.2777 N   0  0  0  0  0  0
    2.4408   30.6601    6.9757 N   0  0  0  0  0  0
   -0.4485   30.4196    8.9878 C   0  0  0  0  0  0
   -1.6143   31.1814    8.9761 C   0  0  0  0  0  0
   -2.6746   30.8118    9.7982 C   0  0  0  0  0  0
   -2.5527   29.7030   10.6361 C   0  0  0  0  0  0
   -1.3650   28.9544   10.6913 C   0  0  0  0  0  0
   -0.3064   29.3244    9.8452 C   0  0  0  0  0  0
    1.0361   28.6920    9.6574 C   0  0  0  0  0  0
    1.4935   27.7199   10.2550 O   0  0  0  0  0  0
   -1.1978   27.8821   11.5920 N   0  0  0  0  0  0
   -2.1358   27.0562   12.1083 C   0  0  0  0  0  0
   -3.3222   27.0590   11.7763 O   0  0  0  0  0  0
   -1.6656   26.0550   13.1828 C   0  0  0  0  0  0
   -1.0937   24.8318   12.5815 N   0  0  1  0  0  0
    0.2969   25.0330   12.1337 C   0  0  0  0  0  0
    0.9276   23.7691   11.5169 C   0  0  0  0  0  0
    0.8120   22.5750   12.4893 C   0  0  0  0  0  0
   -0.6631   22.3801   12.9109 C   0  0  0  0  0  0
   -1.2151   23.6937   13.5076 C   0  0  0  0  0  0
    1.4746   21.3168   11.8780 C   0  0  0  0  0  0
    2.5943   21.3999   11.3771 O   0  0  0  0  0  0
    0.8488   20.1395   11.9254 N   0  0  0  0  0  0
    3.0825   31.0360    6.2843 H   0  0  0  0  0  0
    8.2039   24.4525    6.8949 H   0  0  0  0  0  0
    8.1210   25.8485    7.9675 H   0  0  0  0  0  0
    6.8581   24.5966    8.0261 H   0  0  0  0  0  0
    6.0368   26.5832    8.9172 H   0  0  0  0  0  0
    4.2531   28.1547    9.4379 H   0  0  0  0  0  0
    3.6108   28.8215    5.2459 H   0  0  0  0  0  0
    5.3556   27.1765    4.7162 H   0  0  0  0  0  0
   -1.7146   32.0360    8.3231 H   0  0  0  0  0  0
   -3.5879   31.3890    9.7996 H   0  0  0  0  0  0
   -3.3813   29.4590   11.2843 H   0  0  0  0  0  0
   -0.2349   27.6340   11.7674 H   0  0  0  0  0  0
   -2.5435   25.8225   13.7897 H   0  0  0  0  0  0
   -0.9607   26.5386   13.8625 H   0  0  0  0  0  0
    0.8927   25.3897   12.9749 H   0  0  0  0  0  0
    0.3253   25.8210   11.3858 H   0  0  0  0  0  0
    1.9700   24.0281   11.3223 H   0  0  0  0  0  0
    0.4037   23.5973   10.5759 H   0  0  0  0  0  0
    1.4157   22.7748   13.3742 H   0  0  0  0  0  0
   -1.3109   22.1252   12.0712 H   0  0  0  0  0  0
   -0.7509   21.6340   13.7026 H   0  0  0  0  0  0
   -0.7042   23.9352   14.4419 H   0  0  0  0  0  0
   -2.2671   23.5525   13.7617 H   0  0  0  0  0  0
    1.3020   19.3279   11.5337 H   0  0  0  0  0  0
   -0.0743   20.0303   12.3253 H   0  0  0  0  0  0
  1  2  1  0  0  0
  1 36  1  0  0  0
  1 37  1  0  0  0
  1 38  1  0  0  0
  2  3  1  0  0  0
  3  8  1  0  0  0
  3  4  2  0  0  0
  4  5  1  0  0  0
  4 39  1  0  0  0
  5  6  2  0  0  0
  5 40  1  0  0  0
  6  7  1  0  0  0
  6  9  1  0  0  0
  7  8  2  0  0  0
  7 41  1  0  0  0
  8 42  1  0  0  0
  9 13  1  0  0  0
  9 10  2  0  0  0
 10 20  1  0  0  0
 10 11  1  0  0  0
 11 12  2  0  0  0
 11 14  1  0  0  0
 12 13  1  0  0  0
 13 35  1  0  0  0
 14 19  2  0  0  0
 14 15  1  0  0  0
 15 16  2  0  0  0
 15 43  1  0  0  0
 16 17  1  0  0  0
 16 44  1  0  0  0
 17 18  2  0  0  0
 17 45  1  0  0  0
 18 19  1  0  0  0
 18 22  1  0  0  0
 19 20  1  0  0  0
 20 21  2  0  0  0
 22 23  1  0  0  0
 22 46  1  0  0  0
 23 24  2  0  0  0
 23 25  1  0  0  0
 25 26  1  0  0  0
 25 47  1  0  0  0
 25 48  1  0  0  0
 26 31  1  0  0  0
 26 27  1  0  0  0
 27 28  1  0  0  0
 27 49  1  0  0  0
 27 50  1  0  0  0
 28 29  1  0  0  0
 28 51  1  0  0  0
 28 52  1  0  0  0
 29 30  1  0  0  0
 29 32  1  0  0  0
 29 53  1  0  0  0
 30 31  1  0  0  0
 30 54  1  0  0  0
 30 55  1  0  0  0
 31 56  1  0  0  0
 31 57  1  0  0  0
 32 33  2  0  0  0
 32 34  1  0  0  0
 34 58  1  0  0  0
 34 59  1  0  0  0
M  END
> <s_m_entry_id>
34625

> <s_m_entry_name>
ligand_docking-pose.122

> <s_m_Source_Path>
/home/csk/Desktop/cluster/DUD-E-result/cdk2

> <s_m_Source_File>
ligand_docking-pose.sdf

> <i_m_Source_File_Index>
122

> <i_lp_mmshare_version>
53161

> <r_lp_tautomer_probability>
1

> <s_lp_Force_Field>
OPLS_2005

> <r_lp_Energy>
71.926944

> <b_lp_Chiralities_Consistent>
1

> <s_lp_Variant>
248129-1

> <s_i_glide_gridfile>
glide-grid_1h00

> <i_i_glide_lignum>
1626

> <i_i_glide_rotatable_bonds>
7

> <r_i_docking_score>
-8.05927874301556

> <r_i_glide_ligand_efficiency>
-0.237037610088693

> <r_i_glide_ligand_efficiency_sa>
-0.767909838087298

> <r_i_glide_ligand_efficiency_ln>
-1.78052072944388

> <r_i_glide_gscore>
-8.05927874301556

> <r_i_glide_lipo>
-3.2624169497762

> <r_i_glide_hbond>
-0.400849495101399

> <r_i_glide_metal>
0

> <r_i_glide_rewards>
-1.65482988286875

> <r_i_glide_evdw>
-45.6497039794922

> <r_i_glide_ecoul>
-5.55346202850342

> <r_i_glide_erotb>
0.476491847034455

> <r_i_glide_esite>
-0.102169759053549

> <r_i_glide_emodel>
-73.3354519931575

> <r_i_glide_energy>
-51.2031660079956

> <r_i_glide_einternal>
9.86764812469482

> <i_i_glide_confnum>
8

> <i_i_glide_posenum>
377

> <r_i_glide_eff_state_penalty>
0

> <i_f3d_flags>
0

> <s_user_duplicate_titles>
248129

> <s_m_subgroup_title>
dock_pv

> <s_m_subgroupid>
dock_pv1

> <b_m_subgroup_collapsed>
0

$$$$
287507
                    3D
 Schrodinger Suite 2021-1.
 47 49  0  0  1  0            999 V2000
    4.4410   26.5200    4.5590 C   0  0  0  0  0  0
    5.1829   27.7569    5.0794 C   0  0  0  0  0  0
    4.2950   28.6520    5.8225 N   0  0  1  0  0  0
    4.0165   28.2400    7.1997 C   0  0  1  0  0  0
    5.2526   28.3114    8.1285 C   0  0  0  0  0  0
    5.8775   27.0431    8.2170 O   0  0  0  0  0  0
    2.8835   29.0518    7.6832 C   0  0  0  0  0  0
    1.9049   29.6467    8.1089 C   0  0  0  0  0  0
    0.6989   30.3210    8.5761 C   0  0  0  0  0  0
    0.4326   31.6216    8.1080 C   0  0  0  0  0  0
   -0.6772   32.3306    8.5760 C   0  0  0  0  0  0
   -1.5427   31.7529    9.5018 C   0  0  0  0  0  0
   -1.2751   30.4627    9.9504 C   0  0  0  0  0  0
   -0.1813   29.7385    9.5147 C   0  0  0  0  0  0
   -0.2438   28.4454   10.2314 C   0  0  0  0  0  0
    0.6029   27.3845   10.1999 C   0  0  0  0  0  0
    0.5874   26.0935   10.8839 C   0  0  0  0  0  0
    0.3489   25.6802   12.1990 C   0  0  0  0  0  0
    0.4849   24.2791   12.2348 C   0  0  0  0  0  0
    0.8582   23.8542   10.9759 C   0  0  0  0  0  0
    0.9220   24.9636   10.1760 N   0  0  0  0  0  0
    0.0569   26.5093   13.2517 O   0  0  0  0  0  0
   -0.8482   25.9754   14.2096 C   0  0  0  0  0  0
   -1.4742   28.4811   11.0152 C   0  0  0  0  0  0
   -1.9981   27.6089   11.7028 O   0  0  0  0  0  0
   -1.9868   29.7068   10.8456 N   0  0  0  0  0  0
    1.2580   32.2299    7.2183 F   0  0  0  0  0  0
    3.6580   27.2135    7.2079 H   0  0  0  0  0  0
    1.1717   24.9507    9.1957 H   0  0  0  0  0  0
    5.1257   25.8613    4.0245 H   0  0  0  0  0  0
    3.6580   26.8033    3.8585 H   0  0  0  0  0  0
    3.9893   25.9389    5.3626 H   0  0  0  0  0  0
    6.0464   27.4523    5.6735 H   0  0  0  0  0  0
    5.5795   28.3050    4.2236 H   0  0  0  0  0  0
    4.6090   29.6202    5.7976 H   0  0  0  0  0  0
    5.9627   29.0558    7.7760 H   0  0  0  0  0  0
    4.9856   28.6003    9.1460 H   0  0  0  0  0  0
    5.6580   26.6519    9.0776 H   0  0  0  0  0  0
   -0.8592   33.3332    8.2162 H   0  0  0  0  0  0
   -2.4000   32.3070    9.8567 H   0  0  0  0  0  0
    1.4668   27.4662    9.5613 H   0  0  0  0  0  0
    0.3531   23.6502   13.1020 H   0  0  0  0  0  0
    1.0798   22.8743   10.5774 H   0  0  0  0  0  0
   -1.1912   26.7759   14.8644 H   0  0  0  0  0  0
   -1.7320   25.5375   13.7406 H   0  0  0  0  0  0
   -0.3642   25.2213   14.8315 H   0  0  0  0  0  0
   -2.8137   30.0209   11.3376 H   0  0  0  0  0  0
  1  2  1  0  0  0
  1 30  1  0  0  0
  1 31  1  0  0  0
  1 32  1  0  0  0
  2  3  1  0  0  0
  2 33  1  0  0  0
  2 34  1  0  0  0
  3  4  1  0  0  0
  3 35  1  0  0  0
  4 28  1  0  0  0
  4  5  1  0  0  0
  4  7  1  0  0  0
  5  6  1  0  0  0
  5 36  1  0  0  0
  5 37  1  0  0  0
  6 38  1  0  0  0
  7  8  3  0  0  0
  8  9  1  0  0  0
  9 14  1  0  0  0
  9 10  2  0  0  0
 10 11  1  0  0  0
 10 27  1  0  0  0
 11 12  2  0  0  0
 11 39  1  0  0  0
 12 13  1  0  0  0
 12 40  1  0  0  0
 13 26  1  0  0  0
 13 14  2  0  0  0
 14 15  1  0  0  0
 15 16  2  0  0  0
 15 24  1  0  0  0
 16 17  1  0  0  0
 16 41  1  0  0  0
 17 21  1  0  0  0
 17 18  2  0  0  0
 18 19  1  0  0  0
 18 22  1  0  0  0
 19 20  2  0  0  0
 19 42  1  0  0  0
 20 21  1  0  0  0
 20 43  1  0  0  0
 21 29  1  0  0  0
 22 23  1  0  0  0
 23 44  1  0  0  0
 23 45  1  0  0  0
 23 46  1  0  0  0
 24 25  2  0  0  0
 24 26  1  0  0  0
 26 47  1  0  0  0
M  END
> <s_m_entry_id>
34627

> <s_m_entry_name>
ligand_docking-pose.124

> <s_m_Source_Path>
/home/csk/Desktop/cluster/DUD-E-result/cdk2

> <s_m_Source_File>
ligand_docking-pose.sdf

> <i_m_Source_File_Index>
124

> <i_lp_mmshare_version>
53161

> <r_lp_tautomer_probability>
1

> <s_lp_Force_Field>
OPLS_2005

> <r_lp_Energy>
37.137827

> <b_lp_Chiralities_Consistent>
1

> <s_lp_Variant>
287507-1

> <s_i_glide_gridfile>
glide-grid_1h00

> <i_i_glide_lignum>
1349

> <i_i_glide_rotatable_bonds>
8

> <r_i_docking_score>
-8.03935323697135

> <r_i_glide_ligand_efficiency>
-0.297753823591532

> <r_i_glide_ligand_efficiency_sa>
-0.893261469793247

> <r_i_glide_ligand_efficiency_ln>
-1.87142889447033

> <r_i_glide_gscore>
-8.03935323697135

> <r_i_glide_lipo>
-3.4652885300899

> <r_i_glide_hbond>
-0.500115747996704

> <r_i_glide_metal>
0

> <r_i_glide_rewards>
-1.78507195052296

> <r_i_glide_evdw>
-39.3318519592285

> <r_i_glide_ecoul>
-6.62850046157837

> <r_i_glide_erotb>
0.706509759826269

> <r_i_glide_esite>
-0.0345191009898781

> <r_i_glide_emodel>
-66.0132955852026

> <r_i_glide_energy>
-45.9603524208069

> <r_i_glide_einternal>
5.55828285217285

> <i_i_glide_confnum>
9

> <i_i_glide_posenum>
248

> <r_i_glide_eff_state_penalty>
0

> <i_f3d_flags>
0

> <s_user_duplicate_titles>
287507

> <s_m_subgroup_title>
dock_pv

> <s_m_subgroupid>
dock_pv1

> <b_m_subgroup_collapsed>
0

$$$$
307151
                    3D
 Schrodinger Suite 2021-1.
 38 40  0  0  1  0            999 V2000
    0.7670   27.8252   10.8973 C   0  0  0  0  0  0
   -0.5769   28.5144   10.8371 C   0  0  0  0  0  0
   -1.6640   28.1708   11.6312 C   0  0  0  0  0  0
   -2.6678   29.0519   11.3675 N   0  0  0  0  0  0
   -2.3001   29.9236   10.3776 C   0  0  0  0  0  0
   -0.9625   29.6499   10.0578 C   0  0  0  0  0  0
   -0.1301   30.4239    9.0627 C   0  0  0  0  0  0
   -0.4113   31.7471    8.6833 C   0  0  0  0  0  0
    0.4546   32.3617    7.7761 C   0  0  0  0  0  0
    1.5086   31.7132    7.2286 N   0  0  0  0  0  0
    1.7327   30.4501    7.6644 C   0  0  0  0  0  0
    0.9675   29.7873    8.5738 N   0  0  0  0  0  0
    2.8582   29.8521    7.0932 N   0  0  0  0  0  0
    3.5834   28.6750    7.3231 C   0  0  0  0  0  0
    3.4352   27.9029    8.4762 C   0  0  0  0  0  0
    4.0580   26.6628    8.5712 C   0  0  0  0  0  0
    4.9247   26.2347    7.5683 C   0  0  0  0  0  0
    5.1595   27.0479    6.4645 C   0  0  0  0  0  0
    4.4766   28.2563    6.3329 C   0  0  0  0  0  0
    6.0582   26.6519    5.5143 O   0  0  0  0  0  0
   -3.2964   30.9442    9.8608 C   0  0  0  0  0  0
   -1.8444   27.1076   12.6108 C   0  0  0  0  0  0
   -1.9842   26.2605   13.3878 N   0  0  0  0  0  0
   -3.5411   29.1015   11.8782 H   0  0  0  0  0  0
    0.9553   27.2382    9.9987 H   0  0  0  0  0  0
    0.8781   27.1701   11.7612 H   0  0  0  0  0  0
    1.5649   28.5582   10.9853 H   0  0  0  0  0  0
   -1.2354   32.3058    9.0951 H   0  0  0  0  0  0
    0.2954   33.3842    7.4626 H   0  0  0  0  0  0
    3.3705   30.4983    6.5003 H   0  0  0  0  0  0
    2.8038   28.2316    9.2758 H   0  0  0  0  0  0
    3.8595   26.0206    9.4088 H   0  0  0  0  0  0
    5.4247   25.2818    7.6574 H   0  0  0  0  0  0
    4.6319   28.8641    5.4531 H   0  0  0  0  0  0
    6.5492   27.3934    5.1407 H   0  0  0  0  0  0
   -3.1784   31.9051   10.3614 H   0  0  0  0  0  0
   -3.1902   31.1125    8.7897 H   0  0  0  0  0  0
   -4.3320   30.6456   10.0171 H   0  0  0  0  0  0
  1  2  1  0  0  0
  1 25  1  0  0  0
  1 26  1  0  0  0
  1 27  1  0  0  0
  2  6  1  0  0  0
  2  3  2  0  0  0
  3  4  1  0  0  0
  3 22  1  0  0  0
  4 24  1  0  0  0
  4  5  1  0  0  0
  5  6  2  0  0  0
  5 21  1  0  0  0
  6  7  1  0  0  0
  7 12  1  0  0  0
  7  8  2  0  0  0
  8  9  1  0  0  0
  8 28  1  0  0  0
  9 10  2  0  0  0
  9 29  1  0  0  0
 10 11  1  0  0  0
 11 12  2  0  0  0
 11 13  1  0  0  0
 13 14  1  0  0  0
 13 30  1  0  0  0
 14 19  1  0  0  0
 14 15  2  0  0  0
 15 16  1  0  0  0
 15 31  1  0  0  0
 16 17  2  0  0  0
 16 32  1  0  0  0
 17 18  1  0  0  0
 17 33  1  0  0  0
 18 19  2  0  0  0
 18 20  1  0  0  0
 19 34  1  0  0  0
 20 35  1  0  0  0
 21 36  1  0  0  0
 21 37  1  0  0  0
 21 38  1  0  0  0
 22 23  3  0  0  0
M  END
> <s_m_entry_id>
34632

> <s_m_entry_name>
ligand_docking-pose.129

> <s_m_Source_Path>
/home/csk/Desktop/cluster/DUD-E-result/cdk2

> <s_m_Source_File>
ligand_docking-pose.sdf

> <i_m_Source_File_Index>
129

> <i_lp_mmshare_version>
53161

> <r_lp_tautomer_probability>
0.999999987636

> <s_lp_Force_Field>
OPLS_2005

> <r_lp_Energy>
6.712179

> <b_lp_Chiralities_Consistent>
1

> <s_lp_Variant>
307151-1

> <s_i_glide_gridfile>
glide-grid_1h00

> <i_i_glide_lignum>
816

> <i_i_glide_rotatable_bonds>
4

> <r_i_docking_score>
-7.99523882603895

> <r_i_glide_ligand_efficiency>
-0.347619079392998

> <r_i_glide_ligand_efficiency_sa>
-0.988582420418915

> <r_i_glide_ligand_efficiency_ln>
-1.9333212449537

> <r_i_glide_gscore>
-7.99523882603895

> <r_i_glide_lipo>
-2.05450159280758

> <r_i_glide_hbond>
-0.637790840520695

> <r_i_glide_metal>
0

> <r_i_glide_rewards>
-2.67456645452221

> <r_i_glide_evdw>
-31.7358341217041

> <r_i_glide_ecoul>
-10.4522914886475

> <r_i_glide_erotb>
0.593880939310114

> <r_i_glide_esite>
-0.0676254481162531

> <r_i_glide_emodel>
-62.9747306635319

> <r_i_glide_energy>
-42.1881256103516

> <r_i_glide_einternal>
2.3124418258667

> <i_i_glide_confnum>
10

> <i_i_glide_posenum>
115

> <r_i_glide_eff_state_penalty>
0

> <i_f3d_flags>
0

> <s_user_duplicate_titles>
307151

> <s_m_subgroup_title>
dock_pv

> <s_m_subgroupid>
dock_pv1

> <b_m_subgroup_collapsed>
0

$$$$
301254
                    3D
 Schrodinger Suite 2021-1.
 41 45  0  0  1  0            999 V2000
    1.2356   25.4066   11.7761 C   0  0  0  0  0  0
    1.0749   26.7081   11.3110 C   0  0  0  0  0  0
   -0.1489   27.1356   10.8068 C   0  0  0  0  0  0
   -1.2493   26.2690   10.8764 C   0  0  0  0  0  0
   -1.0931   24.9727   11.3463 C   0  0  0  0  0  0
    0.1552   24.5208   11.7790 C   0  0  0  0  0  0
    0.3058   23.1082   12.2501 C   0  0  0  0  0  0
    1.5060   22.5259   12.5760 N   0  0  0  0  0  0
    1.2345   21.2368   12.9405 C   0  0  0  0  0  0
   -0.1395   21.1297   12.8067 C   0  0  0  0  0  0
   -0.6883   22.2568   12.3913 N   0  0  0  0  0  0
   -0.2744   28.4294   10.2386 N   0  0  0  0  0  0
    0.6054   29.1601    9.4488 C   0  0  0  0  0  0
   -0.1040   30.3060    9.0661 C   0  0  0  0  0  0
   -1.3689   30.1772    9.6758 C   0  0  0  0  0  0
   -1.4505   29.0646   10.3636 N   0  0  0  0  0  0
   -2.4798   31.0744    9.5271 C   0  0  0  0  0  0
   -3.5951   30.6902    9.1839 O   0  0  0  0  0  0
   -2.2132   32.3495    9.8047 N   0  0  0  0  0  0
    0.4442   31.3598    8.0895 C   0  0  0  0  0  0
    1.7192   30.9381    7.3057 C   0  0  0  0  0  0
    2.4578   29.7912    7.9706 C   0  0  0  0  0  0
    1.9890   28.9491    8.9663 C   0  0  0  0  0  0
    3.0718   28.0574    9.1590 C   0  0  0  0  0  0
    4.1443   28.3844    8.4749 N   0  0  0  0  0  0
    3.7673   29.4521    7.7753 N   0  0  0  0  0  0
    4.3932   29.9406    7.1444 H   0  0  0  0  0  0
    2.2046   25.1134   12.1464 H   0  0  0  0  0  0
    1.8991   27.3991   11.3760 H   0  0  0  0  0  0
   -2.2368   26.5803   10.5758 H   0  0  0  0  0  0
   -1.9465   24.3166   11.3657 H   0  0  0  0  0  0
    2.0047   20.5399   13.2396 H   0  0  0  0  0  0
    2.4089   22.9741   12.5552 H   0  0  0  0  0  0
   -0.7384   20.2520   12.9973 H   0  0  0  0  0  0
   -1.2918   32.6245   10.1018 H   0  0  0  0  0  0
   -2.9599   33.0280    9.7558 H   0  0  0  0  0  0
    0.6303   32.3116    8.5775 H   0  0  0  0  0  0
   -0.3420   31.6074    7.3842 H   0  0  0  0  0  0
    2.3781   31.7961    7.1760 H   0  0  0  0  0  0
    1.4311   30.6518    6.2960 H   0  0  0  0  0  0
    3.1275   27.1839    9.7852 H   0  0  0  0  0  0
  1  6  1  0  0  0
  1  2  2  0  0  0
  1 28  1  0  0  0
  2  3  1  0  0  0
  2 29  1  0  0  0
  3  4  2  0  0  0
  3 12  1  0  0  0
  4  5  1  0  0  0
  4 30  1  0  0  0
  5  6  2  0  0  0
  5 31  1  0  0  0
  6  7  1  0  0  0
  7 11  2  0  0  0
  7  8  1  0  0  0
  8  9  1  0  0  0
  8 33  1  0  0  0
  9 32  1  0  0  0
  9 10  2  0  0  0
 10 34  1  0  0  0
 10 11  1  0  0  0
 12 16  1  0  0  0
 12 13  1  0  0  0
 13 14  2  0  0  0
 13 23  1  0  0  0
 14 15  1  0  0  0
 14 20  1  0  0  0
 15 16  2  0  0  0
 15 17  1  0  0  0
 17 18  2  0  0  0
 17 19  1  0  0  0
 19 35  1  0  0  0
 19 36  1  0  0  0
 20 21  1  0  0  0
 20 37  1  0  0  0
 20 38  1  0  0  0
 21 39  1  0  0  0
 21 40  1  0  0  0
 21 22  1  0  0  0
 22 26  1  0  0  0
 22 23  2  0  0  0
 23 24  1  0  0  0
 24 41  1  0  0  0
 24 25  2  0  0  0
 25 26  1  0  0  0
 26 27  1  0  0  0
M  END
> <s_m_entry_id>
34633

> <s_m_entry_name>
ligand_docking-pose.130

> <s_m_Source_Path>
/home/csk/Desktop/cluster/DUD-E-result/cdk2

> <s_m_Source_File>
ligand_docking-pose.sdf

> <i_m_Source_File_Index>
130

> <i_lp_mmshare_version>
53161

> <r_lp_tautomer_probability>
0.249999999999999

> <s_lp_Force_Field>
OPLS_2005

> <r_lp_Energy>
29.222481

> <b_lp_Chiralities_Consistent>
1

> <s_lp_Variant>
301254-2

> <s_i_glide_gridfile>
glide-grid_1h00

> <i_i_glide_lignum>
210

> <i_i_glide_rotatable_bonds>
3

> <r_i_docking_score>
-7.99485143431507

> <r_i_glide_ligand_efficiency>
-0.307494285935195

> <r_i_glide_ligand_efficiency_sa>
-0.910950612151425

> <r_i_glide_ligand_efficiency_ln>
-1.87756462610166

> <r_i_glide_gscore>
-7.99485143431507

> <r_i_glide_lipo>
-2.43180966547663

> <r_i_glide_hbond>
-0.306684308550827

> <r_i_glide_metal>
0

> <r_i_glide_rewards>
-2.73973564560653

> <r_i_glide_evdw>
-42.0208168029785

> <r_i_glide_ecoul>
-4.89440059661865

> <r_i_glide_erotb>
0.318579114960646

> <r_i_glide_esite>
0

> <r_i_glide_emodel>
-69.9353896529782

> <r_i_glide_energy>
-46.9152173995972

> <r_i_glide_einternal>
2.73480629920959

> <i_i_glide_confnum>
14

> <i_i_glide_posenum>
380

> <r_i_glide_eff_state_penalty>
0

> <i_f3d_flags>
0

> <s_user_duplicate_titles>
301254

> <s_m_subgroup_title>
dock_pv

> <s_m_subgroupid>
dock_pv1

> <b_m_subgroup_collapsed>
0

$$$$
575047
                    3D
 Schrodinger Suite 2021-1.
 61 65  0  0  1  0            999 V2000
   -1.5558   32.6756    9.2538 C   0  0  0  0  0  0
   -0.4257   31.8360    8.6854 C   0  0  0  0  0  0
    0.4578   32.4278    7.7761 C   0  0  0  0  0  0
    1.5148   31.7750    7.2372 N   0  0  0  0  0  0
    1.7194   30.5107    7.6730 C   0  0  0  0  0  0
    0.9174   29.8520    8.5444 N   0  0  0  0  0  0
   -0.1608   30.4983    9.0558 C   0  0  0  0  0  0
   -0.9112   29.6554   10.0557 C   0  0  0  0  0  0
   -0.7101   28.2844   10.3644 C   0  0  0  0  0  0
   -1.5895   27.8779   11.3748 C   0  0  0  0  0  0
   -2.3412   28.9826   11.6609 N   0  0  0  0  0  0
   -1.9422   30.0436   10.9004 C   0  0  0  0  0  0
   -1.8277   26.6125   12.0173 C   0  0  0  0  0  0
   -2.8232   26.4418   12.7205 O   0  0  0  0  0  0
   -0.8971   25.6617   11.8128 N   0  0  0  0  0  0
   -0.9475   24.3162   12.4168 C   0  0  2  0  0  0
   -0.8291   24.3695   13.9719 C   0  0  0  0  0  0
   -0.8243   23.1027   14.6075 O   0  0  0  0  0  0
    0.0023   23.3040   11.7524 C   0  0  0  0  0  0
   -0.3213   21.9406   11.8164 C   0  0  0  0  0  0
    0.4601   20.9870   11.1682 C   0  0  0  0  0  0
    1.5724   21.3853   10.4278 C   0  0  0  0  0  0
    1.9031   22.7370   10.3389 C   0  0  0  0  0  0
    1.1277   23.6931   11.0032 C   0  0  0  0  0  0
    3.2574   23.2187    9.3764 Cl  0  0  0  0  0  0
    2.8577   29.8805    7.1639 N   0  0  0  0  0  0
    3.4704   28.6518    7.4279 C   0  0  0  0  0  0
    3.2585   27.9518    8.6188 C   0  0  0  0  0  0
    3.7577   26.6639    8.7678 C   0  0  0  0  0  0
    4.5582   26.0910    7.7801 C   0  0  0  0  0  0
    4.7935   26.7833    6.5978 C   0  0  0  0  0  0
    4.2486   28.0572    6.4261 C   0  0  0  0  0  0
    4.5998   28.5924    5.0670 C   0  0  0  0  0  0
    5.2848   27.4331    4.3441 C   0  0  0  0  0  0
    5.6307   26.3863    5.4043 C   0  0  0  0  0  0
   -3.0619   29.0216   12.3775 H   0  0  0  0  0  0
   -1.9420   23.9317   12.1871 H   0  0  0  0  0  0
   -1.5433   33.6841    8.8449 H   0  0  0  0  0  0
   -2.5247   32.2247    9.0389 H   0  0  0  0  0  0
   -1.4452   32.7722   10.3329 H   0  0  0  0  0  0
    0.3236   33.4470    7.4493 H   0  0  0  0  0  0
    0.0237   27.6509    9.8854 H   0  0  0  0  0  0
   -2.4446   30.9855   11.0529 H   0  0  0  0  0  0
   -0.2114   25.8219   11.0936 H   0  0  0  0  0  0
    0.0582   24.9198   14.2673 H   0  0  0  0  0  0
   -1.6630   24.9274   14.3975 H   0  0  0  0  0  0
   -0.0879   22.5890   14.2635 H   0  0  0  0  0  0
   -1.1913   21.6066   12.3646 H   0  0  0  0  0  0
    0.1942   19.9398   11.2308 H   0  0  0  0  0  0
    2.1645   20.6435    9.9101 H   0  0  0  0  0  0
    1.4002   24.7349   10.9134 H   0  0  0  0  0  0
    3.3790   30.4530    6.5071 H   0  0  0  0  0  0
    2.6866   28.3760    9.4273 H   0  0  0  0  0  0
    3.5746   26.1256    9.6856 H   0  0  0  0  0  0
    4.9787   25.1092    7.9421 H   0  0  0  0  0  0
    3.6803   28.8802    4.5758 H   0  0  0  0  0  0
    5.2579   29.4521    5.1268 H   0  0  0  0  0  0
    6.1582   27.7569    3.7767 H   0  0  0  0  0  0
    4.5914   27.0016    3.6201 H   0  0  0  0  0  0
    6.6924   26.4313    5.6440 H   0  0  0  0  0  0
    5.4086   25.3818    5.0413 H   0  0  0  0  0  0
  1  2  1  0  0  0
  1 38  1  0  0  0
  1 39  1  0  0  0
  1 40  1  0  0  0
  2  7  1  0  0  0
  2  3  2  0  0  0
  3  4  1  0  0  0
  3 41  1  0  0  0
  4  5  2  0  0  0
  5  6  1  0  0  0
  5 26  1  0  0  0
  6  7  2  0  0  0
  7  8  1  0  0  0
  8 12  2  0  0  0
  8  9  1  0  0  0
  9 10  2  0  0  0
  9 42  1  0  0  0
 10 11  1  0  0  0
 10 13  1  0  0  0
 11 36  1  0  0  0
 11 12  1  0  0  0
 12 43  1  0  0  0
 13 14  2  0  0  0
 13 15  1  0  0  0
 15 16  1  0  0  0
 15 44  1  0  0  0
 16 37  1  0  0  0
 16 17  1  0  0  0
 16 19  1  0  0  0
 17 18  1  0  0  0
 17 45  1  0  0  0
 17 46  1  0  0  0
 18 47  1  0  0  0
 19 24  1  0  0  0
 19 20  2  0  0  0
 20 21  1  0  0  0
 20 48  1  0  0  0
 21 22  2  0  0  0
 21 49  1  0  0  0
 22 23  1  0  0  0
 22 50  1  0  0  0
 23 24  2  0  0  0
 23 25  1  0  0  0
 24 51  1  0  0  0
 26 27  1  0  0  0
 26 52  1  0  0  0
 27 32  1  0  0  0
 27 28  2  0  0  0
 28 29  1  0  0  0
 28 53  1  0  0  0
 29 30  2  0  0  0
 29 54  1  0  0  0
 30 31  1  0  0  0
 30 55  1  0  0  0
 31 35  1  0  0  0
 31 32  2  0  0  0
 32 33  1  0  0  0
 33 34  1  0  0  0
 33 56  1  0  0  0
 33 57  1  0  0  0
 34 35  1  0  0  0
 34 58  1  0  0  0
 34 59  1  0  0  0
 35 60  1  0  0  0
 35 61  1  0  0  0
M  END
> <s_m_entry_id>
34635

> <s_m_entry_name>
ligand_docking-pose.132

> <s_m_Source_Path>
/home/csk/Desktop/cluster/DUD-E-result/cdk2

> <s_m_Source_File>
ligand_docking-pose.sdf

> <i_m_Source_File_Index>
132

> <i_lp_mmshare_version>
53161

> <r_lp_tautomer_probability>
0.999999987636

> <s_lp_Force_Field>
OPLS_2005

> <r_lp_Energy>
23.795565

> <b_lp_Chiralities_Consistent>
1

> <s_lp_Variant>
575047-1

> <s_i_glide_gridfile>
glide-grid_1h00

> <i_i_glide_lignum>
797

> <i_i_glide_rotatable_bonds>
9

> <r_i_docking_score>
-7.9912675742248

> <r_i_glide_ligand_efficiency>
-0.228321930692137

> <r_i_glide_ligand_efficiency_sa>
-0.746856174479152

> <r_i_glide_ligand_efficiency_ln>
-1.75426058917043

> <r_i_glide_gscore>
-7.9912675742248

> <r_i_glide_lipo>
-3.15048225008574

> <r_i_glide_hbond>
-0.485757520629816

> <r_i_glide_metal>
0

> <r_i_glide_rewards>
-1.67692674493593

> <r_i_glide_evdw>
-43.0381507873535

> <r_i_glide_ecoul>
-7.15159749984741

> <r_i_glide_erotb>
0.59772166021456

> <r_i_glide_esite>
-0.0511755544430838

> <r_i_glide_emodel>
-73.1427612770898

> <r_i_glide_energy>
-50.1897482872009

> <r_i_glide_einternal>
5.10087537765503

> <i_i_glide_confnum>
10

> <i_i_glide_posenum>
323

> <r_i_glide_eff_state_penalty>
0

> <i_f3d_flags>
0

> <s_user_duplicate_titles>
575047

> <s_m_subgroup_title>
dock_pv

> <s_m_subgroupid>
dock_pv1

> <b_m_subgroup_collapsed>
0

$$$$
116950
                    3D
 Schrodinger Suite 2021-1.
 53 59  0  0  1  0            999 V2000
   -2.4241   29.8013    9.9898 C   0  0  0  0  0  0
   -1.5345   30.8306    9.4840 N   0  0  0  0  0  0
   -1.9611   32.1250    9.3038 C   0  0  0  0  0  0
   -1.0354   32.8306    8.5760 C   0  0  0  0  0  0
    0.0079   31.9195    8.2355 C   0  0  0  0  0  0
   -0.2193   30.7435    9.0144 C   0  0  0  0  0  0
    0.8079   29.7404    9.1280 C   0  0  0  0  0  0
    1.9165   29.8527    8.2342 C   0  0  0  0  0  0
    2.0206   30.9482    7.3497 C   0  0  0  0  0  0
    1.1137   31.9969    7.3829 C   0  0  0  0  0  0
    2.8976   28.8277    8.2017 C   0  0  0  0  0  0
    2.7797   27.6604    8.9761 C   0  0  0  0  0  0
    3.7106   26.7481    8.4270 C   0  0  0  0  0  0
    3.9106   25.3680    8.5758 C   0  0  0  0  0  0
    4.8340   24.7293    7.7539 C   0  0  0  0  0  0
    5.6001   25.4208    6.8211 C   0  0  0  0  0  0
    5.4784   26.8143    6.6951 C   0  0  0  0  0  0
    4.4909   27.4471    7.4588 C   0  0  0  0  0  0
    4.0227   28.7441    7.4072 N   0  0  0  0  0  0
    6.4258   24.6251    6.0507 O   0  0  0  0  0  0
    7.0872   25.1369    4.8900 C   0  0  0  0  0  0
    8.5946   25.2398    5.0947 C   0  0  0  0  0  0
    9.3989   25.5512    3.9948 C   0  0  0  0  0  0
   10.7819   25.6107    4.1350 C   0  0  0  0  0  0
   11.3596   25.3605    5.3763 C   0  0  0  0  0  0
   10.5680   25.0521    6.4797 C   0  0  0  0  0  0
    9.1838   25.0003    6.3421 C   0  0  0  0  0  0
    1.7669   27.6156    9.9521 C   0  0  0  0  0  0
    0.8574   28.6521   10.0735 C   0  0  0  0  0  0
    0.1542   28.4033   11.3699 C   0  0  0  0  0  0
   -0.5477   29.1570   12.0356 O   0  0  0  0  0  0
    0.4580   27.1417   11.7157 N   0  0  0  0  0  0
    1.4140   26.5776   10.9607 C   0  0  0  0  0  0
    1.8848   25.4537   11.1295 O   0  0  0  0  0  0
    4.3585   29.4719    6.7884 H   0  0  0  0  0  0
   -1.9959   28.8159    9.8203 H   0  0  0  0  0  0
   -2.6385   29.9749   11.0444 H   0  0  0  0  0  0
   -3.3662   29.8506    9.4428 H   0  0  0  0  0  0
   -2.9363   32.4230    9.6634 H   0  0  0  0  0  0
   -1.1408   33.8516    8.2400 H   0  0  0  0  0  0
    2.8572   31.0012    6.6736 H   0  0  0  0  0  0
    1.2603   32.8702    6.7711 H   0  0  0  0  0  0
    3.3173   24.7895    9.2642 H   0  0  0  0  0  0
    4.9373   23.6566    7.8094 H   0  0  0  0  0  0
    6.0579   27.3830    5.9866 H   0  0  0  0  0  0
    6.6841   26.0684    4.4957 H   0  0  0  0  0  0
    6.9173   24.4003    4.1034 H   0  0  0  0  0  0
    8.9567   25.7404    3.0273 H   0  0  0  0  0  0
   11.4036   25.8494    3.2841 H   0  0  0  0  0  0
   12.4331   25.4208    5.4849 H   0  0  0  0  0  0
   11.0286   24.8707    7.4389 H   0  0  0  0  0  0
    8.5776   24.7658    7.2040 H   0  0  0  0  0  0
    0.0843   26.6966   12.5377 H   0  0  0  0  0  0
  1  2  1  0  0  0
  1 36  1  0  0  0
  1 37  1  0  0  0
  1 38  1  0  0  0
  2  6  1  0  0  0
  2  3  1  0  0  0
  3  4  2  0  0  0
  3 39  1  0  0  0
  4  5  1  0  0  0
  4 40  1  0  0  0
  5 10  2  0  0  0
  5  6  1  0  0  0
  6  7  2  0  0  0
  7 29  1  0  0  0
  7  8  1  0  0  0
  8  9  2  0  0  0
  8 11  1  0  0  0
  9 10  1  0  0  0
  9 41  1  0  0  0
 10 42  1  0  0  0
 11 19  1  0  0  0
 11 12  2  0  0  0
 12 13  1  0  0  0
 12 28  1  0  0  0
 13 18  2  0  0  0
 13 14  1  0  0  0
 14 15  2  0  0  0
 14 43  1  0  0  0
 15 16  1  0  0  0
 15 44  1  0  0  0
 16 17  2  0  0  0
 16 20  1  0  0  0
 17 18  1  0  0  0
 17 45  1  0  0  0
 18 19  1  0  0  0
 19 35  1  0  0  0
 20 21  1  0  0  0
 21 22  1  0  0  0
 21 46  1  0  0  0
 21 47  1  0  0  0
 22 27  1  0  0  0
 22 23  2  0  0  0
 23 24  1  0  0  0
 23 48  1  0  0  0
 24 25  2  0  0  0
 24 49  1  0  0  0
 25 26  1  0  0  0
 25 50  1  0  0  0
 26 27  2  0  0  0
 26 51  1  0  0  0
 27 52  1  0  0  0
 28 33  1  0  0  0
 28 29  2  0  0  0
 29 30  1  0  0  0
 30 31  2  0  0  0
 30 32  1  0  0  0
 32 33  1  0  0  0
 32 53  1  0  0  0
 33 34  2  0  0  0
M  END
> <s_m_entry_id>
34636

> <s_m_entry_name>
ligand_docking-pose.133

> <s_m_Source_Path>
/home/csk/Desktop/cluster/DUD-E-result/cdk2

> <s_m_Source_File>
ligand_docking-pose.sdf

> <i_m_Source_File_Index>
133

> <i_lp_mmshare_version>
53161

> <r_lp_tautomer_probability>
1

> <s_lp_Force_Field>
OPLS_2005

> <r_lp_Energy>
101.930506

> <b_lp_Chiralities_Consistent>
1

> <s_lp_Variant>
116950-1

> <s_i_glide_gridfile>
glide-grid_1h00

> <i_i_glide_lignum>
1466

> <i_i_glide_rotatable_bonds>
3

> <r_i_docking_score>
-7.98680309534456

> <r_i_glide_ligand_efficiency>
-0.234905973392487

> <r_i_glide_ligand_efficiency_sa>
-0.761004162698351

> <r_i_glide_ligand_efficiency_ln>
-1.7645088260003

> <r_i_glide_gscore>
-7.98680309534456

> <r_i_glide_lipo>
-3.48111101655601

> <r_i_glide_hbond>
-0.189925789293654

> <r_i_glide_metal>
0

> <r_i_glide_rewards>
-1.73061295406665

> <r_i_glide_evdw>
-41.0130348205566

> <r_i_glide_ecoul>
-5.26696300506592

> <r_i_glide_erotb>
0.302482464778247

> <r_i_glide_esite>
-0.0469396084187666

> <r_i_glide_emodel>
-64.7287712615736

> <r_i_glide_energy>
-46.2799978256226

> <r_i_glide_einternal>
1.52409696578979

> <i_i_glide_confnum>
23

> <i_i_glide_posenum>
231

> <r_i_glide_eff_state_penalty>
0

> <i_f3d_flags>
0

> <s_user_duplicate_titles>
116950

> <s_m_subgroup_title>
dock_pv

> <s_m_subgroupid>
dock_pv1

> <b_m_subgroup_collapsed>
0

$$$$
310597
                    3D
 Schrodinger Suite 2021-1.
 46 49  0  0  1  0            999 V2000
   -0.3647   24.3424   14.4379 C   0  0  0  0  0  0
   -1.0181   25.2141   13.3718 C   0  0  0  0  0  0
   -1.4245   24.6782   12.3388 O   0  0  0  0  0  0
   -1.0995   26.5322   13.6470 N   0  0  0  0  0  0
   -1.8594   27.3322   12.7959 N   0  0  0  0  0  0
   -1.2515   28.3951   12.2360 C   0  0  0  0  0  0
   -0.1080   28.7820   12.4960 O   0  0  0  0  0  0
   -2.0821   28.9988   11.3660 N   0  0  0  0  0  0
   -1.7647   30.0422   10.4834 C   0  0  0  0  0  0
   -2.7056   31.0734   10.4245 C   0  0  0  0  0  0
   -2.4550   32.2397    9.7144 C   0  0  0  0  0  0
   -1.3201   32.3516    8.9312 C   0  0  0  0  0  0
   -0.4468   31.2768    8.8759 C   0  0  0  0  0  0
   -0.6265   30.1292    9.6557 C   0  0  0  0  0  0
    0.4814   29.1603    9.3760 C   0  0  0  0  0  0
    0.6323   28.0211    9.8113 O   0  0  0  0  0  0
    1.3212   29.8514    8.4194 C   0  0  0  0  0  0
    0.7555   31.0684    8.1081 C   0  0  0  0  0  0
    1.4297   31.7461    7.2182 N   0  0  0  0  0  0
    2.4579   30.9421    6.9650 N   0  0  0  0  0  0
    2.4617   29.7566    7.6410 C   0  0  0  0  0  0
    3.4800   28.6928    7.4230 C   0  0  0  0  0  0
    3.7745   27.7792    8.4336 C   0  0  0  0  0  0
    4.6531   26.7320    8.1759 C   0  0  0  0  0  0
    5.2735   26.5965    6.9373 C   0  0  0  0  0  0
    4.9765   27.5190    5.9267 C   0  0  0  0  0  0
    4.0867   28.5594    6.1701 C   0  0  0  0  0  0
    6.1518   25.5398    6.7983 O   0  0  0  0  0  0
    6.8557   25.3808    5.5698 C   0  0  0  0  0  0
    3.2003   31.2077    6.3255 H   0  0  0  0  0  0
    0.0560   24.9397   15.2463 H   0  0  0  0  0  0
    0.4326   23.7472   13.9904 H   0  0  0  0  0  0
   -1.0997   23.6565   14.8598 H   0  0  0  0  0  0
   -0.9908   26.9217   14.5718 H   0  0  0  0  0  0
   -2.7923   27.4514   13.1701 H   0  0  0  0  0  0
   -3.0561   28.9541   11.6220 H   0  0  0  0  0  0
   -3.6272   31.0119   10.9755 H   0  0  0  0  0  0
   -3.1418   33.0589    9.7723 H   0  0  0  0  0  0
   -1.1441   33.2507    8.3573 H   0  0  0  0  0  0
    3.3115   27.8572    9.4081 H   0  0  0  0  0  0
    4.8583   26.0182    8.9567 H   0  0  0  0  0  0
    5.4367   27.4502    4.9533 H   0  0  0  0  0  0
    3.8670   29.2567    5.3753 H   0  0  0  0  0  0
    7.5125   24.5136    5.6419 H   0  0  0  0  0  0
    6.1734   25.2097    4.7355 H   0  0  0  0  0  0
    7.4797   26.2484    5.3498 H   0  0  0  0  0  0
  1  2  1  0  0  0
  1 31  1  0  0  0
  1 32  1  0  0  0
  1 33  1  0  0  0
  2  3  2  0  0  0
  2  4  1  0  0  0
  4  5  1  0  0  0
  4 34  1  0  0  0
  5  6  1  0  0  0
  5 35  1  0  0  0
  6  7  2  0  0  0
  6  8  1  0  0  0
  8  9  1  0  0  0
  8 36  1  0  0  0
  9 14  1  0  0  0
  9 10  2  0  0  0
 10 11  1  0  0  0
 10 37  1  0  0  0
 11 12  2  0  0  0
 11 38  1  0  0  0
 12 13  1  0  0  0
 12 39  1  0  0  0
 13 18  1  0  0  0
 13 14  2  0  0  0
 14 15  1  0  0  0
 15 16  2  0  0  0
 15 17  1  0  0  0
 17 21  2  0  0  0
 17 18  1  0  0  0
 18 19  2  0  0  0
 19 20  1  0  0  0
 20 30  1  0  0  0
 20 21  1  0  0  0
 21 22  1  0  0  0
 22 27  1  0  0  0
 22 23  2  0  0  0
 23 24  1  0  0  0
 23 40  1  0  0  0
 24 25  2  0  0  0
 24 41  1  0  0  0
 25 26  1  0  0  0
 25 28  1  0  0  0
 26 27  2  0  0  0
 26 42  1  0  0  0
 27 43  1  0  0  0
 28 29  1  0  0  0
 29 44  1  0  0  0
 29 45  1  0  0  0
 29 46  1  0  0  0
M  END
> <s_m_entry_id>
34645

> <s_m_entry_name>
ligand_docking-pose.142

> <s_m_Source_Path>
/home/csk/Desktop/cluster/DUD-E-result/cdk2

> <s_m_Source_File>
ligand_docking-pose.sdf

> <i_m_Source_File_Index>
142

> <i_lp_mmshare_version>
53161

> <r_lp_tautomer_probability>
1

> <s_lp_Force_Field>
OPLS_2005

> <r_lp_Energy>
58.338301

> <b_lp_Chiralities_Consistent>
1

> <s_lp_Variant>
310597-1

> <s_i_glide_gridfile>
glide-grid_1h00

> <i_i_glide_lignum>
1402

> <i_i_glide_rotatable_bonds>
7

> <r_i_docking_score>
-7.94155623033512

> <r_i_glide_ligand_efficiency>
-0.27384676656328

> <r_i_glide_ligand_efficiency_sa>
-0.841344027627679

> <r_i_glide_ligand_efficiency_ln>
-1.81841499625633

> <r_i_glide_gscore>
-7.94155623033512

> <r_i_glide_lipo>
-2.66085378608725

> <r_i_glide_hbond>
-0.372317956426534

> <r_i_glide_metal>
0

> <r_i_glide_rewards>
-2.43497320820507

> <r_i_glide_evdw>
-37.361629486084

> <r_i_glide_ecoul>
-7.85774803161621

> <r_i_glide_erotb>
0.636971240679567

> <r_i_glide_esite>
-0.0636388412492053

> <r_i_glide_emodel>
-65.6455793095807

> <r_i_glide_energy>
-45.2193775177002

> <r_i_glide_einternal>
7.25682878494263

> <i_i_glide_confnum>
25

> <i_i_glide_posenum>
43

> <r_i_glide_eff_state_penalty>
0

> <i_f3d_flags>
0

> <s_user_duplicate_titles>
310597

> <s_m_subgroup_title>
dock_pv

> <s_m_subgroupid>
dock_pv1

> <b_m_subgroup_collapsed>
0

$$$$
67256
                    3D
 Schrodinger Suite 2021-1.
 35 37  0  0  1  0            999 V2000
   -3.2156   30.9050   10.1359 C   0  0  0  0  0  0
   -2.2017   29.8368   10.4934 C   0  0  0  0  0  0
   -0.9075   29.6722    9.9950 C   0  0  0  0  0  0
   -0.2281   28.2374   10.7468 S   0  0  0  0  0  0
   -1.6923   28.0193   11.6318 C   0  0  0  0  0  0
   -2.5912   28.9330   11.3760 N   0  0  0  0  0  0
   -1.9299   26.8804   12.5949 C   0  0  0  0  0  0
   -0.1253   30.4734    9.0024 C   0  0  0  0  0  0
   -0.4188   31.7968    8.6574 C   0  0  0  0  0  0
    0.4580   32.4292    7.7760 C   0  0  0  0  0  0
    1.5183   31.7927    7.2075 N   0  0  0  0  0  0
    1.7361   30.5145    7.6085 C   0  0  0  0  0  0
    0.9629   29.8507    8.4923 N   0  0  0  0  0  0
    2.8580   29.8745    7.0705 N   0  0  0  0  0  0
    3.5388   28.6769    7.3428 C   0  0  0  0  0  0
    3.2934   27.8799    8.4690 C   0  0  0  0  0  0
    3.9010   26.6310    8.5760 C   0  0  0  0  0  0
    4.8344   26.2114    7.6327 C   0  0  0  0  0  0
    5.1525   27.0417    6.5646 C   0  0  0  0  0  0
    4.4956   28.2617    6.4113 C   0  0  0  0  0  0
    6.1119   26.6520    5.6735 O   0  0  0  0  0  0
   -2.9863   31.8478   10.6329 H   0  0  0  0  0  0
   -3.2423   31.0973    9.0634 H   0  0  0  0  0  0
   -4.2346   30.6520   10.4274 H   0  0  0  0  0  0
   -2.6328   26.1530   12.1875 H   0  0  0  0  0  0
   -2.3420   27.2356   13.5396 H   0  0  0  0  0  0
   -1.0114   26.3438   12.8333 H   0  0  0  0  0  0
   -1.2523   32.3343    9.0795 H   0  0  0  0  0  0
    0.2944   33.4520    7.4773 H   0  0  0  0  0  0
    3.4076   30.4990    6.4869 H   0  0  0  0  0  0
    2.5969   28.1748    9.2359 H   0  0  0  0  0  0
    3.6580   25.9953    9.4143 H   0  0  0  0  0  0
    5.3248   25.2559    7.7441 H   0  0  0  0  0  0
    4.7224   28.8832    5.5571 H   0  0  0  0  0  0
    6.6213   27.3981    5.3332 H   0  0  0  0  0  0
  1  2  1  0  0  0
  1 22  1  0  0  0
  1 23  1  0  0  0
  1 24  1  0  0  0
  2  6  1  0  0  0
  2  3  2  0  0  0
  3  4  1  0  0  0
  3  8  1  0  0  0
  4  5  1  0  0  0
  5  6  2  0  0  0
  5  7  1  0  0  0
  7 25  1  0  0  0
  7 26  1  0  0  0
  7 27  1  0  0  0
  8 13  1  0  0  0
  8  9  2  0  0  0
  9 10  1  0  0  0
  9 28  1  0  0  0
 10 11  2  0  0  0
 10 29  1  0  0  0
 11 12  1  0  0  0
 12 13  2  0  0  0
 12 14  1  0  0  0
 14 15  1  0  0  0
 14 30  1  0  0  0
 15 20  1  0  0  0
 15 16  2  0  0  0
 16 17  1  0  0  0
 16 31  1  0  0  0
 17 18  2  0  0  0
 17 32  1  0  0  0
 18 19  1  0  0  0
 18 33  1  0  0  0
 19 20  2  0  0  0
 19 21  1  0  0  0
 20 34  1  0  0  0
 21 35  1  0  0  0
M  END
> <s_m_entry_id>
34646

> <s_m_entry_name>
ligand_docking-pose.143

> <s_m_Source_Path>
/home/csk/Desktop/cluster/DUD-E-result/cdk2

> <s_m_Source_File>
ligand_docking-pose.sdf

> <i_m_Source_File_Index>
143

> <i_lp_mmshare_version>
53161

> <r_lp_tautomer_probability>
0.999999987636

> <s_lp_Force_Field>
OPLS_2005

> <r_lp_Energy>
4.739181

> <b_lp_Chiralities_Consistent>
1

> <s_lp_Variant>
67256-1

> <s_i_glide_gridfile>
glide-grid_1h00

> <i_i_glide_lignum>
834

> <i_i_glide_rotatable_bonds>
4

> <r_i_docking_score>
-7.9405798928041

> <r_i_glide_ligand_efficiency>
-0.378122852038291

> <r_i_glide_ligand_efficiency_sa>
-1.04321227707193

> <r_i_glide_ligand_efficiency_ln>
-1.96329233304333

> <r_i_glide_gscore>
-7.9405798928041

> <r_i_glide_lipo>
-2.04022991244797

> <r_i_glide_hbond>
-0.636741094192268

> <r_i_glide_metal>
0

> <r_i_glide_rewards>
-2.81934968488818

> <r_i_glide_evdw>
-29.0871105194092

> <r_i_glide_ecoul>
-9.48516941070557

> <r_i_glide_erotb>
0.432871736300604

> <r_i_glide_esite>
0

> <r_i_glide_emodel>
-57.8134686715798

> <r_i_glide_energy>
-38.5722799301147

> <r_i_glide_einternal>
2.41246438026428

> <i_i_glide_confnum>
4

> <i_i_glide_posenum>
314

> <r_i_glide_eff_state_penalty>
0

> <i_f3d_flags>
0

> <s_user_duplicate_titles>
67256

> <s_m_subgroup_title>
dock_pv

> <s_m_subgroupid>
dock_pv1

> <b_m_subgroup_collapsed>
0

$$$$
301230
                    3D
 Schrodinger Suite 2021-1.
 34 37  0  0  1  0            999 V2000
    1.2503   26.6673   11.2597 C   0  0  0  0  0  0
    1.4882   25.3800   11.7309 C   0  0  0  0  0  0
    0.4830   24.4215   11.6562 C   0  0  0  0  0  0
   -0.7531   24.7446   11.1041 C   0  0  0  0  0  0
   -0.9799   26.0248   10.6067 C   0  0  0  0  0  0
    0.0283   26.9964   10.6774 C   0  0  0  0  0  0
   -0.1898   28.3067   10.1825 N   0  0  0  0  0  0
    0.6332   29.1173    9.4202 C   0  0  0  0  0  0
   -0.1295   30.2488    9.1143 C   0  0  0  0  0  0
   -1.3643   30.0449    9.7660 C   0  0  0  0  0  0
   -1.3850   28.8862   10.3870 N   0  0  0  0  0  0
   -2.5057   30.9211    9.6996 C   0  0  0  0  0  0
   -3.6230   30.5257    9.3761 O   0  0  0  0  0  0
   -2.2610   32.1927   10.0166 N   0  0  0  0  0  0
    0.3511   31.3648    8.1759 C   0  0  0  0  0  0
    1.6488   31.0434    7.3651 C   0  0  0  0  0  0
    2.4078   29.8513    7.9182 C   0  0  0  0  0  0
    1.9907   28.9608    8.8883 C   0  0  0  0  0  0
    3.0663   28.0526    8.9896 C   0  0  0  0  0  0
    4.0827   28.3654    8.2209 N   0  0  0  0  0  0
    3.6672   29.4519    7.5735 N   0  0  0  0  0  0
    0.7662   22.8337   12.2696 Cl  0  0  0  0  0  0
    4.2553   29.9497    6.9122 H   0  0  0  0  0  0
    2.0130   27.4205   11.3760 H   0  0  0  0  0  0
    2.4445   25.1422   12.1726 H   0  0  0  0  0  0
   -1.5398   24.0105   11.0641 H   0  0  0  0  0  0
   -1.9417   26.2515   10.1763 H   0  0  0  0  0  0
   -1.3365   32.4789   10.2966 H   0  0  0  0  0  0
   -3.0248   32.8529   10.0129 H   0  0  0  0  0  0
    0.4581   32.3001    8.7231 H   0  0  0  0  0  0
   -0.4342   31.5936    7.4671 H   0  0  0  0  0  0
    2.2891   31.9249    7.3339 H   0  0  0  0  0  0
    1.3754   30.8377    6.3306 H   0  0  0  0  0  0
    3.1301   27.1635    9.5940 H   0  0  0  0  0  0
  1  6  1  0  0  0
  1  2  2  0  0  0
  1 24  1  0  0  0
  2  3  1  0  0  0
  2 25  1  0  0  0
  3  4  2  0  0  0
  3 22  1  0  0  0
  4  5  1  0  0  0
  4 26  1  0  0  0
  5  6  2  0  0  0
  5 27  1  0  0  0
  6  7  1  0  0  0
  7 11  1  0  0  0
  7  8  1  0  0  0
  8  9  2  0  0  0
  8 18  1  0  0  0
  9 10  1  0  0  0
  9 15  1  0  0  0
 10 11  2  0  0  0
 10 12  1  0  0  0
 12 13  2  0  0  0
 12 14  1  0  0  0
 14 28  1  0  0  0
 14 29  1  0  0  0
 15 16  1  0  0  0
 15 30  1  0  0  0
 15 31  1  0  0  0
 16 32  1  0  0  0
 16 33  1  0  0  0
 16 17  1  0  0  0
 17 21  1  0  0  0
 17 18  2  0  0  0
 18 19  1  0  0  0
 19 34  1  0  0  0
 19 20  2  0  0  0
 20 21  1  0  0  0
 21 23  1  0  0  0
M  END
> <s_m_entry_id>
34648

> <s_m_entry_name>
ligand_docking-pose.145

> <s_m_Source_Path>
/home/csk/Desktop/cluster/DUD-E-result/cdk2

> <s_m_Source_File>
ligand_docking-pose.sdf

> <i_m_Source_File_Index>
145

> <i_lp_mmshare_version>
53161

> <r_lp_tautomer_probability>
0.5

> <s_lp_Force_Field>
OPLS_2005

> <r_lp_Energy>
23.619326

> <b_lp_Chiralities_Consistent>
1

> <s_lp_Variant>
301230-2

> <s_i_glide_gridfile>
glide-grid_1h00

> <i_i_glide_lignum>
400

> <i_i_glide_rotatable_bonds>
2

> <r_i_docking_score>
-7.93719669113791

> <r_i_glide_ligand_efficiency>
-0.360781667778996

> <r_i_glide_ligand_efficiency_sa>
-1.01092442185459

> <r_i_glide_ligand_efficiency_ln>
-1.94014038759786

> <r_i_glide_gscore>
-7.93719669113791

> <r_i_glide_lipo>
-2.61716380934932

> <r_i_glide_hbond>
-0.32

> <r_i_glide_metal>
0

> <r_i_glide_rewards>
-2.71282149672372

> <r_i_glide_evdw>
-34.8791351318359

> <r_i_glide_ecoul>
-4.87996816635132

> <r_i_glide_erotb>
0.188740596479625

> <r_i_glide_esite>
0

> <r_i_glide_emodel>
-57.998582601979

> <r_i_glide_energy>
-39.7591032981873

> <r_i_glide_einternal>
2.5980167388916

> <i_i_glide_confnum>
6

> <i_i_glide_posenum>
27

> <r_i_glide_eff_state_penalty>
0

> <i_f3d_flags>
0

> <s_user_duplicate_titles>
301230

> <s_m_subgroup_title>
dock_pv

> <s_m_subgroupid>
dock_pv1

> <b_m_subgroup_collapsed>
0

$$$$
574890
                    3D
 Schrodinger Suite 2021-1.
 60 63  0  0  1  0            999 V2000
    5.7365   25.9759    5.8647 C   0  0  0  0  0  0
    4.8203   26.6777    6.8587 C   0  0  0  0  0  0
    4.4590   25.9977    8.0213 C   0  0  0  0  0  0
    3.6568   26.6121    8.9760 C   0  0  0  0  0  0
    3.2417   27.9228    8.8053 C   0  0  0  0  0  0
    3.5088   28.5963    7.6116 C   0  0  0  0  0  0
    4.3116   27.9718    6.6314 C   0  0  0  0  0  0
    4.5312   28.6521    5.2865 C   0  0  0  0  0  0
    2.9375   29.8527    7.3543 N   0  0  0  0  0  0
    1.7435   30.4604    7.7567 C   0  0  0  0  0  0
    1.5460   31.7196    7.2988 N   0  0  0  0  0  0
    0.4549   32.3704    7.7760 C   0  0  0  0  0  0
   -0.4631   31.7753    8.6521 C   0  0  0  0  0  0
   -0.1897   30.4557    9.0587 C   0  0  0  0  0  0
    0.9078   29.8055    8.5956 N   0  0  0  0  0  0
   -0.9514   29.6497   10.0744 C   0  0  0  0  0  0
   -0.8107   28.2702   10.3568 C   0  0  0  0  0  0
   -1.6633   27.9000   11.4015 C   0  0  0  0  0  0
   -2.3389   29.0383   11.7389 N   0  0  0  0  0  0
   -1.9148   30.0857   10.9756 C   0  0  0  0  0  0
   -1.9392   26.6304   12.0121 C   0  0  0  0  0  0
   -2.9404   26.4537   12.7033 O   0  0  0  0  0  0
   -1.0199   25.6851   11.7661 N   0  0  0  0  0  0
   -1.0675   24.2768   12.2033 C   0  0  2  0  0  0
   -1.2726   24.0848   13.7369 C   0  0  0  0  0  0
   -0.3423   24.8258   14.4970 O   0  0  0  0  0  0
    0.0828   23.4287   11.6315 C   0  0  0  0  0  0
    1.1291   23.9948   10.8840 C   0  0  0  0  0  0
    2.0581   23.1845   10.2373 C   0  0  0  0  0  0
    1.9879   21.7993   10.3609 C   0  0  0  0  0  0
    0.9786   21.2232   11.1285 C   0  0  0  0  0  0
    0.0291   22.0320   11.7551 C   0  0  0  0  0  0
    0.8870   19.5078   11.2815 Cl  0  0  0  0  0  0
   -1.6684   32.5654    9.1233 C   0  0  0  0  0  0
   -3.0296   29.1073   12.4812 H   0  0  0  0  0  0
   -1.9420   23.8631   11.7060 H   0  0  0  0  0  0
    6.5317   26.6510    5.5426 H   0  0  0  0  0  0
    6.2251   25.1030    6.3020 H   0  0  0  0  0  0
    5.1801   25.6629    4.9795 H   0  0  0  0  0  0
    4.8147   24.9941    8.2034 H   0  0  0  0  0  0
    3.3893   26.0851    9.8784 H   0  0  0  0  0  0
    2.6666   28.3801    9.5939 H   0  0  0  0  0  0
    4.8247   27.9779    4.4831 H   0  0  0  0  0  0
    3.5918   29.1005    4.9771 H   0  0  0  0  0  0
    5.2578   29.4518    5.3731 H   0  0  0  0  0  0
    3.5141   30.4512    6.7708 H   0  0  0  0  0  0
    0.3181   33.3839    7.4285 H   0  0  0  0  0  0
   -0.1363   27.6090    9.8308 H   0  0  0  0  0  0
   -2.3432   31.0555   11.1697 H   0  0  0  0  0  0
   -0.3055   25.9137   11.0935 H   0  0  0  0  0  0
   -2.2767   24.3885   14.0330 H   0  0  0  0  0  0
   -1.1828   23.0380   14.0249 H   0  0  0  0  0  0
   -0.3882   25.7403   14.1967 H   0  0  0  0  0  0
    1.2171   25.0624   10.7516 H   0  0  0  0  0  0
    2.8277   23.6340    9.6266 H   0  0  0  0  0  0
    2.7035   21.1696    9.8527 H   0  0  0  0  0  0
   -0.7672   21.5561   12.3104 H   0  0  0  0  0  0
   -1.8099   33.4522    8.5206 H   0  0  0  0  0  0
   -2.5800   31.9738    9.0310 H   0  0  0  0  0  0
   -1.5516   32.8763   10.1614 H   0  0  0  0  0  0
  1  2  1  0  0  0
  1 37  1  0  0  0
  1 38  1  0  0  0
  1 39  1  0  0  0
  2  7  1  0  0  0
  2  3  2  0  0  0
  3  4  1  0  0  0
  3 40  1  0  0  0
  4  5  2  0  0  0
  4 41  1  0  0  0
  5  6  1  0  0  0
  5 42  1  0  0  0
  6  7  2  0  0  0
  6  9  1  0  0  0
  7  8  1  0  0  0
  8 43  1  0  0  0
  8 44  1  0  0  0
  8 45  1  0  0  0
  9 10  1  0  0  0
  9 46  1  0  0  0
 10 15  1  0  0  0
 10 11  2  0  0  0
 11 12  1  0  0  0
 12 13  2  0  0  0
 12 47  1  0  0  0
 13 14  1  0  0  0
 13 34  1  0  0  0
 14 15  2  0  0  0
 14 16  1  0  0  0
 16 20  2  0  0  0
 16 17  1  0  0  0
 17 18  2  0  0  0
 17 48  1  0  0  0
 18 19  1  0  0  0
 18 21  1  0  0  0
 19 35  1  0  0  0
 19 20  1  0  0  0
 20 49  1  0  0  0
 21 22  2  0  0  0
 21 23  1  0  0  0
 23 24  1  0  0  0
 23 50  1  0  0  0
 24 36  1  0  0  0
 24 25  1  0  0  0
 24 27  1  0  0  0
 25 26  1  0  0  0
 25 51  1  0  0  0
 25 52  1  0  0  0
 26 53  1  0  0  0
 27 32  1  0  0  0
 27 28  2  0  0  0
 28 29  1  0  0  0
 28 54  1  0  0  0
 29 30  2  0  0  0
 29 55  1  0  0  0
 30 31  1  0  0  0
 30 56  1  0  0  0
 31 32  2  0  0  0
 31 33  1  0  0  0
 32 57  1  0  0  0
 34 58  1  0  0  0
 34 59  1  0  0  0
 34 60  1  0  0  0
M  END
> <s_m_entry_id>
34649

> <s_m_entry_name>
ligand_docking-pose.146

> <s_m_Source_Path>
/home/csk/Desktop/cluster/DUD-E-result/cdk2

> <s_m_Source_File>
ligand_docking-pose.sdf

> <i_m_Source_File_Index>
146

> <i_lp_mmshare_version>
53161

> <r_lp_tautomer_probability>
0.999999987636

> <s_lp_Force_Field>
OPLS_2005

> <r_lp_Energy>
16.62411

> <b_lp_Chiralities_Consistent>
1

> <s_lp_Variant>
574890-1

> <s_i_glide_gridfile>
glide-grid_1h00

> <i_i_glide_lignum>
711

> <i_i_glide_rotatable_bonds>
9

> <r_i_docking_score>
-7.93640119016844

> <r_i_glide_ligand_efficiency>
-0.233423564416719

> <r_i_glide_ligand_efficiency_sa>
-0.756201733091777

> <r_i_glide_ligand_efficiency_ln>
-1.75337363142134

> <r_i_glide_gscore>
-7.93640119016844

> <r_i_glide_lipo>
-3.08301603317062

> <r_i_glide_hbond>
-0.503982505435033

> <r_i_glide_metal>
0

> <r_i_glide_rewards>
-1.80777399334922

> <r_i_glide_evdw>
-40.8743362426758

> <r_i_glide_ecoul>
-7.13840055465698

> <r_i_glide_erotb>
0.625583492936649

> <r_i_glide_esite>
-0.0527352558178795

> <r_i_glide_emodel>
-70.8541378126161

> <r_i_glide_energy>
-48.0127367973328

> <r_i_glide_einternal>
5.93813419342041

> <i_i_glide_confnum>
8

> <i_i_glide_posenum>
269

> <r_i_glide_eff_state_penalty>
0

> <i_f3d_flags>
0

> <s_user_duplicate_titles>
574890

> <s_m_subgroup_title>
dock_pv

> <s_m_subgroupid>
dock_pv1

> <b_m_subgroup_collapsed>
0

$$$$
310896
                    3D
 Schrodinger Suite 2021-1.
 56 60  0  0  1  0            999 V2000
    6.8398   25.3861    5.5606 C   0  0  0  0  0  0
    6.1446   25.5475    6.7929 O   0  0  0  0  0  0
    5.2674   26.6049    6.9353 C   0  0  0  0  0  0
    4.9689   27.5298    5.9265 C   0  0  0  0  0  0
    4.0809   28.5713    6.1729 C   0  0  0  0  0  0
    3.4758   28.7004    7.4274 C   0  0  0  0  0  0
    3.7726   27.7858    8.4363 C   0  0  0  0  0  0
    4.6511   26.7392    8.1760 C   0  0  0  0  0  0
    2.4577   29.7614    7.6476 C   0  0  0  0  0  0
    1.3127   29.8516    8.4229 C   0  0  0  0  0  0
    0.7494   31.0695    8.1129 C   0  0  0  0  0  0
    1.4269   31.7506    7.2274 N   0  0  0  0  0  0
    2.4579   30.9491    6.9759 N   0  0  0  0  0  0
   -0.4550   31.2788    8.8774 C   0  0  0  0  0  0
   -1.3213   32.3595    8.9275 C   0  0  0  0  0  0
   -2.4551   32.2595    9.7121 C   0  0  0  0  0  0
   -2.7180   31.1002   10.4230 C   0  0  0  0  0  0
   -1.7952   30.0535   10.4749 C   0  0  0  0  0  0
   -0.6460   30.1305    9.6548 C   0  0  0  0  0  0
    0.4673   29.1610    9.3760 C   0  0  0  0  0  0
    0.6264   28.0242    9.8139 O   0  0  0  0  0  0
   -2.1664   29.0038   11.3273 N   0  0  0  0  0  0
   -1.3564   28.2404   12.0761 C   0  0  0  0  0  0
   -0.2452   28.5986   12.4800 O   0  0  0  0  0  0
   -1.9174   27.0345   12.2868 N   0  0  0  0  0  0
   -1.0778   26.0330   12.7610 N   0  0  0  0  0  0
   -0.8766   24.9425   11.9905 C   0  0  0  0  0  0
   -1.3196   24.8036   10.8464 O   0  0  0  0  0  0
   -0.0116   23.8513   12.6379 C   0  0  0  0  0  0
    0.3921   22.7043   11.7143 C   0  0  0  0  0  0
    1.3975   22.9008   10.7613 C   0  0  0  0  0  0
    1.7749   21.8553    9.9218 C   0  0  0  0  0  0
    1.1449   20.6179   10.0360 C   0  0  0  0  0  0
    0.1380   20.4177   10.9780 C   0  0  0  0  0  0
   -0.2411   21.4620   11.8172 C   0  0  0  0  0  0
    3.2100   31.2198    6.3478 H   0  0  0  0  0  0
    7.4942   24.5171    5.6282 H   0  0  0  0  0  0
    6.1516   25.2170    4.7310 H   0  0  0  0  0  0
    7.4652   26.2518    5.3362 H   0  0  0  0  0  0
    5.4261   27.4632    4.9513 H   0  0  0  0  0  0
    3.8591   29.2661    5.3760 H   0  0  0  0  0  0
    3.3078   27.8613    9.4094 H   0  0  0  0  0  0
    4.8574   26.0208    8.9530 H   0  0  0  0  0  0
   -1.1347   33.2552    8.3523 H   0  0  0  0  0  0
   -3.1420   33.0813    9.7758 H   0  0  0  0  0  0
   -3.6398   31.0584   10.9760 H   0  0  0  0  0  0
   -3.1382   28.9991   11.5997 H   0  0  0  0  0  0
   -2.8294   26.9659   12.7146 H   0  0  0  0  0  0
   -0.9105   26.0761   13.7549 H   0  0  0  0  0  0
   -0.5301   23.4653   13.5163 H   0  0  0  0  0  0
    0.8999   24.3328   12.9759 H   0  0  0  0  0  0
    1.8725   23.8669   10.6609 H   0  0  0  0  0  0
    2.5361   22.0108    9.1706 H   0  0  0  0  0  0
    1.4321   19.8067    9.3828 H   0  0  0  0  0  0
   -0.3450   19.4536   11.0622 H   0  0  0  0  0  0
   -1.0193   21.2946   12.5481 H   0  0  0  0  0  0
  1  2  1  0  0  0
  1 37  1  0  0  0
  1 38  1  0  0  0
  1 39  1  0  0  0
  2  3  1  0  0  0
  3  8  1  0  0  0
  3  4  2  0  0  0
  4  5  1  0  0  0
  4 40  1  0  0  0
  5  6  2  0  0  0
  5 41  1  0  0  0
  6  7  1  0  0  0
  6  9  1  0  0  0
  7  8  2  0  0  0
  7 42  1  0  0  0
  8 43  1  0  0  0
  9 13  1  0  0  0
  9 10  2  0  0  0
 10 20  1  0  0  0
 10 11  1  0  0  0
 11 12  2  0  0  0
 11 14  1  0  0  0
 12 13  1  0  0  0
 13 36  1  0  0  0
 14 19  2  0  0  0
 14 15  1  0  0  0
 15 16  2  0  0  0
 15 44  1  0  0  0
 16 17  1  0  0  0
 16 45  1  0  0  0
 17 18  2  0  0  0
 17 46  1  0  0  0
 18 19  1  0  0  0
 18 22  1  0  0  0
 19 20  1  0  0  0
 20 21  2  0  0  0
 22 23  1  0  0  0
 22 47  1  0  0  0
 23 24  2  0  0  0
 23 25  1  0  0  0
 25 26  1  0  0  0
 25 48  1  0  0  0
 26 27  1  0  0  0
 26 49  1  0  0  0
 27 28  2  0  0  0
 27 29  1  0  0  0
 29 30  1  0  0  0
 29 50  1  0  0  0
 29 51  1  0  0  0
 30 35  1  0  0  0
 30 31  2  0  0  0
 31 32  1  0  0  0
 31 52  1  0  0  0
 32 33  2  0  0  0
 32 53  1  0  0  0
 33 34  1  0  0  0
 33 54  1  0  0  0
 34 35  2  0  0  0
 34 55  1  0  0  0
 35 56  1  0  0  0
M  END
> <s_m_entry_id>
34650

> <s_m_entry_name>
ligand_docking-pose.147

> <s_m_Source_Path>
/home/csk/Desktop/cluster/DUD-E-result/cdk2

> <s_m_Source_File>
ligand_docking-pose.sdf

> <i_m_Source_File_Index>
147

> <i_lp_mmshare_version>
53161

> <r_lp_tautomer_probability>
1

> <s_lp_Force_Field>
OPLS_2005

> <r_lp_Energy>
65.474755

> <b_lp_Chiralities_Consistent>
1

> <s_lp_Variant>
310896-1

> <s_i_glide_gridfile>
glide-grid_1h00

> <i_i_glide_lignum>
1658

> <i_i_glide_rotatable_bonds>
9

> <r_i_docking_score>
-7.93280629497755

> <r_i_glide_ligand_efficiency>
-0.22665160842793

> <r_i_glide_ligand_efficiency_sa>
-0.741392439600022

> <r_i_glide_ligand_efficiency_ln>
-1.74142704089747

> <r_i_glide_gscore>
-7.93280629497755

> <r_i_glide_lipo>
-2.86244055803332

> <r_i_glide_hbond>
-0.32

> <r_i_glide_metal>
0

> <r_i_glide_rewards>
-1.62001630852593

> <r_i_glide_evdw>
-44.2615432739258

> <r_i_glide_ecoul>
-10.2206630706787

> <r_i_glide_erotb>
0.646483192563179

> <r_i_glide_esite>
-0.0306559966833922

> <r_i_glide_emodel>
-76.9842383630418

> <r_i_glide_energy>
-54.4822063446045

> <r_i_glide_einternal>
8.56182479858398

> <i_i_glide_confnum>
2

> <i_i_glide_posenum>
357

> <r_i_glide_eff_state_penalty>
0

> <i_f3d_flags>
0

> <s_user_duplicate_titles>
310896

> <s_m_subgroup_title>
dock_pv

> <s_m_subgroupid>
dock_pv1

> <b_m_subgroup_collapsed>
0

$$$$
301021
                    3D
 Schrodinger Suite 2021-1.
 51 54  0  0  1  0            999 V2000
    6.6485   28.1239    1.4739 C   0  0  0  0  0  0
    6.5233   27.7448    2.9567 C   0  0  0  0  0  0
    5.7341   26.4390    3.1800 C   0  0  0  0  0  0
    5.3209   26.1709    4.6384 C   0  0  0  0  0  0
    6.4581   26.2519    5.5776 N   0  0  2  0  0  0
    6.2771   25.5361    7.1702 S   0  0  0  0  0  0
    5.8677   24.1389    6.9871 O   0  0  0  0  0  0
    7.4785   25.8632    7.9469 O   0  0  0  0  0  0
    4.9049   26.3989    7.9401 C   0  0  0  0  0  0
    4.8505   27.7959    7.9625 C   0  0  0  0  0  0
    3.7708   28.4407    8.5714 C   0  0  0  0  0  0
    2.7443   27.6962    9.1657 C   0  0  0  0  0  0
    2.8561   26.2970    9.2054 C   0  0  0  0  0  0
    3.9068   25.6508    8.5657 C   0  0  0  0  0  0
    1.5567   28.3073    9.6720 N   0  0  0  0  0  0
    0.8432   29.4193    9.2441 C   0  0  0  0  0  0
   -0.2973   29.4825   10.0518 C   0  0  0  0  0  0
   -0.1615   28.4109   10.9572 C   0  0  0  0  0  0
    0.9361   27.7296   10.7168 N   0  0  0  0  0  0
   -1.0436   28.1019   12.0527 C   0  0  0  0  0  0
   -0.6352   27.7299   13.1482 O   0  0  0  0  0  0
   -2.3424   28.2519   11.7989 N   0  0  0  0  0  0
   -1.3596   30.5856    9.9034 C   0  0  0  0  0  0
   -0.8206   31.8954    9.2491 C   0  0  0  0  0  0
    0.3043   31.5906    8.2766 C   0  0  0  0  0  0
    1.0489   30.4266    8.1988 C   0  0  0  0  0  0
    1.8689   30.6311    7.0803 C   0  0  0  0  0  0
    1.7569   31.8472    6.5934 N   0  0  0  0  0  0
    0.8578   32.4465    7.3755 N   0  0  0  0  0  0
    0.5619   33.4033    7.2272 H   0  0  0  0  0  0
    7.1981   29.0591    1.3579 H   0  0  0  0  0  0
    5.6686   28.2489    1.0128 H   0  0  0  0  0  0
    7.1829   27.3543    0.9153 H   0  0  0  0  0  0
    7.5250   27.6392    3.3752 H   0  0  0  0  0  0
    6.0580   28.5638    3.5050 H   0  0  0  0  0  0
    4.8259   26.4523    2.5759 H   0  0  0  0  0  0
    6.3123   25.5938    2.8048 H   0  0  0  0  0  0
    4.5626   26.8925    4.9469 H   0  0  0  0  0  0
    4.8584   25.1847    4.7192 H   0  0  0  0  0  0
    6.9678   27.1452    5.5680 H   0  0  0  0  0  0
    5.6347   28.3818    7.5053 H   0  0  0  0  0  0
    3.7402   29.5183    8.5723 H   0  0  0  0  0  0
    2.0940   25.6883    9.6680 H   0  0  0  0  0  0
    3.9472   24.5718    8.5729 H   0  0  0  0  0  0
   -2.6561   28.5926   10.9046 H   0  0  0  0  0  0
   -2.9822   28.2096   12.5846 H   0  0  0  0  0  0
   -2.1893   30.2036    9.3080 H   0  0  0  0  0  0
   -1.7954   30.8336   10.8739 H   0  0  0  0  0  0
   -1.6408   32.4103    8.7463 H   0  0  0  0  0  0
   -0.4671   32.5678   10.0316 H   0  0  0  0  0  0
    2.5703   29.9264    6.6549 H   0  0  0  0  0  0
  1  2  1  0  0  0
  1 31  1  0  0  0
  1 32  1  0  0  0
  1 33  1  0  0  0
  2  3  1  0  0  0
  2 34  1  0  0  0
  2 35  1  0  0  0
  3  4  1  0  0  0
  3 36  1  0  0  0
  3 37  1  0  0  0
  4  5  1  0  0  0
  4 38  1  0  0  0
  4 39  1  0  0  0
  5  6  1  0  0  0
  5 40  1  0  0  0
  6  7  2  0  0  0
  6  8  2  0  0  0
  6  9  1  0  0  0
  9 14  1  0  0  0
  9 10  2  0  0  0
 10 11  1  0  0  0
 10 41  1  0  0  0
 11 12  2  0  0  0
 11 42  1  0  0  0
 12 13  1  0  0  0
 12 15  1  0  0  0
 13 14  2  0  0  0
 13 43  1  0  0  0
 14 44  1  0  0  0
 15 19  1  0  0  0
 15 16  1  0  0  0
 16 17  2  0  0  0
 16 26  1  0  0  0
 17 18  1  0  0  0
 17 23  1  0  0  0
 18 19  2  0  0  0
 18 20  1  0  0  0
 20 21  2  0  0  0
 20 22  1  0  0  0
 22 45  1  0  0  0
 22 46  1  0  0  0
 23 24  1  0  0  0
 23 47  1  0  0  0
 23 48  1  0  0  0
 24 49  1  0  0  0
 24 50  1  0  0  0
 24 25  1  0  0  0
 25 29  1  0  0  0
 25 26  2  0  0  0
 26 27  1  0  0  0
 27 51  1  0  0  0
 27 28  2  0  0  0
 28 29  1  0  0  0
 29 30  1  0  0  0
M  END
> <s_m_entry_id>
34653

> <s_m_entry_name>
ligand_docking-pose.150

> <s_m_Source_Path>
/home/csk/Desktop/cluster/DUD-E-result/cdk2

> <s_m_Source_File>
ligand_docking-pose.sdf

> <i_m_Source_File_Index>
150

> <i_lp_mmshare_version>
53161

> <r_lp_tautomer_probability>
0.5

> <s_lp_Force_Field>
OPLS_2005

> <r_lp_Energy>
24.935036

> <b_lp_Chiralities_Consistent>
1

> <s_lp_Variant>
301021-2

> <s_i_glide_gridfile>
glide-grid_1h00

> <i_i_glide_lignum>
1196

> <i_i_glide_rotatable_bonds>
7

> <r_i_docking_score>
-7.92576287770303

> <r_i_glide_ligand_efficiency>
-0.273302168196656

> <r_i_glide_ligand_efficiency_sa>
-0.839670848904537

> <r_i_glide_ligand_efficiency_ln>
-1.81479871898844

> <r_i_glide_gscore>
-7.92576287770303

> <r_i_glide_lipo>
-2.7446164082857

> <r_i_glide_hbond>
-1.00433348930925

> <r_i_glide_metal>
0

> <r_i_glide_rewards>
-1.24406052125224

> <r_i_glide_evdw>
-40.547779083252

> <r_i_glide_ecoul>
-8.2064380645752

> <r_i_glide_erotb>
0.402121737163061

> <r_i_glide_esite>
-0.0765195321700209

> <r_i_glide_emodel>
-64.9014286114093

> <r_i_glide_energy>
-48.7542171478271

> <r_i_glide_einternal>
5.74631452560425

> <i_i_glide_confnum>
109

> <i_i_glide_posenum>
299

> <r_i_glide_eff_state_penalty>
0

> <i_f3d_flags>
0

> <s_user_duplicate_titles>
301021

> <s_m_subgroup_title>
dock_pv

> <s_m_subgroupid>
dock_pv1

> <b_m_subgroup_collapsed>
0

$$$$
301233
                    3D
 Schrodinger Suite 2021-1.
 38 41  0  0  1  0            999 V2000
    6.7606   25.2595    6.7326 C   0  0  0  0  0  0
    6.4176   26.6184    6.9755 O   0  0  0  0  0  0
    5.2614   26.9087    7.6706 C   0  0  0  0  0  0
    4.3774   25.9474    8.1760 C   0  0  0  0  0  0
    3.2580   26.3413    8.9063 C   0  0  0  0  0  0
    2.9575   27.7020    9.0716 C   0  0  0  0  0  0
    3.8521   28.6517    8.5760 C   0  0  0  0  0  0
    4.9867   28.2575    7.8776 C   0  0  0  0  0  0
    1.7110   28.1006    9.6332 N   0  0  0  0  0  0
    0.8808   29.1938    9.3807 C   0  0  0  0  0  0
   -0.1889   29.1299   10.2969 C   0  0  0  0  0  0
   -1.1559   30.1572   10.3212 C   0  0  0  0  0  0
   -1.0616   31.2675    9.4771 C   0  0  0  0  0  0
    0.0033   31.3131    8.5759 C   0  0  0  0  0  0
    0.9447   30.2726    8.4618 C   0  0  0  0  0  0
    1.7812   30.6520    7.3694 C   0  0  0  0  0  0
    1.5004   31.8651    6.9760 N   0  0  0  0  0  0
    0.4581   32.2921    7.7197 N   0  0  0  0  0  0
    0.0306   27.9112   11.0211 C   0  0  0  0  0  0
    1.1576   27.3557   10.6207 N   0  0  0  0  0  0
   -0.8198   27.2990   12.0476 C   0  0  0  0  0  0
   -0.3418   26.6390   13.0164 N   0  0  0  0  0  0
   -2.1998   27.5443   11.8064 N   0  0  0  0  0  0
   -3.1425   26.9113   12.5760 O   0  0  0  0  0  0
    0.0763   33.2187    7.5758 H   0  0  0  0  0  0
    7.7035   25.2225    6.1871 H   0  0  0  0  0  0
    6.8948   24.7053    7.6634 H   0  0  0  0  0  0
    6.0068   24.7615    6.1210 H   0  0  0  0  0  0
    4.5525   24.8932    8.0359 H   0  0  0  0  0  0
    2.5853   25.5796    9.2717 H   0  0  0  0  0  0
    3.6845   29.7044    8.7264 H   0  0  0  0  0  0
    5.6579   29.0080    7.4886 H   0  0  0  0  0  0
   -1.9683   30.1240   11.0345 H   0  0  0  0  0  0
   -1.7752   32.0749    9.5531 H   0  0  0  0  0  0
    2.5869   30.1136    6.8920 H   0  0  0  0  0  0
    0.6687   26.6360   12.9758 H   0  0  0  0  0  0
   -2.5673   27.7484   10.8881 H   0  0  0  0  0  0
   -3.4199   27.6284   13.1740 H   0  0  0  0  0  0
  1  2  1  0  0  0
  1 26  1  0  0  0
  1 27  1  0  0  0
  1 28  1  0  0  0
  2  3  1  0  0  0
  3  8  1  0  0  0
  3  4  2  0  0  0
  4  5  1  0  0  0
  4 29  1  0  0  0
  5  6  2  0  0  0
  5 30  1  0  0  0
  6  7  1  0  0  0
  6  9  1  0  0  0
  7  8  2  0  0  0
  7 31  1  0  0  0
  8 32  1  0  0  0
  9 20  1  0  0  0
  9 10  1  0  0  0
 10 15  2  0  0  0
 10 11  1  0  0  0
 11 12  2  0  0  0
 11 19  1  0  0  0
 12 13  1  0  0  0
 12 33  1  0  0  0
 13 14  2  0  0  0
 13 34  1  0  0  0
 14 18  1  0  0  0
 14 15  1  0  0  0
 15 16  1  0  0  0
 16 17  2  0  0  0
 16 35  1  0  0  0
 17 18  1  0  0  0
 18 25  1  0  0  0
 19 20  2  0  0  0
 19 21  1  0  0  0
 21 22  2  3  0  0
 21 23  1  0  0  0
 22 36  1  0  0  0
 23 24  1  0  0  0
 23 37  1  0  0  0
 24 38  1  0  0  0
M  END
> <s_m_entry_id>
34654

> <s_m_entry_name>
ligand_docking-pose.151

> <s_m_Source_Path>
/home/csk/Desktop/cluster/DUD-E-result/cdk2

> <s_m_Source_File>
ligand_docking-pose.sdf

> <i_m_Source_File_Index>
151

> <i_lp_mmshare_version>
53161

> <r_lp_tautomer_probability>
1

> <s_lp_Force_Field>
OPLS_2005

> <r_lp_Energy>
60.011953

> <b_lp_Chiralities_Consistent>
1

> <s_lp_Variant>
301233-2

> <s_i_glide_gridfile>
glide-grid_1h00

> <i_i_glide_lignum>
1696

> <i_i_glide_rotatable_bonds>
5

> <r_i_docking_score>
-7.92477729793043

> <r_i_glide_ligand_efficiency>
-0.330199054080435

> <r_i_glide_ligand_efficiency_sa>
-0.95245888671785

> <r_i_glide_ligand_efficiency_ln>
-1.89676285172957

> <r_i_glide_gscore>
-7.92477729793043

> <r_i_glide_lipo>
-2.65512308873486

> <r_i_glide_hbond>
-0.458343134973037

> <r_i_glide_metal>
0

> <r_i_glide_rewards>
-2.57630285065507

> <r_i_glide_evdw>
-35.3711738586426

> <r_i_glide_ecoul>
-5.62943983078003

> <r_i_glide_erotb>
0.377966443981669

> <r_i_glide_esite>
0

> <r_i_glide_emodel>
-60.7046534392068

> <r_i_glide_energy>
-41.0006136894226

> <r_i_glide_einternal>
2.76285696029663

> <i_i_glide_confnum>
17

> <i_i_glide_posenum>
153

> <r_i_glide_eff_state_penalty>
0

> <i_f3d_flags>
0

> <s_user_duplicate_titles>
301233

> <s_m_subgroup_title>
dock_pv

> <s_m_subgroupid>
dock_pv1

> <b_m_subgroup_collapsed>
0

$$$$
307157
                    3D
 Schrodinger Suite 2021-1.
 41 43  0  0  1  0            999 V2000
    5.7139   25.5334    7.5623 C   0  0  0  0  0  0
    4.8622   26.7802    7.3745 C   0  0  0  0  0  0
    4.0860   27.2512    8.4346 C   0  0  0  0  0  0
    3.3281   28.4068    8.2933 C   0  0  0  0  0  0
    3.2590   29.0673    7.0673 C   0  0  0  0  0  0
    4.0553   28.6124    6.0104 C   0  0  0  0  0  0
    4.8601   27.4797    6.1613 C   0  0  0  0  0  0
    5.6580   27.0731    5.1223 O   0  0  0  0  0  0
    2.4580   30.2057    6.8785 N   0  0  0  0  0  0
    1.3522   30.6970    7.5823 C   0  0  0  0  0  0
    1.0764   32.0106    7.3760 N   0  0  0  0  0  0
    0.0579   32.5363    8.1096 C   0  0  0  0  0  0
   -0.7076   31.7699    8.9869 C   0  0  0  0  0  0
   -0.3685   30.4161    9.1189 C   0  0  0  0  0  0
    0.6645   29.8759    8.4228 N   0  0  0  0  0  0
   -1.0765   29.5134   10.0822 C   0  0  0  0  0  0
   -0.5440   28.4207   10.8299 C   0  0  0  0  0  0
   -1.5615   27.9828   11.6693 C   0  0  0  0  0  0
   -2.6837   28.6965   11.3760 N   0  0  0  0  0  0
   -2.4381   29.6017   10.3820 C   0  0  0  0  0  0
   -3.5722   30.4356    9.8164 C   0  0  0  0  0  0
   -1.5910   26.9646   12.7089 C   0  0  0  0  0  0
   -1.6125   26.1552   13.5365 N   0  0  0  0  0  0
    0.8621   27.8614   10.8140 C   0  0  0  0  0  0
   -3.5572   28.6116   11.8765 H   0  0  0  0  0  0
    6.7612   25.7603    7.3602 H   0  0  0  0  0  0
    5.6424   25.1339    8.5737 H   0  0  0  0  0  0
    5.4056   24.7592    6.8591 H   0  0  0  0  0  0
    4.0645   26.7282    9.3764 H   0  0  0  0  0  0
    2.7919   28.7794    9.1453 H   0  0  0  0  0  0
    4.0548   29.1402    5.0684 H   0  0  0  0  0  0
    6.3876   27.6896    4.9788 H   0  0  0  0  0  0
    2.9323   30.9029    6.3173 H   0  0  0  0  0  0
   -0.1432   33.5888    7.9766 H   0  0  0  0  0  0
   -1.4879   32.2281    9.5749 H   0  0  0  0  0  0
   -3.2690   31.0953    9.0062 H   0  0  0  0  0  0
   -4.3417   29.8017    9.3780 H   0  0  0  0  0  0
   -4.0476   31.0570   10.5759 H   0  0  0  0  0  0
    1.0803   27.3673    9.8677 H   0  0  0  0  0  0
    1.0560   27.1517   11.6187 H   0  0  0  0  0  0
    1.5987   28.6488   10.9284 H   0  0  0  0  0  0
  1  2  1  0  0  0
  1 26  1  0  0  0
  1 27  1  0  0  0
  1 28  1  0  0  0
  2  7  1  0  0  0
  2  3  2  0  0  0
  3  4  1  0  0  0
  3 29  1  0  0  0
  4  5  2  0  0  0
  4 30  1  0  0  0
  5  6  1  0  0  0
  5  9  1  0  0  0
  6  7  2  0  0  0
  6 31  1  0  0  0
  7  8  1  0  0  0
  8 32  1  0  0  0
  9 10  1  0  0  0
  9 33  1  0  0  0
 10 15  1  0  0  0
 10 11  2  0  0  0
 11 12  1  0  0  0
 12 13  2  0  0  0
 12 34  1  0  0  0
 13 14  1  0  0  0
 13 35  1  0  0  0
 14 15  2  0  0  0
 14 16  1  0  0  0
 16 20  2  0  0  0
 16 17  1  0  0  0
 17 18  2  0  0  0
 17 24  1  0  0  0
 18 19  1  0  0  0
 18 22  1  0  0  0
 19 25  1  0  0  0
 19 20  1  0  0  0
 20 21  1  0  0  0
 21 36  1  0  0  0
 21 37  1  0  0  0
 21 38  1  0  0  0
 22 23  3  0  0  0
 24 39  1  0  0  0
 24 40  1  0  0  0
 24 41  1  0  0  0
M  END
> <s_m_entry_id>
34655

> <s_m_entry_name>
ligand_docking-pose.152

> <s_m_Source_Path>
/home/csk/Desktop/cluster/DUD-E-result/cdk2

> <s_m_Source_File>
ligand_docking-pose.sdf

> <i_m_Source_File_Index>
152

> <i_lp_mmshare_version>
53161

> <r_lp_tautomer_probability>
0.999999987636

> <s_lp_Force_Field>
OPLS_2005

> <r_lp_Energy>
6.756474

> <b_lp_Chiralities_Consistent>
1

> <s_lp_Variant>
307157-1

> <s_i_glide_gridfile>
glide-grid_1h00

> <i_i_glide_lignum>
739

> <i_i_glide_rotatable_bonds>
4

> <r_i_docking_score>
-7.92214743039492

> <r_i_glide_ligand_efficiency>
-0.330089476266455

> <r_i_glide_ligand_efficiency_sa>
-0.952142809607931

> <r_i_glide_ligand_efficiency_ln>
-1.89613340375157

> <r_i_glide_gscore>
-7.92214743039492

> <r_i_glide_lipo>
-2.22890754909421

> <r_i_glide_hbond>
-0.545028988412432

> <r_i_glide_metal>
0

> <r_i_glide_rewards>
-2.43536825627135

> <r_i_glide_evdw>
-35.4545059204102

> <r_i_glide_ecoul>
-9.51655769348145

> <r_i_glide_erotb>
0.548805766528553

> <r_i_glide_esite>
-0.0614394531027511

> <r_i_glide_emodel>
-64.3904287790272

> <r_i_glide_energy>
-44.9710636138916

> <r_i_glide_einternal>
4.23987197875977

> <i_i_glide_confnum>
6

> <i_i_glide_posenum>
376

> <r_i_glide_eff_state_penalty>
0

> <i_f3d_flags>
0

> <s_user_duplicate_titles>
307157

> <s_m_subgroup_title>
dock_pv

> <s_m_subgroupid>
dock_pv1

> <b_m_subgroup_collapsed>
0

$$$$
319865
                    3D
 Schrodinger Suite 2021-1.
 55 59  0  0  1  0            999 V2000
    3.7090   27.6056    8.3361 C   0  0  0  0  0  0
    4.2725   26.3421    8.1804 C   0  0  0  0  0  0
    5.0544   26.0180    7.0705 C   0  0  0  0  0  0
    5.2537   26.9982    6.0921 C   0  0  0  0  0  0
    4.6616   28.2527    6.2206 C   0  0  0  0  0  0
    3.8728   28.5556    7.3311 C   0  0  0  0  0  0
    3.2580   29.8128    7.3621 N   0  0  0  0  0  0
    2.0116   30.2521    7.8026 C   0  0  0  0  0  0
    1.6379   31.4677    7.3271 N   0  0  0  0  0  0
    0.4588   31.9688    7.7760 C   0  0  0  0  0  0
   -0.3529   31.2563    8.6539 C   0  0  0  0  0  0
   -1.6288   31.7544    9.1586 C   0  0  0  0  0  0
   -2.3396   31.0030   10.0175 C   0  0  0  0  0  0
   -1.9452   29.6711   10.4527 C   0  0  0  0  0  0
   -2.7415   29.0178   11.1139 O   0  0  0  0  0  0
   -0.7024   29.2447   10.0272 N   0  0  0  0  0  0
    0.0990   30.0021    9.1023 C   0  0  0  0  0  0
    1.2897   29.4999    8.6685 N   0  0  0  0  0  0
   -0.1607   27.9234   10.5063 C   0  0  0  0  0  0
    0.0023   27.7712   12.0252 C   0  0  0  0  0  0
   -1.1453   26.8844   12.5226 C   0  0  0  0  0  0
   -1.6691   26.1205   11.2936 C   0  0  0  0  0  0
   -0.9203   26.6626   10.0627 C   0  0  0  0  0  0
    5.6064   24.7436    6.9736 N   0  0  0  0  0  0
    6.7284   24.4041    6.0805 C   0  0  0  0  0  0
    6.2504   23.8097    4.7346 C   0  0  0  0  0  0
    5.4619   22.6008    4.9554 N   0  0  0  0  0  0
    4.3174   22.9272    5.8012 C   0  0  0  0  0  0
    4.7598   23.5477    7.1512 C   0  0  0  0  0  0
    3.1350   27.8214    9.2232 H   0  0  0  0  0  0
    4.1247   25.6203    8.9694 H   0  0  0  0  0  0
    5.8522   26.7971    5.2168 H   0  0  0  0  0  0
    4.8110   28.9876    5.4425 H   0  0  0  0  0  0
    3.7300   30.5011    6.7770 H   0  0  0  0  0  0
    0.1764   32.9472    7.4112 H   0  0  0  0  0  0
   -1.9900   32.7339    8.8768 H   0  0  0  0  0  0
   -3.2696   31.3912   10.4089 H   0  0  0  0  0  0
    0.8489   27.8147   10.1191 H   0  0  0  0  0  0
    0.1199   28.7144   12.5616 H   0  0  0  0  0  0
    0.9205   27.2090   12.1760 H   0  0  0  0  0  0
   -1.9360   27.4929   12.9637 H   0  0  0  0  0  0
   -0.8090   26.2053   13.3053 H   0  0  0  0  0  0
   -2.7451   26.2620   11.1851 H   0  0  0  0  0  0
   -1.5072   25.0479   11.4048 H   0  0  0  0  0  0
   -0.1877   25.9060    9.7761 H   0  0  0  0  0  0
   -1.5421   26.8240    9.1835 H   0  0  0  0  0  0
    7.3478   25.2815    5.8966 H   0  0  0  0  0  0
    7.3747   23.6868    6.5875 H   0  0  0  0  0  0
    7.1004   23.5648    4.0975 H   0  0  0  0  0  0
    5.6619   24.5373    4.1735 H   0  0  0  0  0  0
    5.1407   22.2411    4.0670 H   0  0  0  0  0  0
    3.7355   22.0212    5.9683 H   0  0  0  0  0  0
    3.6504   23.6085    5.2698 H   0  0  0  0  0  0
    5.2858   22.8169    7.7711 H   0  0  0  0  0  0
    3.8531   23.7964    7.7027 H   0  0  0  0  0  0
  1  6  1  0  0  0
  1  2  2  0  0  0
  1 30  1  0  0  0
  2  3  1  0  0  0
  2 31  1  0  0  0
  3  4  2  0  0  0
  3 24  1  0  0  0
  4  5  1  0  0  0
  4 32  1  0  0  0
  5  6  2  0  0  0
  5 33  1  0  0  0
  6  7  1  0  0  0
  7  8  1  0  0  0
  7 34  1  0  0  0
  8 18  1  0  0  0
  8  9  2  0  0  0
  9 10  1  0  0  0
 10 11  2  0  0  0
 10 35  1  0  0  0
 11 17  1  0  0  0
 11 12  1  0  0  0
 12 13  2  0  0  0
 12 36  1  0  0  0
 13 14  1  0  0  0
 13 37  1  0  0  0
 14 15  2  0  0  0
 14 16  1  0  0  0
 16 17  1  0  0  0
 16 19  1  0  0  0
 17 18  2  0  0  0
 19 23  1  0  0  0
 19 20  1  0  0  0
 19 38  1  0  0  0
 20 21  1  0  0  0
 20 39  1  0  0  0
 20 40  1  0  0  0
 21 22  1  0  0  0
 21 41  1  0  0  0
 21 42  1  0  0  0
 22 23  1  0  0  0
 22 43  1  0  0  0
 22 44  1  0  0  0
 23 45  1  0  0  0
 23 46  1  0  0  0
 24 29  1  0  0  0
 24 25  1  0  0  0
 25 26  1  0  0  0
 25 47  1  0  0  0
 25 48  1  0  0  0
 26 27  1  0  0  0
 26 49  1  0  0  0
 26 50  1  0  0  0
 27 28  1  0  0  0
 27 51  1  0  0  0
 28 29  1  0  0  0
 28 52  1  0  0  0
 28 53  1  0  0  0
 29 54  1  0  0  0
 29 55  1  0  0  0
M  END
> <s_m_entry_id>
34656

> <s_m_entry_name>
ligand_docking-pose.153

> <s_m_Source_Path>
/home/csk/Desktop/cluster/DUD-E-result/cdk2

> <s_m_Source_File>
ligand_docking-pose.sdf

> <i_m_Source_File_Index>
153

> <i_lp_mmshare_version>
53161

> <r_lp_tautomer_probability>
1

> <s_lp_Force_Field>
OPLS_2005

> <r_lp_Energy>
65.925359

> <b_lp_Chiralities_Consistent>
1

> <s_lp_Variant>
319865-1

> <s_i_glide_gridfile>
glide-grid_1h00

> <i_i_glide_lignum>
433

> <i_i_glide_rotatable_bonds>
4

> <r_i_docking_score>
-7.92178196417

> <r_i_glide_ligand_efficiency>
-0.273164895316207

> <r_i_glide_ligand_efficiency_sa>
-0.839249103124695

> <r_i_glide_ligand_efficiency_ln>
-1.81388719073664

> <r_i_glide_gscore>
-7.92178196417

> <r_i_glide_lipo>
-2.5471891984044

> <r_i_glide_hbond>
-0.32

> <r_i_glide_metal>
0

> <r_i_glide_rewards>
-2.55346731051385

> <r_i_glide_evdw>
-40.0187034606934

> <r_i_glide_ecoul>
-6.73892259597778

> <r_i_glide_erotb>
0.511685489485281

> <r_i_glide_esite>
-0.00103738230568737

> <r_i_glide_emodel>
-65.7977344647095

> <r_i_glide_energy>
-46.7576260566711

> <r_i_glide_einternal>
3.51481366157532

> <i_i_glide_confnum>
29

> <i_i_glide_posenum>
35

> <r_i_glide_eff_state_penalty>
0

> <i_f3d_flags>
0

> <s_user_duplicate_titles>
319865

> <s_m_subgroup_title>
dock_pv

> <s_m_subgroupid>
dock_pv1

> <b_m_subgroup_collapsed>
0

$$$$
250325
                    3D
 Schrodinger Suite 2021-1.
 61 65  0  0  1  0            999 V2000
    5.0648   24.8177    5.7496 C   0  0  0  0  0  0
    5.2814   26.1774    5.9982 C   0  0  0  0  0  0
    4.9066   26.7305    7.2271 C   0  0  0  0  0  0
    4.3069   25.9092    8.1775 C   0  0  0  0  0  0
    4.0555   24.5682    7.9326 C   0  0  0  0  0  0
    4.4551   24.0115    6.7162 C   0  0  0  0  0  0
    2.9654   23.4929    9.3759 I   0  0  0  0  0  0
    5.1251   28.2056    7.5425 C   0  0  0  0  0  0
    3.9853   29.0529    7.1851 N   0  0  0  0  0  0
    2.8401   29.1971    7.9886 C   0  0  0  0  0  0
    1.9199   30.2490    7.7812 C   0  0  0  0  0  0
    0.7468   30.2176    8.5775 C   0  0  0  0  0  0
    0.4521   29.2843    9.4825 N   0  0  0  0  0  0
    1.4316   28.3588    9.6502 C   0  0  0  0  0  0
    2.5989   28.2952    8.9746 N   0  0  0  0  0  0
    1.2580   27.3252   10.5740 N   0  0  0  0  0  0
    0.0015   27.0790   11.2777 C   0  0  2  0  0  0
   -0.2479   28.1904   12.3269 C   0  0  0  0  0  0
   -1.4757   27.8923   13.1974 C   0  0  0  0  0  0
   -1.3960   26.5113   13.8783 C   0  0  2  0  0  0
   -1.1282   25.3985   12.8413 C   0  0  0  0  0  0
    0.1093   25.7008   11.9678 C   0  0  0  0  0  0
   -2.5574   26.2520   14.7046 N   0  0  0  0  0  0
    0.0371   31.3572    8.2491 N   0  0  0  0  0  0
    0.8583   32.0303    7.3758 C   0  0  0  0  0  0
    1.9157   31.3604    6.9759 N   0  0  0  0  0  0
   -1.2388   31.8596    8.7808 C   0  0  0  0  0  0
   -2.4034   30.8511    8.7723 C   0  0  0  0  0  0
   -3.3078   31.2089    9.9593 C   0  0  0  0  0  0
   -2.6147   32.3710   10.6793 C   0  0  0  0  0  0
   -1.1504   32.2671   10.2496 C   0  0  0  0  0  0
    5.3531   24.3941    4.7990 H   0  0  0  0  0  0
    5.7453   26.7963    5.2436 H   0  0  0  0  0  0
    4.0214   26.3090    9.1370 H   0  0  0  0  0  0
    4.2504   22.9725    6.5057 H   0  0  0  0  0  0
    5.3529   28.3257    8.6047 H   0  0  0  0  0  0
    6.0055   28.5589    7.0089 H   0  0  0  0  0  0
    4.1748   29.8353    6.5684 H   0  0  0  0  0  0
    1.9129   26.5640   10.4813 H   0  0  0  0  0  0
   -0.8023   27.0434   10.5385 H   0  0  0  0  0  0
    0.6246   28.3075   12.9668 H   0  0  0  0  0  0
   -0.3978   29.1608   11.8545 H   0  0  0  0  0  0
   -2.3658   27.9518   12.5689 H   0  0  0  0  0  0
   -1.5468   28.6825   13.9462 H   0  0  0  0  0  0
   -0.5216   26.5456   14.5325 H   0  0  0  0  0  0
   -1.9938   25.2927   12.1859 H   0  0  0  0  0  0
   -0.9954   24.4405   13.3451 H   0  0  0  0  0  0
    0.2208   24.9152   11.2189 H   0  0  0  0  0  0
    1.0087   25.6608   12.5853 H   0  0  0  0  0  0
   -2.8958   27.1583   15.0154 H   0  0  0  0  0  0
   -3.2887   25.9175   14.0950 H   0  0  0  0  0  0
    0.5535   32.9994    7.0022 H   0  0  0  0  0  0
   -1.5137   32.7345    8.1859 H   0  0  0  0  0  0
   -2.9543   30.8377    7.8332 H   0  0  0  0  0  0
   -2.0319   29.8521    8.9784 H   0  0  0  0  0  0
   -4.3198   31.4615    9.6467 H   0  0  0  0  0  0
   -3.3941   30.3525   10.6291 H   0  0  0  0  0  0
   -3.0332   33.3218   10.3487 H   0  0  0  0  0  0
   -2.7400   32.3254   11.7617 H   0  0  0  0  0  0
   -0.6696   31.4770   10.8309 H   0  0  0  0  0  0
   -0.5994   33.1888   10.4147 H   0  0  0  0  0  0
  1  6  1  0  0  0
  1  2  2  0  0  0
  1 32  1  0  0  0
  2  3  1  0  0  0
  2 33  1  0  0  0
  3  4  2  0  0  0
  3  8  1  0  0  0
  4  5  1  0  0  0
  4 34  1  0  0  0
  5  6  2  0  0  0
  5  7  1  0  0  0
  6 35  1  0  0  0
  8  9  1  0  0  0
  8 36  1  0  0  0
  8 37  1  0  0  0
  9 10  1  0  0  0
  9 38  1  0  0  0
 10 15  1  0  0  0
 10 11  2  0  0  0
 11 26  1  0  0  0
 11 12  1  0  0  0
 12 13  2  0  0  0
 12 24  1  0  0  0
 13 14  1  0  0  0
 14 15  2  0  0  0
 14 16  1  0  0  0
 16 17  1  0  0  0
 16 39  1  0  0  0
 17 22  1  0  0  0
 17 18  1  0  0  0
 17 40  1  0  0  0
 18 19  1  0  0  0
 18 41  1  0  0  0
 18 42  1  0  0  0
 19 20  1  0  0  0
 19 43  1  0  0  0
 19 44  1  0  0  0
 20 21  1  0  0  0
 20 23  1  0  0  0
 20 45  1  0  0  0
 21 22  1  0  0  0
 21 46  1  0  0  0
 21 47  1  0  0  0
 22 48  1  0  0  0
 22 49  1  0  0  0
 23 50  1  0  0  0
 23 51  1  0  0  0
 24 25  1  0  0  0
 24 27  1  0  0  0
 25 26  2  0  0  0
 25 52  1  0  0  0
 27 31  1  0  0  0
 27 28  1  0  0  0
 27 53  1  0  0  0
 28 29  1  0  0  0
 28 54  1  0  0  0
 28 55  1  0  0  0
 29 30  1  0  0  0
 29 56  1  0  0  0
 29 57  1  0  0  0
 30 31  1  0  0  0
 30 58  1  0  0  0
 30 59  1  0  0  0
 31 60  1  0  0  0
 31 61  1  0  0  0
M  END
> <s_m_entry_id>
34657

> <s_m_entry_name>
ligand_docking-pose.154

> <s_m_Source_Path>
/home/csk/Desktop/cluster/DUD-E-result/cdk2

> <s_m_Source_File>
ligand_docking-pose.sdf

> <i_m_Source_File_Index>
154

> <i_lp_mmshare_version>
53161

> <r_lp_tautomer_probability>
1

> <s_lp_Force_Field>
OPLS_2005

> <r_lp_Energy>
35.789024

> <b_lp_Chiralities_Consistent>
1

> <s_lp_Variant>
250325-2

> <s_i_glide_gridfile>
glide-grid_1h00

> <i_i_glide_lignum>
390

> <i_i_glide_rotatable_bonds>
6

> <r_i_docking_score>
-7.92132159217227

> <r_i_glide_ligand_efficiency>
-0.255526502973299

> <r_i_glide_ligand_efficiency_sa>
-0.802706011694726

> <r_i_glide_ligand_efficiency_ln>
-1.78650077838735

> <r_i_glide_gscore>
-7.92132159217227

> <r_i_glide_lipo>
-2.52723676844304

> <r_i_glide_hbond>
-0.415424792168071

> <r_i_glide_metal>
0

> <r_i_glide_rewards>
-2.13574737280894

> <r_i_glide_evdw>
-42.7744369506836

> <r_i_glide_ecoul>
-6.73246192932129

> <r_i_glide_erotb>
0.306644770143582

> <r_i_glide_esite>
-0.000966291963425885

> <r_i_glide_emodel>
-70.1839143627231

> <r_i_glide_energy>
-49.5068988800049

> <r_i_glide_einternal>
3.44710564613342

> <i_i_glide_confnum>
4

> <i_i_glide_posenum>
225

> <r_i_glide_eff_state_penalty>
0

> <i_f3d_flags>
0

> <s_user_duplicate_titles>
250325

> <s_m_subgroup_title>
dock_pv

> <s_m_subgroupid>
dock_pv1

> <b_m_subgroup_collapsed>
0

$$$$
248195
                    3D
 Schrodinger Suite 2021-1.
 60 64  0  0  1  0            999 V2000
    7.4020   25.6915    5.3743 C   0  0  0  0  0  0
    6.8857   25.8967    6.6852 O   0  0  0  0  0  0
    5.8475   26.7904    6.8622 C   0  0  0  0  0  0
    5.4703   27.0509    8.1759 C   0  0  0  0  0  0
    4.4435   27.9459    8.4656 C   0  0  0  0  0  0
    3.8048   28.6223    7.4302 C   0  0  0  0  0  0
    4.1790   28.3725    6.1059 C   0  0  0  0  0  0
    5.1829   27.4526    5.8214 C   0  0  0  0  0  0
    2.6802   29.5518    7.7069 C   0  0  0  0  0  0
    1.5910   29.5020    8.5672 C   0  0  0  0  0  0
    0.7818   30.5703    8.2071 C   0  0  0  0  0  0
    1.3140   31.3234    7.2757 N   0  0  0  0  0  0
    2.4545   30.6888    6.9794 N   0  0  0  0  0  0
   -0.4631   30.5431    8.9715 C   0  0  0  0  0  0
   -1.5922   31.3587    8.9760 C   0  0  0  0  0  0
   -2.6752   31.0144    9.7809 C   0  0  0  0  0  0
   -2.6214   29.8683   10.5758 C   0  0  0  0  0  0
   -1.4772   29.0544   10.5993 C   0  0  0  0  0  0
   -0.3831   29.4154    9.7931 C   0  0  0  0  0  0
    0.9430   28.7444    9.6118 C   0  0  0  0  0  0
    1.3632   27.7406   10.1770 O   0  0  0  0  0  0
   -1.3801   27.9091   11.4121 N   0  0  0  0  0  0
   -2.3481   27.1577   11.9821 C   0  0  0  0  0  0
   -3.5536   27.3173   11.7777 O   0  0  0  0  0  0
   -1.9027   26.0201   12.9338 C   0  0  0  0  0  0
   -0.9303   25.1141   12.2910 N   0  0  1  0  0  0
    0.4639   25.5726   12.3549 C   0  0  0  0  0  0
    1.3117   24.7554   11.3627 C   0  0  0  0  0  0
    1.2718   23.2437   11.6609 C   0  0  0  0  0  0
   -0.1841   22.7781   11.9181 C   0  0  0  0  0  0
   -1.0000   23.7410   12.8100 C   0  0  0  0  0  0
    2.0020   22.4182   10.5814 C   0  0  0  0  0  0
    2.4548   21.1443   11.1104 N   0  0  0  0  0  0
    3.1174   31.0521    6.3011 H   0  0  0  0  0  0
    8.2405   24.9964    5.4247 H   0  0  0  0  0  0
    6.6511   25.2558    4.7130 H   0  0  0  0  0  0
    7.7699   26.6227    4.9367 H   0  0  0  0  0  0
    5.9894   26.5514    8.9760 H   0  0  0  0  0  0
    4.1438   28.1076    9.4900 H   0  0  0  0  0  0
    3.6829   28.8756    5.2894 H   0  0  0  0  0  0
    5.4490   27.2824    4.7897 H   0  0  0  0  0  0
   -1.6443   32.2375    8.3507 H   0  0  0  0  0  0
   -3.5574   31.6368    9.7976 H   0  0  0  0  0  0
   -3.4759   29.6418   11.1918 H   0  0  0  0  0  0
   -0.4428   27.5430   11.4900 H   0  0  0  0  0  0
   -2.8032   25.4723   13.2192 H   0  0  0  0  0  0
   -1.5065   26.4507   13.8553 H   0  0  0  0  0  0
    0.8260   25.5134   13.3760 H   0  0  0  0  0  0
    0.5676   26.6183   12.0991 H   0  0  0  0  0  0
    2.3414   25.1148   11.3420 H   0  0  0  0  0  0
    0.9344   24.9488   10.3562 H   0  0  0  0  0  0
    1.7947   23.1465   12.6146 H   0  0  0  0  0  0
   -0.7281   22.7082   10.9761 H   0  0  0  0  0  0
   -0.1964   21.7613   12.3113 H   0  0  0  0  0  0
   -0.6882   23.7080   13.8557 H   0  0  0  0  0  0
   -2.0354   23.4044   12.7891 H   0  0  0  0  0  0
    2.8641   22.9644   10.2033 H   0  0  0  0  0  0
    1.3527   22.2536    9.7207 H   0  0  0  0  0  0
    1.6652   20.6428   11.4977 H   0  0  0  0  0  0
    2.7913   20.5648   10.3524 H   0  0  0  0  0  0
  1  2  1  0  0  0
  1 35  1  0  0  0
  1 36  1  0  0  0
  1 37  1  0  0  0
  2  3  1  0  0  0
  3  8  1  0  0  0
  3  4  2  0  0  0
  4  5  1  0  0  0
  4 38  1  0  0  0
  5  6  2  0  0  0
  5 39  1  0  0  0
  6  7  1  0  0  0
  6  9  1  0  0  0
  7  8  2  0  0  0
  7 40  1  0  0  0
  8 41  1  0  0  0
  9 13  1  0  0  0
  9 10  2  0  0  0
 10 20  1  0  0  0
 10 11  1  0  0  0
 11 12  2  0  0  0
 11 14  1  0  0  0
 12 13  1  0  0  0
 13 34  1  0  0  0
 14 19  2  0  0  0
 14 15  1  0  0  0
 15 16  2  0  0  0
 15 42  1  0  0  0
 16 17  1  0  0  0
 16 43  1  0  0  0
 17 18  2  0  0  0
 17 44  1  0  0  0
 18 19  1  0  0  0
 18 22  1  0  0  0
 19 20  1  0  0  0
 20 21  2  0  0  0
 22 23  1  0  0  0
 22 45  1  0  0  0
 23 24  2  0  0  0
 23 25  1  0  0  0
 25 26  1  0  0  0
 25 46  1  0  0  0
 25 47  1  0  0  0
 26 31  1  0  0  0
 26 27  1  0  0  0
 27 28  1  0  0  0
 27 48  1  0  0  0
 27 49  1  0  0  0
 28 29  1  0  0  0
 28 50  1  0  0  0
 28 51  1  0  0  0
 29 30  1  0  0  0
 29 32  1  0  0  0
 29 52  1  0  0  0
 30 31  1  0  0  0
 30 53  1  0  0  0
 30 54  1  0  0  0
 31 55  1  0  0  0
 31 56  1  0  0  0
 32 33  1  0  0  0
 32 57  1  0  0  0
 32 58  1  0  0  0
 33 59  1  0  0  0
 33 60  1  0  0  0
M  END
> <s_m_entry_id>
34658

> <s_m_entry_name>
ligand_docking-pose.155

> <s_m_Source_Path>
/home/csk/Desktop/cluster/DUD-E-result/cdk2

> <s_m_Source_File>
ligand_docking-pose.sdf

> <i_m_Source_File_Index>
155

> <i_lp_mmshare_version>
53161

> <r_lp_tautomer_probability>
1

> <s_lp_Force_Field>
OPLS_2005

> <r_lp_Energy>
76.48656

> <b_lp_Chiralities_Consistent>
1

> <s_lp_Variant>
248195-1

> <s_i_glide_gridfile>
glide-grid_1h00

> <i_i_glide_lignum>
1624

> <i_i_glide_rotatable_bonds>
7

> <r_i_docking_score>
-7.91100185745187

> <r_i_glide_ligand_efficiency>
-0.239727329013693

> <r_i_glide_ligand_efficiency_sa>
-0.768933636753431

> <r_i_glide_ligand_efficiency_ln>
-1.75936585212186

> <r_i_glide_gscore>
-7.91100185745187

> <r_i_glide_lipo>
-3.15719236640907

> <r_i_glide_hbond>
-0.309717501333557

> <r_i_glide_metal>
0

> <r_i_glide_rewards>
-1.77748168876958

> <r_i_glide_evdw>
-42.602481842041

> <r_i_glide_ecoul>
-6.93687677383423

> <r_i_glide_erotb>
0.504045307237528

> <r_i_glide_esite>
0

> <r_i_glide_emodel>
-68.3957494486865

> <r_i_glide_energy>
-49.5393586158752

> <r_i_glide_einternal>
9.62573528289795

> <i_i_glide_confnum>
5

> <i_i_glide_posenum>
191

> <r_i_glide_eff_state_penalty>
0

> <i_f3d_flags>
0

> <s_user_duplicate_titles>
248195

> <s_m_subgroup_title>
dock_pv

> <s_m_subgroupid>
dock_pv1

> <b_m_subgroup_collapsed>
0

$$$$
301155
                    3D
 Schrodinger Suite 2021-1.
 32 34  0  0  1  0            999 V2000
   -1.3831   25.3751   10.3562 C   0  0  0  0  0  0
   -0.9658   26.2998   11.5184 C   0  0  0  0  0  0
   -1.5347   25.7789   12.8511 C   0  0  0  0  0  0
   -1.3743   27.7783   11.2926 C   0  0  0  0  0  0
   -0.7819   28.4734   10.0357 C   0  0  2  0  0  0
    0.7777   28.5874   10.1122 C   0  0  0  0  0  0
    1.3194   29.4487    8.9745 C   0  0  0  0  0  0
    2.4962   29.4339    8.2459 C   0  0  0  0  0  0
    2.3887   30.4620    7.3499 N   0  0  0  0  0  0
    1.2299   31.1261    7.4441 N   0  0  0  0  0  0
    0.5815   30.5041    8.4086 C   0  0  0  0  0  0
   -0.7166   30.8236    8.9736 C   0  0  0  0  0  0
   -1.3709   29.8720    9.7801 C   0  0  0  0  0  0
   -2.5444   30.3088   10.1888 N   0  0  0  0  0  0
   -2.6303   31.5580    9.7225 N   0  0  0  0  0  0
   -1.5460   31.9306    8.9762 C   0  0  0  0  0  0
    3.1129   30.7300    6.6903 H   0  0  0  0  0  0
   -3.4247   32.1488    9.9280 H   0  0  0  0  0  0
   -2.4548   25.4378   10.1639 H   0  0  0  0  0  0
   -0.8639   25.6249    9.4315 H   0  0  0  0  0  0
   -1.1492   24.3331   10.5770 H   0  0  0  0  0  0
    0.1204   26.2543   11.6033 H   0  0  0  0  0  0
   -2.6254   25.7780   12.8444 H   0  0  0  0  0  0
   -1.2044   24.7598   13.0523 H   0  0  0  0  0  0
   -1.2088   26.3964   13.6892 H   0  0  0  0  0  0
   -2.4632   27.8255   11.2542 H   0  0  0  0  0  0
   -1.0988   28.3647   12.1716 H   0  0  0  0  0  0
   -1.0322   27.8720    9.1621 H   0  0  0  0  0  0
    1.0732   29.0170   11.0704 H   0  0  0  0  0  0
    1.2297   27.5960   10.0721 H   0  0  0  0  0  0
    3.3798   28.8140    8.2926 H   0  0  0  0  0  0
   -1.4612   32.9158    8.5428 H   0  0  0  0  0  0
  1  2  1  0  0  0
  1 19  1  0  0  0
  1 20  1  0  0  0
  1 21  1  0  0  0
  2  3  1  0  0  0
  2  4  1  0  0  0
  2 22  1  0  0  0
  3 23  1  0  0  0
  3 24  1  0  0  0
  3 25  1  0  0  0
  4  5  1  0  0  0
  4 26  1  0  0  0
  4 27  1  0  0  0
  5 13  1  0  0  0
  5  6  1  0  0  0
  5 28  1  0  0  0
  6  7  1  0  0  0
  6 29  1  0  0  0
  6 30  1  0  0  0
  7 11  1  0  0  0
  7  8  2  0  0  0
  8  9  1  0  0  0
  8 31  1  0  0  0
  9 17  1  0  0  0
  9 10  1  0  0  0
 10 11  2  0  0  0
 11 12  1  0  0  0
 12 16  2  0  0  0
 12 13  1  0  0  0
 13 14  2  0  0  0
 14 15  1  0  0  0
 15 18  1  0  0  0
 15 16  1  0  0  0
 16 32  1  0  0  0
M  END
> <s_m_entry_id>
34660

> <s_m_entry_name>
ligand_docking-pose.157

> <s_m_Source_Path>
/home/csk/Desktop/cluster/DUD-E-result/cdk2

> <s_m_Source_File>
ligand_docking-pose.sdf

> <i_m_Source_File_Index>
157

> <i_lp_mmshare_version>
53161

> <r_lp_tautomer_probability>
0.333333333333333

> <s_lp_Force_Field>
OPLS_2005

> <r_lp_Energy>
14.04646

> <b_lp_Chiralities_Consistent>
1

> <s_lp_Variant>
301155-1

> <s_i_glide_gridfile>
glide-grid_1h00

> <i_i_glide_lignum>
1111

> <i_i_glide_rotatable_bonds>
2

> <r_i_docking_score>
-7.89398538512037

> <r_i_glide_ligand_efficiency>
-0.493374086570023

> <r_i_glide_ligand_efficiency_sa>
-1.24322479313547

> <r_i_glide_ligand_efficiency_ln>
-2.09245851226362

> <r_i_glide_gscore>
-7.89398538512037

> <r_i_glide_lipo>
-2.65701483505444

> <r_i_glide_hbond>
-0.32

> <r_i_glide_metal>
0

> <r_i_glide_rewards>
-2.92610593939394

> <r_i_glide_evdw>
-27.6590118408203

> <r_i_glide_ecoul>
-4.05276012420654

> <r_i_glide_erotb>
0

> <r_i_glide_esite>
0

> <r_i_glide_emodel>
-45.6528859767628

> <r_i_glide_energy>
-31.7117719650269

> <r_i_glide_einternal>
0.439750611782074

> <i_i_glide_confnum>
1

> <i_i_glide_posenum>
367

> <r_i_glide_eff_state_penalty>
0

> <i_f3d_flags>
0

> <s_user_duplicate_titles>
301155

> <s_m_subgroup_title>
dock_pv

> <s_m_subgroupid>
dock_pv1

> <b_m_subgroup_collapsed>
0

$$$$
310836
                    3D
 Schrodinger Suite 2021-1.
 52 56  0  0  1  0            999 V2000
    6.4997   24.6069    7.5824 C   0  0  0  0  0  0
    6.2175   25.5918    6.6060 O   0  0  0  0  0  0
    5.3019   26.5771    6.9045 C   0  0  0  0  0  0
    5.0071   27.4595    5.8730 C   0  0  0  0  0  0
    4.1030   28.4919    6.0724 C   0  0  0  0  0  0
    3.4821   28.6522    7.3159 C   0  0  0  0  0  0
    3.7787   27.7805    8.3611 C   0  0  0  0  0  0
    4.6720   26.7364    8.1484 C   0  0  0  0  0  0
    2.4583   29.7101    7.4854 C   0  0  0  0  0  0
    1.3336   29.8741    8.2794 C   0  0  0  0  0  0
    0.8170   31.1060    7.9209 C   0  0  0  0  0  0
    1.4892   31.7082    6.9764 N   0  0  0  0  0  0
    2.4580   30.8396    6.7264 N   0  0  0  0  0  0
   -0.3417   31.4238    8.7239 C   0  0  0  0  0  0
   -1.1282   32.5662    8.7791 C   0  0  0  0  0  0
   -2.2171   32.5800    9.6333 C   0  0  0  0  0  0
   -2.5239   31.4647   10.3952 C   0  0  0  0  0  0
   -1.6668   30.3629   10.4450 C   0  0  0  0  0  0
   -0.5596   30.3262    9.5662 C   0  0  0  0  0  0
    0.4911   29.2831    9.2973 C   0  0  0  0  0  0
    0.6148   28.1634    9.7859 O   0  0  0  0  0  0
   -2.0448   29.3873   11.3756 N   0  0  0  0  0  0
   -1.2287   28.6025   12.0911 C   0  0  0  0  0  0
   -0.1208   28.9556   12.5067 O   0  0  0  0  0  0
   -1.7628   27.3755   12.2206 N   0  0  0  0  0  0
   -0.8522   26.3311   12.3363 N   0  0  0  0  0  0
   -0.8291   25.4300   11.3303 C   0  0  0  0  0  0
   -1.5417   25.4640   10.3209 O   0  0  0  0  0  0
    0.2065   24.3555   11.4626 C   0  0  0  0  0  0
    1.1524   24.1821   10.4456 C   0  0  0  0  0  0
    2.0459   23.1168   10.5344 C   0  0  0  0  0  0
    2.0580   22.2512   11.5806 N   0  0  0  0  0  0
    1.1547   22.4465   12.5752 C   0  0  0  0  0  0
    0.2176   23.4817   12.5582 C   0  0  0  0  0  0
    3.2195   31.0599    6.0921 H   0  0  0  0  0  0
    7.2760   23.9409    7.2079 H   0  0  0  0  0  0
    6.8570   25.0519    8.5134 H   0  0  0  0  0  0
    5.6120   24.0023    7.7745 H   0  0  0  0  0  0
    5.4909   27.3462    4.9139 H   0  0  0  0  0  0
    3.8856   29.1550    5.2488 H   0  0  0  0  0  0
    3.3014   27.8866    9.3254 H   0  0  0  0  0  0
    4.8577   26.0590    8.9640 H   0  0  0  0  0  0
   -0.9045   33.4314    8.1709 H   0  0  0  0  0  0
   -2.8350   33.4522    9.7160 H   0  0  0  0  0  0
   -3.4279   31.5005   10.9760 H   0  0  0  0  0  0
   -2.9838   29.4838   11.7374 H   0  0  0  0  0  0
   -2.5674   27.2233   12.8115 H   0  0  0  0  0  0
   -0.6011   26.1253   13.2907 H   0  0  0  0  0  0
    1.1693   24.8320    9.5804 H   0  0  0  0  0  0
    2.7504   22.9372    9.7345 H   0  0  0  0  0  0
    1.1783   21.7362   13.3886 H   0  0  0  0  0  0
   -0.5004   23.5751   13.3606 H   0  0  0  0  0  0
  1  2  1  0  0  0
  1 36  1  0  0  0
  1 37  1  0  0  0
  1 38  1  0  0  0
  2  3  1  0  0  0
  3  8  1  0  0  0
  3  4  2  0  0  0
  4  5  1  0  0  0
  4 39  1  0  0  0
  5  6  2  0  0  0
  5 40  1  0  0  0
  6  7  1  0  0  0
  6  9  1  0  0  0
  7  8  2  0  0  0
  7 41  1  0  0  0
  8 42  1  0  0  0
  9 13  1  0  0  0
  9 10  2  0  0  0
 10 20  1  0  0  0
 10 11  1  0  0  0
 11 12  2  0  0  0
 11 14  1  0  0  0
 12 13  1  0  0  0
 13 35  1  0  0  0
 14 19  2  0  0  0
 14 15  1  0  0  0
 15 16  2  0  0  0
 15 43  1  0  0  0
 16 17  1  0  0  0
 16 44  1  0  0  0
 17 18  2  0  0  0
 17 45  1  0  0  0
 18 19  1  0  0  0
 18 22  1  0  0  0
 19 20  1  0  0  0
 20 21  2  0  0  0
 22 23  1  0  0  0
 22 46  1  0  0  0
 23 24  2  0  0  0
 23 25  1  0  0  0
 25 26  1  0  0  0
 25 47  1  0  0  0
 26 27  1  0  0  0
 26 48  1  0  0  0
 27 28  2  0  0  0
 27 29  1  0  0  0
 29 34  1  0  0  0
 29 30  2  0  0  0
 30 31  1  0  0  0
 30 49  1  0  0  0
 31 32  2  0  0  0
 31 50  1  0  0  0
 32 33  1  0  0  0
 33 34  2  0  0  0
 33 51  1  0  0  0
 34 52  1  0  0  0
M  END
> <s_m_entry_id>
34661

> <s_m_entry_name>
ligand_docking-pose.158

> <s_m_Source_Path>
/home/csk/Desktop/cluster/DUD-E-result/cdk2

> <s_m_Source_File>
ligand_docking-pose.sdf

> <i_m_Source_File_Index>
158

> <i_lp_mmshare_version>
53161

> <r_lp_tautomer_probability>
1

> <s_lp_Force_Field>
OPLS_2005

> <r_lp_Energy>
66.471672

> <b_lp_Chiralities_Consistent>
1

> <s_lp_Variant>
310836-1

> <s_i_glide_gridfile>
glide-grid_1h00

> <i_i_glide_lignum>
1657

> <i_i_glide_rotatable_bonds>
8

> <r_i_docking_score>
-7.89194741992556

> <r_i_glide_ligand_efficiency>
-0.232116100586046

> <r_i_glide_ligand_efficiency_sa>
-0.751966057841165

> <r_i_glide_ligand_efficiency_ln>
-1.74355254668867

> <r_i_glide_gscore>
-7.89194741992556

> <r_i_glide_lipo>
-2.98432760012523

> <r_i_glide_hbond>
-0.436615031863272

> <r_i_glide_metal>
0

> <r_i_glide_rewards>
-1.55046912429877

> <r_i_glide_evdw>
-43.3492774963379

> <r_i_glide_ecoul>
-8.63600921630859

> <r_i_glide_erotb>
0.583432397413786

> <r_i_glide_esite>
-0.0411028037888931

> <r_i_glide_emodel>
-69.0457943713515

> <r_i_glide_energy>
-51.9852867126465

> <r_i_glide_einternal>
16.1158428192139

> <i_i_glide_confnum>
17

> <i_i_glide_posenum>
371

> <r_i_glide_eff_state_penalty>
0

> <i_f3d_flags>
0

> <s_user_duplicate_titles>
310836

> <s_m_subgroup_title>
dock_pv

> <s_m_subgroupid>
dock_pv1

> <b_m_subgroup_collapsed>
0

$$$$
311665
                    3D
 Schrodinger Suite 2021-1.
 30 30  0  0  1  0            999 V2000
   -3.1411   31.2935    8.9722 C   0  0  0  0  0  0
   -1.8689   31.6987    9.7333 C   0  0  0  0  0  0
   -1.9530   33.1546   10.2280 C   0  0  0  0  0  0
   -0.6293   31.4661    8.8855 C   0  0  0  0  0  0
    0.0594   32.3216    8.0176 C   0  0  0  0  0  0
    1.1217   31.8612    7.3805 N   0  0  0  0  0  0
    1.4150   30.6520    7.7759 C   0  0  0  0  0  0
    0.2298   29.9447    8.8542 S   0  0  0  0  0  0
    2.6038   30.0561    7.3728 N   0  0  0  0  0  0
    3.2550   29.0121    7.9314 C   0  0  0  0  0  0
    2.8697   28.4155    8.9376 O   0  0  0  0  0  0
    4.5690   28.5865    7.2313 C   0  0  0  0  0  0
    4.3441   28.2192    5.7463 C   0  0  0  0  0  0
    5.3142   27.4467    7.9650 C   0  0  0  0  0  0
   -3.1211   30.2427    8.6959 H   0  0  0  0  0  0
   -4.0350   31.4520    9.5775 H   0  0  0  0  0  0
   -3.2529   31.8642    8.0506 H   0  0  0  0  0  0
   -1.8104   31.0681   10.6226 H   0  0  0  0  0  0
   -1.1090   33.4169   10.8661 H   0  0  0  0  0  0
   -1.9508   33.8515    9.3926 H   0  0  0  0  0  0
   -2.8632   33.3296   10.8022 H   0  0  0  0  0  0
   -0.2403   33.3385    7.8168 H   0  0  0  0  0  0
    3.1127   30.5445    6.6456 H   0  0  0  0  0  0
    5.2305   29.4524    7.2554 H   0  0  0  0  0  0
    3.9349   29.0532    5.1752 H   0  0  0  0  0  0
    3.6580   27.3775    5.6354 H   0  0  0  0  0  0
    5.2818   27.9408    5.2652 H   0  0  0  0  0  0
    5.5968   27.7408    8.9765 H   0  0  0  0  0  0
    4.7004   26.5483    8.0483 H   0  0  0  0  0  0
    6.2300   27.1653    7.4444 H   0  0  0  0  0  0
  1  2  1  0  0  0
  1 15  1  0  0  0
  1 16  1  0  0  0
  1 17  1  0  0  0
  2  3  1  0  0  0
  2  4  1  0  0  0
  2 18  1  0  0  0
  3 19  1  0  0  0
  3 20  1  0  0  0
  3 21  1  0  0  0
  4  8  1  0  0  0
  4  5  2  0  0  0
  5  6  1  0  0  0
  5 22  1  0  0  0
  6  7  2  0  0  0
  7  8  1  0  0  0
  7  9  1  0  0  0
  9 10  1  0  0  0
  9 23  1  0  0  0
 10 11  2  0  0  0
 10 12  1  0  0  0
 12 13  1  0  0  0
 12 14  1  0  0  0
 12 24  1  0  0  0
 13 25  1  0  0  0
 13 26  1  0  0  0
 13 27  1  0  0  0
 14 28  1  0  0  0
 14 29  1  0  0  0
 14 30  1  0  0  0
M  END
> <s_m_entry_id>
34664

> <s_m_entry_name>
ligand_docking-pose.161

> <s_m_Source_Path>
/home/csk/Desktop/cluster/DUD-E-result/cdk2

> <s_m_Source_File>
ligand_docking-pose.sdf

> <i_m_Source_File_Index>
161

> <i_lp_mmshare_version>
53161

> <r_lp_tautomer_probability>
0.999000488399163

> <s_lp_Force_Field>
OPLS_2005

> <r_lp_Energy>
0.679861

> <b_lp_Chiralities_Consistent>
1

> <s_lp_Variant>
311665-1

> <s_i_glide_gridfile>
glide-grid_1h00

> <i_i_glide_lignum>
1102

> <i_i_glide_rotatable_bonds>
4

> <r_i_docking_score>
-7.87972930448108

> <r_i_glide_ligand_efficiency>
-0.562837807462935

> <r_i_glide_ligand_efficiency_sa>
-1.35651918644883

> <r_i_glide_ligand_efficiency_ln>
-2.16532156290986

> <r_i_glide_gscore>
-7.87972930448108

> <r_i_glide_lipo>
-2.85215917573588

> <r_i_glide_hbond>
-0.32

> <r_i_glide_metal>
0

> <r_i_glide_rewards>
-3.5636008962956

> <r_i_glide_evdw>
-27.3110904693604

> <r_i_glide_ecoul>
-3.44926738739014

> <r_i_glide_erotb>
0.738975399126933

> <r_i_glide_esite>
0

> <r_i_glide_emodel>
-43.0031325476665

> <r_i_glide_energy>
-30.7603578567505

> <r_i_glide_einternal>
3.34316992759705

> <i_i_glide_confnum>
1

> <i_i_glide_posenum>
139

> <r_i_glide_eff_state_penalty>
0

> <i_f3d_flags>
0

> <s_user_duplicate_titles>
311665

> <s_m_subgroup_title>
dock_pv

> <s_m_subgroupid>
dock_pv1

> <b_m_subgroup_collapsed>
0

$$$$
115979
                    3D
 Schrodinger Suite 2021-1.
 46 51  0  0  1  0            999 V2000
    1.7267   30.5753    6.9538 C   0  0  0  0  0  0
    0.7601   31.1008    7.8831 N   0  0  0  0  0  0
    0.3903   32.4202    7.7761 C   0  0  0  0  0  0
   -0.6841   32.6819    8.5765 C   0  0  0  0  0  0
   -0.9457   31.4890    9.3063 C   0  0  0  0  0  0
    0.0772   30.5310    8.9757 C   0  0  0  0  0  0
    0.1845   29.2814    9.7154 C   0  0  0  0  0  0
   -0.9045   28.9973   10.6052 C   0  0  0  0  0  0
   -1.9417   29.9307   10.8245 C   0  0  0  0  0  0
   -1.9437   31.1727   10.2230 C   0  0  0  0  0  0
   -0.9682   27.7693   11.3085 C   0  0  0  0  0  0
    0.0148   26.7828   11.1897 C   0  0  0  0  0  0
   -0.4069   25.6988   12.0082 C   0  0  0  0  0  0
    0.1289   24.4341   12.3092 C   0  0  0  0  0  0
   -0.5537   23.5950   13.1843 C   0  0  0  0  0  0
   -1.7548   23.9866   13.7637 C   0  0  0  0  0  0
   -2.3425   25.2291   13.5000 C   0  0  0  0  0  0
   -1.6403   26.0719   12.6253 C   0  0  0  0  0  0
   -1.9410   27.3442   12.1892 N   0  0  0  0  0  0
   -3.6780   25.5583   14.1557 C   0  0  0  0  0  0
   -3.5714   25.9237   15.6433 C   0  0  0  0  0  0
   -2.7418   27.0468   15.8351 O   0  0  0  0  0  0
    1.1249   27.0698   10.3797 C   0  0  0  0  0  0
    1.2528   28.2856    9.7079 C   0  0  0  0  0  0
    2.6536   28.2511    9.1460 C   0  0  0  0  0  0
    3.3287   29.1023    8.5863 O   0  0  0  0  0  0
    3.1266   27.0211    9.3761 N   0  0  0  0  0  0
    2.3148   26.2312   10.0832 C   0  0  0  0  0  0
    2.5530   25.0685   10.4052 O   0  0  0  0  0  0
   -2.7421   27.8869   12.4839 H   0  0  0  0  0  0
    1.6588   29.4919    6.9183 H   0  0  0  0  0  0
    1.5234   30.9602    5.9539 H   0  0  0  0  0  0
    2.7212   30.9274    7.2287 H   0  0  0  0  0  0
    0.8653   33.0563    7.0437 H   0  0  0  0  0  0
   -1.2142   33.6235    8.6126 H   0  0  0  0  0  0
   -2.7407   29.6988   11.5148 H   0  0  0  0  0  0
   -2.7246   31.8816   10.4672 H   0  0  0  0  0  0
    1.0582   24.0909   11.8867 H   0  0  0  0  0  0
   -0.1454   22.6210   13.4125 H   0  0  0  0  0  0
   -2.2529   23.2956   14.4278 H   0  0  0  0  0  0
   -4.3355   24.6988   14.0386 H   0  0  0  0  0  0
   -4.1654   26.3644   13.6034 H   0  0  0  0  0  0
   -3.1391   25.0906   16.1923 H   0  0  0  0  0  0
   -4.5565   26.1259   16.0662 H   0  0  0  0  0  0
   -3.1316   27.7890   15.3412 H   0  0  0  0  0  0
    4.0565   26.7314    9.1140 H   0  0  0  0  0  0
  1  2  1  0  0  0
  1 31  1  0  0  0
  1 32  1  0  0  0
  1 33  1  0  0  0
  2  6  1  0  0  0
  2  3  1  0  0  0
  3  4  2  0  0  0
  3 34  1  0  0  0
  4  5  1  0  0  0
  4 35  1  0  0  0
  5 10  2  0  0  0
  5  6  1  0  0  0
  6  7  2  0  0  0
  7 24  1  0  0  0
  7  8  1  0  0  0
  8  9  2  0  0  0
  8 11  1  0  0  0
  9 10  1  0  0  0
  9 36  1  0  0  0
 10 37  1  0  0  0
 11 19  1  0  0  0
 11 12  2  0  0  0
 12 13  1  0  0  0
 12 23  1  0  0  0
 13 18  2  0  0  0
 13 14  1  0  0  0
 14 15  2  0  0  0
 14 38  1  0  0  0
 15 16  1  0  0  0
 15 39  1  0  0  0
 16 17  2  0  0  0
 16 40  1  0  0  0
 17 18  1  0  0  0
 17 20  1  0  0  0
 18 19  1  0  0  0
 19 30  1  0  0  0
 20 21  1  0  0  0
 20 41  1  0  0  0
 20 42  1  0  0  0
 21 22  1  0  0  0
 21 43  1  0  0  0
 21 44  1  0  0  0
 22 45  1  0  0  0
 23 28  1  0  0  0
 23 24  2  0  0  0
 24 25  1  0  0  0
 25 26  2  0  0  0
 25 27  1  0  0  0
 27 28  1  0  0  0
 27 46  1  0  0  0
 28 29  2  0  0  0
M  END
> <s_m_entry_id>
34665

> <s_m_entry_name>
ligand_docking-pose.162

> <s_m_Source_Path>
/home/csk/Desktop/cluster/DUD-E-result/cdk2

> <s_m_Source_File>
ligand_docking-pose.sdf

> <i_m_Source_File_Index>
162

> <i_lp_mmshare_version>
53161

> <r_lp_tautomer_probability>
1

> <s_lp_Force_Field>
OPLS_2005

> <r_lp_Energy>
81.896252

> <b_lp_Chiralities_Consistent>
1

> <s_lp_Variant>
115979-1

> <s_i_glide_gridfile>
glide-grid_1h00

> <i_i_glide_lignum>
1461

> <i_i_glide_rotatable_bonds>
3

> <r_i_docking_score>
-7.87814649106024

> <r_i_glide_ligand_efficiency>
-0.271660223829663

> <r_i_glide_ligand_efficiency_sa>
-0.834626275604647

> <r_i_glide_ligand_efficiency_ln>
-1.80389577389463

> <r_i_glide_gscore>
-7.87814649106024

> <r_i_glide_lipo>
-2.85249781534704

> <r_i_glide_hbond>
-0.275738284747285

> <r_i_glide_metal>
0

> <r_i_glide_rewards>
-1.89446257273068

> <r_i_glide_evdw>
-40.4447708129883

> <r_i_glide_ecoul>
-7.14248180389404

> <r_i_glide_erotb>
0.264386079418367

> <r_i_glide_esite>
-0.0262230864200858

> <r_i_glide_emodel>
-68.3818079470376

> <r_i_glide_energy>
-47.5872526168823

> <r_i_glide_einternal>
0.783043920993805

> <i_i_glide_confnum>
4

> <i_i_glide_posenum>
382

> <r_i_glide_eff_state_penalty>
0

> <i_f3d_flags>
0

> <s_user_duplicate_titles>
115979

> <s_m_subgroup_title>
dock_pv

> <s_m_subgroupid>
dock_pv1

> <b_m_subgroup_collapsed>
0

$$$$
307195
                    3D
 Schrodinger Suite 2021-1.
 42 44  0  0  1  0            999 V2000
   -0.7610   22.6368   12.7712 C   0  0  0  0  0  0
   -1.0728   24.1161   12.5659 C   0  0  0  0  0  0
   -0.7365   24.6853   11.3349 C   0  0  0  0  0  0
   -1.0460   26.0123   11.0539 C   0  0  0  0  0  0
   -1.6701   26.8118   12.0134 C   0  0  0  0  0  0
   -2.0208   26.2467   13.2384 C   0  0  0  0  0  0
   -1.7328   24.9022   13.5397 C   0  0  0  0  0  0
   -2.1441   24.3620   14.8589 N   0  3  0  0  0  0
   -1.4823   23.4690   15.3768 O   0  5  0  0  0  0
   -3.1267   24.8548   15.4059 O   0  0  0  0  0  0
   -2.0011   28.1554   11.7762 N   0  0  0  0  0  0
   -1.5166   29.0738   10.8378 C   0  0  0  0  0  0
   -2.3369   30.1179   10.5745 N   0  0  0  0  0  0
   -1.9026   31.0150    9.6563 C   0  0  0  0  0  0
   -0.6722   30.8842    9.0096 C   0  0  0  0  0  0
    0.1380   29.7901    9.3539 C   0  0  0  0  0  0
   -0.2954   28.8806   10.2706 N   0  0  0  0  0  0
    1.5011   29.5208    8.7448 C   0  0  0  0  0  0
    2.4361   28.4894    9.0971 C   0  0  0  0  0  0
    3.5023   28.5798    8.2064 C   0  0  0  0  0  0
    3.2585   29.6255    7.3769 N   0  0  0  0  0  0
    2.0796   30.2333    7.6774 C   0  0  0  0  0  0
    1.6651   31.3942    6.8115 C   0  0  0  0  0  0
    4.7002   27.7827    8.0076 C   0  0  0  0  0  0
    5.6536   27.1483    7.8383 N   0  0  0  0  0  0
    2.3331   27.4590   10.2058 C   0  0  0  0  0  0
    3.8950   29.9543    6.6577 H   0  0  0  0  0  0
   -1.6335   22.1090   13.1566 H   0  0  0  0  0  0
   -0.4785   22.1373   11.8429 H   0  0  0  0  0  0
    0.0502   22.5124   13.4904 H   0  0  0  0  0  0
   -0.2402   24.1002   10.5775 H   0  0  0  0  0  0
   -0.8072   26.4059   10.0766 H   0  0  0  0  0  0
   -2.5237   26.8679   13.9675 H   0  0  0  0  0  0
   -2.7850   28.5076   12.3127 H   0  0  0  0  0  0
   -2.5645   31.8436    9.4456 H   0  0  0  0  0  0
   -0.3904   31.6218    8.2860 H   0  0  0  0  0  0
    1.3590   32.2710    7.3751 H   0  0  0  0  0  0
    2.4573   31.7269    6.1381 H   0  0  0  0  0  0
    0.8589   31.0547    6.1763 H   0  0  0  0  0  0
    1.4741   26.8052   10.0589 H   0  0  0  0  0  0
    2.1841   27.9303   11.1782 H   0  0  0  0  0  0
    3.2203   26.8256   10.2887 H   0  0  0  0  0  0
  1  2  1  0  0  0
  1 28  1  0  0  0
  1 29  1  0  0  0
  1 30  1  0  0  0
  2  7  1  0  0  0
  2  3  2  0  0  0
  3  4  1  0  0  0
  3 31  1  0  0  0
  4  5  2  0  0  0
  4 32  1  0  0  0
  5  6  1  0  0  0
  5 11  1  0  0  0
  6  7  2  0  0  0
  6 33  1  0  0  0
  7  8  1  0  0  0
  8  9  1  0  0  0
  8 10  2  0  0  0
 11 12  1  0  0  0
 11 34  1  0  0  0
 12 17  1  0  0  0
 12 13  2  0  0  0
 13 14  1  0  0  0
 14 15  2  0  0  0
 14 35  1  0  0  0
 15 16  1  0  0  0
 15 36  1  0  0  0
 16 17  2  0  0  0
 16 18  1  0  0  0
 18 22  2  0  0  0
 18 19  1  0  0  0
 19 20  2  0  0  0
 19 26  1  0  0  0
 20 21  1  0  0  0
 20 24  1  0  0  0
 21 27  1  0  0  0
 21 22  1  0  0  0
 22 23  1  0  0  0
 23 37  1  0  0  0
 23 38  1  0  0  0
 23 39  1  0  0  0
 24 25  3  0  0  0
 26 40  1  0  0  0
 26 41  1  0  0  0
 26 42  1  0  0  0
M  CHG  2   8   1   9  -1
M  END
> <s_m_entry_id>
34666

> <s_m_entry_name>
ligand_docking-pose.163

> <s_m_Source_Path>
/home/csk/Desktop/cluster/DUD-E-result/cdk2

> <s_m_Source_File>
ligand_docking-pose.sdf

> <i_m_Source_File_Index>
163

> <i_lp_mmshare_version>
53161

> <r_lp_tautomer_probability>
0.999999987636

> <s_lp_Force_Field>
OPLS_2005

> <r_lp_Energy>
11.450625

> <b_lp_Chiralities_Consistent>
1

> <s_lp_Variant>
307195-1

> <s_i_glide_gridfile>
glide-grid_1h00

> <i_i_glide_lignum>
737

> <i_i_glide_rotatable_bonds>
4

> <r_i_docking_score>
-7.87635860419104

> <r_i_glide_ligand_efficiency>
-0.302936869391963

> <r_i_glide_ligand_efficiency_sa>
-0.897449283574669

> <r_i_glide_ligand_efficiency_ln>
-1.84973697375372

> <r_i_glide_gscore>
-7.87635860419104

> <r_i_glide_lipo>
-2.73014812701434

> <r_i_glide_hbond>
-0.301685259998356

> <r_i_glide_metal>
0

> <r_i_glide_rewards>
-2.36280605398982

> <r_i_glide_evdw>
-41.0570602416992

> <r_i_glide_ecoul>
-5.08072090148926

> <r_i_glide_erotb>
0.470581889876322

> <r_i_glide_esite>
-0.137339905756491

> <r_i_glide_emodel>
-67.7419857886441

> <r_i_glide_energy>
-46.1377811431885

> <r_i_glide_einternal>
1.96386778354645

> <i_i_glide_confnum>
7

> <i_i_glide_posenum>
116

> <r_i_glide_eff_state_penalty>
0

> <i_f3d_flags>
0

> <s_user_duplicate_titles>
307195

> <s_m_subgroup_title>
dock_pv

> <s_m_subgroupid>
dock_pv1

> <b_m_subgroup_collapsed>
0

$$$$
310933
                    3D
 Schrodinger Suite 2021-1.
 53 57  0  0  1  0            999 V2000
    7.0494   25.3616    5.7547 C   0  0  0  0  0  0
    6.2497   25.5161    6.9234 O   0  0  0  0  0  0
    5.3486   26.5598    6.9865 C   0  0  0  0  0  0
    5.1111   27.4712    5.9523 C   0  0  0  0  0  0
    4.1967   28.5059    6.1276 C   0  0  0  0  0  0
    3.5053   28.6465    7.3381 C   0  0  0  0  0  0
    3.7428   27.7413    8.3692 C   0  0  0  0  0  0
    4.6407   26.6968    8.1753 C   0  0  0  0  0  0
    2.4585   29.6916    7.4915 C   0  0  0  0  0  0
    1.3266   29.8558    8.2823 C   0  0  0  0  0  0
    0.8070   31.0853    7.9188 C   0  0  0  0  0  0
    1.4817   31.6845    6.9761 N   0  0  0  0  0  0
    2.4567   30.8209    6.7335 N   0  0  0  0  0  0
   -0.3419   31.4212    8.7290 C   0  0  0  0  0  0
   -1.1212   32.5705    8.7728 C   0  0  0  0  0  0
   -2.1356   32.6510    9.7101 C   0  0  0  0  0  0
   -2.3672   31.5940   10.5758 C   0  0  0  0  0  0
   -1.5731   30.4429   10.5618 C   0  0  0  0  0  0
   -0.5335   30.3488    9.6079 C   0  0  0  0  0  0
    0.4810   29.2769    9.3069 C   0  0  0  0  0  0
    0.5892   28.1532    9.7939 O   0  0  0  0  0  0
   -1.9311   29.4817   11.5184 N   0  0  0  0  0  0
   -1.1042   28.6644   12.1861 C   0  0  0  0  0  0
    0.0556   28.9579   12.4949 O   0  0  0  0  0  0
   -1.7037   27.4851   12.4282 N   0  0  0  0  0  0
   -0.8605   26.3866   12.5858 N   0  0  0  0  0  0
   -1.0993   25.3297   11.7780 C   0  0  0  0  0  0
   -1.9419   25.3056   10.8744 O   0  0  0  0  0  0
   -0.2608   24.1099   12.0515 C   0  0  0  0  0  0
    1.1281   24.2071   12.1759 C   0  0  0  0  0  0
    1.8788   23.0637   12.4431 C   0  0  0  0  0  0
    1.2584   21.8257   12.5655 C   0  0  0  0  0  0
   -0.1208   21.7160   12.4286 C   0  0  0  0  0  0
   -0.8737   22.8579   12.1761 C   0  0  0  0  0  0
    3.2223   31.0525    6.1095 H   0  0  0  0  0  0
    7.7152   24.5079    5.8858 H   0  0  0  0  0  0
    6.4361   25.1680    4.8739 H   0  0  0  0  0  0
    7.6703   26.2407    5.5732 H   0  0  0  0  0  0
    5.6366   27.4032    5.0120 H   0  0  0  0  0  0
    4.0253   29.1857    5.3076 H   0  0  0  0  0  0
    3.2161   27.8176    9.3100 H   0  0  0  0  0  0
    4.7969   25.9878    8.9724 H   0  0  0  0  0  0
   -0.9265   33.4041    8.1137 H   0  0  0  0  0  0
   -2.7377   33.5395    9.7811 H   0  0  0  0  0  0
   -3.1459   31.7272   11.3046 H   0  0  0  0  0  0
   -2.8497   29.6048   11.9286 H   0  0  0  0  0  0
   -2.4575   27.4507   13.1013 H   0  0  0  0  0  0
   -0.5475   26.2743   13.5404 H   0  0  0  0  0  0
    1.6295   25.1619   12.0795 H   0  0  0  0  0  0
    2.9408   23.1537   12.5762 H   0  0  0  0  0  0
    1.8440   20.9444   12.7781 H   0  0  0  0  0  0
   -0.6022   20.7526   12.5287 H   0  0  0  0  0  0
   -1.9408   22.7652   12.0977 H   0  0  0  0  0  0
  1  2  1  0  0  0
  1 36  1  0  0  0
  1 37  1  0  0  0
  1 38  1  0  0  0
  2  3  1  0  0  0
  3  8  1  0  0  0
  3  4  2  0  0  0
  4  5  1  0  0  0
  4 39  1  0  0  0
  5  6  2  0  0  0
  5 40  1  0  0  0
  6  7  1  0  0  0
  6  9  1  0  0  0
  7  8  2  0  0  0
  7 41  1  0  0  0
  8 42  1  0  0  0
  9 13  1  0  0  0
  9 10  2  0  0  0
 10 20  1  0  0  0
 10 11  1  0  0  0
 11 12  2  0  0  0
 11 14  1  0  0  0
 12 13  1  0  0  0
 13 35  1  0  0  0
 14 19  2  0  0  0
 14 15  1  0  0  0
 15 16  2  0  0  0
 15 43  1  0  0  0
 16 17  1  0  0  0
 16 44  1  0  0  0
 17 18  2  0  0  0
 17 45  1  0  0  0
 18 19  1  0  0  0
 18 22  1  0  0  0
 19 20  1  0  0  0
 20 21  2  0  0  0
 22 23  1  0  0  0
 22 46  1  0  0  0
 23 24  2  0  0  0
 23 25  1  0  0  0
 25 26  1  0  0  0
 25 47  1  0  0  0
 26 27  1  0  0  0
 26 48  1  0  0  0
 27 28  2  0  0  0
 27 29  1  0  0  0
 29 34  1  0  0  0
 29 30  2  0  0  0
 30 31  1  0  0  0
 30 49  1  0  0  0
 31 32  2  0  0  0
 31 50  1  0  0  0
 32 33  1  0  0  0
 32 51  1  0  0  0
 33 34  2  0  0  0
 33 52  1  0  0  0
 34 53  1  0  0  0
M  END
> <s_m_entry_id>
34667

> <s_m_entry_name>
ligand_docking-pose.164

> <s_m_Source_Path>
/home/csk/Desktop/cluster/DUD-E-result/cdk2

> <s_m_Source_File>
ligand_docking-pose.sdf

> <i_m_Source_File_Index>
164

> <i_lp_mmshare_version>
53161

> <r_lp_tautomer_probability>
1

> <s_lp_Force_Field>
OPLS_2005

> <r_lp_Energy>
68.245873

> <b_lp_Chiralities_Consistent>
1

> <s_lp_Variant>
310933-1

> <s_i_glide_gridfile>
glide-grid_1h00

> <i_i_glide_lignum>
1642

> <i_i_glide_rotatable_bonds>
8

> <r_i_docking_score>
-7.87493992102702

> <r_i_glide_ligand_efficiency>
-0.231615880030207

> <r_i_glide_ligand_efficiency_sa>
-0.750345537427131

> <r_i_glide_ligand_efficiency_ln>
-1.73979511313779

> <r_i_glide_gscore>
-7.87493992102702

> <r_i_glide_lipo>
-2.9232395690942

> <r_i_glide_hbond>
-0.421268906075333

> <r_i_glide_metal>
0

> <r_i_glide_rewards>
-1.69389135613301

> <r_i_glide_evdw>
-40.2677040100098

> <r_i_glide_ecoul>
-9.05771160125732

> <r_i_glide_erotb>
0.585747545829189

> <r_i_glide_esite>
-0.0502456948645711

> <r_i_glide_emodel>
-65.5589304550067

> <r_i_glide_energy>
-49.3254156112671

> <r_i_glide_einternal>
19.3370990753174

> <i_i_glide_confnum>
10

> <i_i_glide_posenum>
282

> <r_i_glide_eff_state_penalty>
0

> <i_f3d_flags>
0

> <s_user_duplicate_titles>
310933

> <s_m_subgroup_title>
dock_pv

> <s_m_subgroupid>
dock_pv1

> <b_m_subgroup_collapsed>
0

$$$$
301107
                    3D
 Schrodinger Suite 2021-1.
 34 37  0  0  1  0            999 V2000
    1.6065   25.4521   11.7743 C   0  0  0  0  0  0
    1.2577   26.7134   11.2947 C   0  0  0  0  0  0
   -0.0071   26.9628   10.7635 C   0  0  0  0  0  0
   -0.9584   25.9307   10.7788 C   0  0  0  0  0  0
   -0.6215   24.6840   11.3082 C   0  0  0  0  0  0
    0.6628   24.4328   11.7837 C   0  0  0  0  0  0
   -1.5399   23.7075   11.3767 F   0  0  0  0  0  0
   -0.3139   28.2438   10.2434 N   0  0  0  0  0  0
    0.4636   29.0959    9.4800 C   0  0  0  0  0  0
   -0.3430   30.2052    9.2097 C   0  0  0  0  0  0
   -1.5747   29.9228    9.8297 C   0  0  0  0  0  0
   -1.5404   28.7582   10.4441 N   0  0  0  0  0  0
   -2.7450   30.7591    9.7729 C   0  0  0  0  0  0
   -3.8327   30.3476    9.3761 O   0  0  0  0  0  0
   -2.5535   32.0153   10.1766 N   0  0  0  0  0  0
    0.1216   31.3796    8.3354 C   0  0  0  0  0  0
    1.2966   31.0175    7.3760 C   0  0  0  0  0  0
    2.1878   29.9430    7.9810 C   0  0  0  0  0  0
    1.8377   29.0332    8.9620 C   0  0  0  0  0  0
    2.9934   28.2302    9.0803 C   0  0  0  0  0  0
    4.0148   28.6863    8.3942 N   0  0  0  0  0  0
    3.5255   29.7617    7.7756 N   0  0  0  0  0  0
    4.0891   30.3274    7.1465 H   0  0  0  0  0  0
    2.5980   25.2923   12.1731 H   0  0  0  0  0  0
    1.9754   27.5146   11.3763 H   0  0  0  0  0  0
   -1.9571   26.0939   10.4004 H   0  0  0  0  0  0
    0.9124   23.4617   12.1843 H   0  0  0  0  0  0
   -1.6559   32.3046   10.5301 H   0  0  0  0  0  0
   -3.3360   32.6529   10.1888 H   0  0  0  0  0  0
    0.4553   32.2003    8.9678 H   0  0  0  0  0  0
   -0.7118   31.7993    7.7762 H   0  0  0  0  0  0
    1.8632   31.9125    7.1180 H   0  0  0  0  0  0
    0.8851   30.6532    6.4386 H   0  0  0  0  0  0
    3.1308   27.3323    9.6600 H   0  0  0  0  0  0
  1  6  1  0  0  0
  1  2  2  0  0  0
  1 24  1  0  0  0
  2  3  1  0  0  0
  2 25  1  0  0  0
  3  4  2  0  0  0
  3  8  1  0  0  0
  4  5  1  0  0  0
  4 26  1  0  0  0
  5  6  2  0  0  0
  5  7  1  0  0  0
  6 27  1  0  0  0
  8 12  1  0  0  0
  8  9  1  0  0  0
  9 10  2  0  0  0
  9 19  1  0  0  0
 10 11  1  0  0  0
 10 16  1  0  0  0
 11 12  2  0  0  0
 11 13  1  0  0  0
 13 14  2  0  0  0
 13 15  1  0  0  0
 15 28  1  0  0  0
 15 29  1  0  0  0
 16 17  1  0  0  0
 16 30  1  0  0  0
 16 31  1  0  0  0
 17 32  1  0  0  0
 17 33  1  0  0  0
 17 18  1  0  0  0
 18 22  1  0  0  0
 18 19  2  0  0  0
 19 20  1  0  0  0
 20 34  1  0  0  0
 20 21  2  0  0  0
 21 22  1  0  0  0
 22 23  1  0  0  0
M  END
> <s_m_entry_id>
34668

> <s_m_entry_name>
ligand_docking-pose.165

> <s_m_Source_Path>
/home/csk/Desktop/cluster/DUD-E-result/cdk2

> <s_m_Source_File>
ligand_docking-pose.sdf

> <i_m_Source_File_Index>
165

> <i_lp_mmshare_version>
53161

> <r_lp_tautomer_probability>
0.5

> <s_lp_Force_Field>
OPLS_2005

> <r_lp_Energy>
23.395944

> <b_lp_Chiralities_Consistent>
1

> <s_lp_Variant>
301107-2

> <s_i_glide_gridfile>
glide-grid_1h00

> <i_i_glide_lignum>
385

> <i_i_glide_rotatable_bonds>
2

> <r_i_docking_score>
-7.86664958879119

> <r_i_glide_ligand_efficiency>
-0.35757498130869

> <r_i_glide_ligand_efficiency_sa>
-1.00193916025297

> <r_i_glide_ligand_efficiency_ln>
-1.92289610251624

> <r_i_glide_gscore>
-7.86664958879119

> <r_i_glide_lipo>
-2.47797385686869

> <r_i_glide_hbond>
-0.32

> <r_i_glide_metal>
0

> <r_i_glide_rewards>
-2.81443799344738

> <r_i_glide_evdw>
-30.5268383026123

> <r_i_glide_ecoul>
-6.22990703582764

> <r_i_glide_erotb>
0.207436702266233

> <r_i_glide_esite>
-0.000846470236591758

> <r_i_glide_emodel>
-53.9630203055068

> <r_i_glide_energy>
-36.7567453384399

> <r_i_glide_einternal>
2.60869574546814

> <i_i_glide_confnum>
8

> <i_i_glide_posenum>
229

> <r_i_glide_eff_state_penalty>
0

> <i_f3d_flags>
0

> <s_user_duplicate_titles>
301107

> <s_m_subgroup_title>
dock_pv

> <s_m_subgroupid>
dock_pv1

> <b_m_subgroup_collapsed>
0

$$$$
574805
                    3D
 Schrodinger Suite 2021-1.
 54 57  0  0  1  0            999 V2000
   -0.5069   32.2125    8.5954 C   0  0  0  0  0  0
   -0.8054   30.9589    9.4074 C   0  0  0  0  0  0
   -2.0005   30.9037   10.1320 C   0  0  0  0  0  0
   -2.3421   29.8454   10.9007 N   0  0  0  0  0  0
   -1.4661   28.8220   10.9626 C   0  0  0  0  0  0
   -0.2858   28.7740   10.2954 N   0  0  0  0  0  0
    0.0480   29.8338    9.5050 C   0  0  0  0  0  0
    1.3565   29.6320    8.7892 C   0  0  0  0  0  0
    2.2891   28.5786    8.9761 C   0  0  0  0  0  0
    3.3184   28.6775    8.0388 C   0  0  0  0  0  0
    3.0934   29.8491    7.3760 N   0  0  0  0  0  0
    1.9158   30.4055    7.7759 C   0  0  0  0  0  0
    4.4380   27.8401    7.7151 C   0  0  0  0  0  0
    5.3185   28.2548    6.9745 O   0  0  0  0  0  0
    4.3862   26.5807    8.1760 N   0  0  0  0  0  0
    5.2592   25.4594    7.7743 C   0  0  2  0  0  0
    6.7879   25.7296    7.7542 C   0  0  0  0  0  0
    7.2581   26.2519    8.9760 O   0  0  0  0  0  0
    4.8168   24.7716    6.4821 C   0  0  0  0  0  0
    4.8174   25.4625    5.2642 C   0  0  0  0  0  0
    4.4356   24.8206    4.0885 C   0  0  0  0  0  0
    4.0579   23.4802    4.1124 C   0  0  0  0  0  0
    4.0614   22.7782    5.3171 C   0  0  0  0  0  0
    4.4568   23.4177    6.4937 C   0  0  0  0  0  0
    3.5761   21.1219    5.3520 Cl  0  0  0  0  0  0
   -1.8307   27.7895   11.8330 N   0  0  0  0  0  0
   -1.3117   26.5043   12.0472 C   0  0  0  0  0  0
   -1.5763   25.8957   13.2763 C   0  0  0  0  0  0
   -1.0967   24.6157   13.5431 C   0  0  0  0  0  0
   -0.3580   23.9396   12.5735 C   0  0  0  0  0  0
   -0.0969   24.5327   11.3400 C   0  0  0  0  0  0
   -0.5771   25.8122   11.0754 C   0  0  0  0  0  0
    3.7121   30.2341    6.6670 H   0  0  0  0  0  0
    5.1009   24.7394    8.5759 H   0  0  0  0  0  0
   -1.3308   32.9288    8.6278 H   0  0  0  0  0  0
    0.3817   32.7211    8.9685 H   0  0  0  0  0  0
   -0.3424   31.9657    7.5515 H   0  0  0  0  0  0
   -2.7062   31.7211   10.1183 H   0  0  0  0  0  0
    2.1785   27.7804    9.6975 H   0  0  0  0  0  0
    1.6067   31.3186    7.2977 H   0  0  0  0  0  0
    3.6289   26.3514    8.8008 H   0  0  0  0  0  0
    7.3287   24.8041    7.5456 H   0  0  0  0  0  0
    7.0593   26.4198    6.9544 H   0  0  0  0  0  0
    6.5285   26.2494    9.6221 H   0  0  0  0  0  0
    5.1169   26.4975    5.2160 H   0  0  0  0  0  0
    4.4377   25.3598    3.1520 H   0  0  0  0  0  0
    3.7575   22.9969    3.1933 H   0  0  0  0  0  0
    4.4552   22.8570    7.4160 H   0  0  0  0  0  0
   -2.6275   28.0301   12.4083 H   0  0  0  0  0  0
   -2.1536   26.4177   14.0272 H   0  0  0  0  0  0
   -1.2996   24.1463   14.4939 H   0  0  0  0  0  0
    0.0114   22.9447   12.7775 H   0  0  0  0  0  0
    0.4695   24.0037   10.5885 H   0  0  0  0  0  0
   -0.3837   26.2500   10.1081 H   0  0  0  0  0  0
  1  2  1  0  0  0
  1 35  1  0  0  0
  1 36  1  0  0  0
  1 37  1  0  0  0
  2  7  1  0  0  0
  2  3  2  0  0  0
  3  4  1  0  0  0
  3 38  1  0  0  0
  4  5  2  0  0  0
  5  6  1  0  0  0
  5 26  1  0  0  0
  6  7  2  0  0  0
  7  8  1  0  0  0
  8 12  2  0  0  0
  8  9  1  0  0  0
  9 10  2  0  0  0
  9 39  1  0  0  0
 10 11  1  0  0  0
 10 13  1  0  0  0
 11 33  1  0  0  0
 11 12  1  0  0  0
 12 40  1  0  0  0
 13 14  2  0  0  0
 13 15  1  0  0  0
 15 16  1  0  0  0
 15 41  1  0  0  0
 16 34  1  0  0  0
 16 17  1  0  0  0
 16 19  1  0  0  0
 17 18  1  0  0  0
 17 42  1  0  0  0
 17 43  1  0  0  0
 18 44  1  0  0  0
 19 24  1  0  0  0
 19 20  2  0  0  0
 20 21  1  0  0  0
 20 45  1  0  0  0
 21 22  2  0  0  0
 21 46  1  0  0  0
 22 23  1  0  0  0
 22 47  1  0  0  0
 23 24  2  0  0  0
 23 25  1  0  0  0
 24 48  1  0  0  0
 26 27  1  0  0  0
 26 49  1  0  0  0
 27 32  1  0  0  0
 27 28  2  0  0  0
 28 29  1  0  0  0
 28 50  1  0  0  0
 29 30  2  0  0  0
 29 51  1  0  0  0
 30 31  1  0  0  0
 30 52  1  0  0  0
 31 32  2  0  0  0
 31 53  1  0  0  0
 32 54  1  0  0  0
M  END
> <s_m_entry_id>
34670

> <s_m_entry_name>
ligand_docking-pose.167

> <s_m_Source_Path>
/home/csk/Desktop/cluster/DUD-E-result/cdk2

> <s_m_Source_File>
ligand_docking-pose.sdf

> <i_m_Source_File_Index>
167

> <i_lp_mmshare_version>
53161

> <r_lp_tautomer_probability>
0.999999987636

> <s_lp_Force_Field>
OPLS_2005

> <r_lp_Energy>
10.214079

> <b_lp_Chiralities_Consistent>
1

> <s_lp_Variant>
574805-1

> <s_i_glide_gridfile>
glide-grid_1h00

> <i_i_glide_lignum>
802

> <i_i_glide_rotatable_bonds>
9

> <r_i_docking_score>
-7.86037206473068

> <r_i_glide_ligand_efficiency>
-0.245636627022834

> <r_i_glide_ligand_efficiency_sa>
-0.779847679375018

> <r_i_glide_ligand_efficiency_ln>
-1.76015157094327

> <r_i_glide_gscore>
-7.86037206473068

> <r_i_glide_lipo>
-3.02815871477748

> <r_i_glide_hbond>
-0.291507153625446

> <r_i_glide_metal>
0

> <r_i_glide_rewards>
-1.79757161263819

> <r_i_glide_evdw>
-41.3984260559082

> <r_i_glide_ecoul>
-9.14675331115723

> <r_i_glide_erotb>
0.698799715779426

> <r_i_glide_esite>
0

> <r_i_glide_emodel>
-69.7170886769757

> <r_i_glide_energy>
-50.5451793670654

> <r_i_glide_einternal>
10.0909624099731

> <i_i_glide_confnum>
24

> <i_i_glide_posenum>
383

> <r_i_glide_eff_state_penalty>
0

> <i_f3d_flags>
0

> <s_user_duplicate_titles>
574805

> <s_m_subgroup_title>
dock_pv

> <s_m_subgroupid>
dock_pv1

> <b_m_subgroup_collapsed>
0

$$$$
301074
                    3D
 Schrodinger Suite 2021-1.
 37 40  0  0  1  0            999 V2000
   -0.4504   26.9380   12.2384 C   0  0  0  0  0  0
   -0.3436   25.6801   12.8298 C   0  0  0  0  0  0
    0.3392   24.6561   12.1689 C   0  0  0  0  0  0
    0.9320   24.8967   10.9301 C   0  0  0  0  0  0
    0.8284   26.1541   10.3452 C   0  0  0  0  0  0
    0.1177   27.1777   10.9782 C   0  0  0  0  0  0
   -0.0508   28.4366   10.3405 N   0  0  0  0  0  0
    0.7317   29.1409    9.4309 C   0  0  0  0  0  0
   -0.0585   30.1962    8.9252 C   0  0  0  0  0  0
    0.4570   31.0177    7.9012 C   0  0  0  0  0  0
    1.7384   30.8191    7.3758 C   0  0  0  0  0  0
    2.5355   29.8347    7.9628 C   0  0  0  0  0  0
    2.0652   28.9824    8.9762 C   0  0  0  0  0  0
    3.1649   28.1336    9.3103 C   0  0  0  0  0  0
    4.2061   28.4284    8.5721 N   0  0  0  0  0  0
    3.8453   29.4516    7.7707 N   0  0  0  0  0  0
   -1.2869   30.1197    9.6704 C   0  0  0  0  0  0
   -1.2480   29.0585   10.4482 N   0  0  0  0  0  0
   -2.4526   30.9630    9.6131 C   0  0  0  0  0  0
   -3.5933   30.5347    9.7626 O   0  0  0  0  0  0
   -2.2020   32.2524    9.3935 N   0  0  0  0  0  0
    0.4807   23.0278   12.9022 S   0  0  0  0  0  0
    1.8236   22.5349   12.5749 O   0  0  0  0  0  0
    0.0175   23.1079   14.2916 O   0  0  0  0  0  0
   -0.6559   22.0281   12.0368 N   0  0  0  0  0  0
    4.5049   29.8707    7.1260 H   0  0  0  0  0  0
   -0.9942   27.7163   12.7555 H   0  0  0  0  0  0
   -0.7979   25.5066   13.7941 H   0  0  0  0  0  0
    1.4657   24.1121   10.4128 H   0  0  0  0  0  0
    1.2757   26.3078    9.3772 H   0  0  0  0  0  0
   -0.1436   31.8178    7.4988 H   0  0  0  0  0  0
    2.1197   31.4526    6.5896 H   0  0  0  0  0  0
    3.2343   27.3640   10.0661 H   0  0  0  0  0  0
   -1.2523   32.5840    9.3320 H   0  0  0  0  0  0
   -2.9734   32.9031    9.3772 H   0  0  0  0  0  0
   -0.2484   21.1372   11.7418 H   0  0  0  0  0  0
   -1.5097   21.8724   12.5767 H   0  0  0  0  0  0
  1  6  1  0  0  0
  1  2  2  0  0  0
  1 27  1  0  0  0
  2  3  1  0  0  0
  2 28  1  0  0  0
  3  4  2  0  0  0
  3 22  1  0  0  0
  4  5  1  0  0  0
  4 29  1  0  0  0
  5  6  2  0  0  0
  5 30  1  0  0  0
  6  7  1  0  0  0
  7 18  1  0  0  0
  7  8  1  0  0  0
  8 13  2  0  0  0
  8  9  1  0  0  0
  9 10  2  0  0  0
  9 17  1  0  0  0
 10 11  1  0  0  0
 10 31  1  0  0  0
 11 12  2  0  0  0
 11 32  1  0  0  0
 12 16  1  0  0  0
 12 13  1  0  0  0
 13 14  1  0  0  0
 14 15  2  0  0  0
 14 33  1  0  0  0
 15 16  1  0  0  0
 16 26  1  0  0  0
 17 18  2  0  0  0
 17 19  1  0  0  0
 19 20  2  0  0  0
 19 21  1  0  0  0
 21 34  1  0  0  0
 21 35  1  0  0  0
 22 23  2  0  0  0
 22 24  2  0  0  0
 22 25  1  0  0  0
 25 36  1  0  0  0
 25 37  1  0  0  0
M  END
> <s_m_entry_id>
34674

> <s_m_entry_name>
ligand_docking-pose.171

> <s_m_Source_Path>
/home/csk/Desktop/cluster/DUD-E-result/cdk2

> <s_m_Source_File>
ligand_docking-pose.sdf

> <i_m_Source_File_Index>
171

> <i_lp_mmshare_version>
53161

> <r_lp_tautomer_probability>
1

> <s_lp_Force_Field>
OPLS_2005

> <r_lp_Energy>
67.220309

> <b_lp_Chiralities_Consistent>
1

> <s_lp_Variant>
301074-1

> <s_i_glide_gridfile>
glide-grid_1h00

> <i_i_glide_lignum>
396

> <i_i_glide_rotatable_bonds>
3

> <r_i_docking_score>
-7.84181378744907

> <r_i_glide_ligand_efficiency>
-0.313672551497963

> <r_i_glide_ligand_efficiency_sa>
-0.917184103586431

> <r_i_glide_ligand_efficiency_ln>
-1.85874486782129

> <r_i_glide_gscore>
-7.84181378744907

> <r_i_glide_lipo>
-2.37825900058188

> <r_i_glide_hbond>
-0.256324456338688

> <r_i_glide_metal>
0

> <r_i_glide_rewards>
-2.23912677420957

> <r_i_glide_evdw>
-42.2790222167969

> <r_i_glide_ecoul>
-6.46227407455444

> <r_i_glide_erotb>
0.150650012477676

> <r_i_glide_esite>
-0.0354613467736019

> <r_i_glide_emodel>
-69.8522255885818

> <r_i_glide_energy>
-48.7412962913513

> <r_i_glide_einternal>
4.14235687255859

> <i_i_glide_confnum>
2

> <i_i_glide_posenum>
277

> <r_i_glide_eff_state_penalty>
0

> <i_f3d_flags>
0

> <s_user_duplicate_titles>
301074

> <s_m_subgroup_title>
dock_pv

> <s_m_subgroupid>
dock_pv1

> <b_m_subgroup_collapsed>
0

$$$$
307217
                    3D
 Schrodinger Suite 2021-1.
 40 42  0  0  1  0            999 V2000
    0.9512   27.5601   10.6970 C   0  0  0  0  0  0
   -0.4003   28.2492   10.7526 C   0  0  0  0  0  0
   -0.7865   29.4597   10.0903 C   0  0  0  0  0  0
   -2.0970   29.7428   10.4967 C   0  0  0  0  0  0
   -2.4664   28.7687   11.3761 N   0  0  0  0  0  0
   -1.4790   27.8395   11.5505 C   0  0  0  0  0  0
   -1.6520   26.6237   12.3171 C   0  0  0  0  0  0
   -1.0176   25.5997   12.0806 O   0  0  0  0  0  0
   -2.5818   26.6522   13.2735 N   0  0  0  0  0  0
   -3.0920   30.8316   10.1469 C   0  0  0  0  0  0
    0.0117   30.2808    9.1026 C   0  0  0  0  0  0
   -0.3431   31.5887    8.7218 C   0  0  0  0  0  0
    0.4563   32.2348    7.7761 C   0  0  0  0  0  0
    1.5078   31.6269    7.1876 N   0  0  0  0  0  0
    1.7942   30.3745    7.6126 C   0  0  0  0  0  0
    1.1176   29.6875    8.5748 N   0  0  0  0  0  0
    2.8580   29.8102    6.9164 N   0  0  0  0  0  0
    3.6425   28.6522    7.0228 C   0  0  0  0  0  0
    4.3945   28.2915    5.9006 C   0  0  0  0  0  0
    5.1746   27.1385    5.9142 C   0  0  0  0  0  0
    5.1951   26.3396    7.0515 C   0  0  0  0  0  0
    4.4565   26.6972    8.1742 C   0  0  0  0  0  0
    3.7001   27.8674    8.1760 C   0  0  0  0  0  0
    5.9317   25.2048    7.0661 F   0  0  0  0  0  0
   -3.3549   28.7547   11.8578 H   0  0  0  0  0  0
    1.7591   28.2845   10.7560 H   0  0  0  0  0  0
    1.0890   27.0003    9.7737 H   0  0  0  0  0  0
    1.1320   26.8888   11.5356 H   0  0  0  0  0  0
   -2.7849   25.7991   13.7682 H   0  0  0  0  0  0
   -3.0043   27.5278   13.5787 H   0  0  0  0  0  0
   -3.1552   30.9993    9.0714 H   0  0  0  0  0  0
   -4.1030   30.5999   10.4777 H   0  0  0  0  0  0
   -2.8336   31.7791   10.6203 H   0  0  0  0  0  0
   -1.1739   32.1195    9.1509 H   0  0  0  0  0  0
    0.2393   33.2460    7.4604 H   0  0  0  0  0  0
    3.3100   30.4940    6.3167 H   0  0  0  0  0  0
    4.3775   28.9057    5.0118 H   0  0  0  0  0  0
    5.7592   26.8657    5.0478 H   0  0  0  0  0  0
    4.4577   26.0363    9.0160 H   0  0  0  0  0  0
    3.1488   28.1398    9.0585 H   0  0  0  0  0  0
  1  2  1  0  0  0
  1 26  1  0  0  0
  1 27  1  0  0  0
  1 28  1  0  0  0
  2  6  2  0  0  0
  2  3  1  0  0  0
  3  4  2  0  0  0
  3 11  1  0  0  0
  4  5  1  0  0  0
  4 10  1  0  0  0
  5 25  1  0  0  0
  5  6  1  0  0  0
  6  7  1  0  0  0
  7  8  2  0  0  0
  7  9  1  0  0  0
  9 29  1  0  0  0
  9 30  1  0  0  0
 10 31  1  0  0  0
 10 32  1  0  0  0
 10 33  1  0  0  0
 11 16  1  0  0  0
 11 12  2  0  0  0
 12 13  1  0  0  0
 12 34  1  0  0  0
 13 14  2  0  0  0
 13 35  1  0  0  0
 14 15  1  0  0  0
 15 16  2  0  0  0
 15 17  1  0  0  0
 17 18  1  0  0  0
 17 36  1  0  0  0
 18 23  1  0  0  0
 18 19  2  0  0  0
 19 20  1  0  0  0
 19 37  1  0  0  0
 20 21  2  0  0  0
 20 38  1  0  0  0
 21 22  1  0  0  0
 21 24  1  0  0  0
 22 23  2  0  0  0
 22 39  1  0  0  0
 23 40  1  0  0  0
M  END
> <s_m_entry_id>
34675

> <s_m_entry_name>
ligand_docking-pose.172

> <s_m_Source_Path>
/home/csk/Desktop/cluster/DUD-E-result/cdk2

> <s_m_Source_File>
ligand_docking-pose.sdf

> <i_m_Source_File_Index>
172

> <i_lp_mmshare_version>
53161

> <r_lp_tautomer_probability>
0.999999987636

> <s_lp_Force_Field>
OPLS_2005

> <r_lp_Energy>
7.453535

> <b_lp_Chiralities_Consistent>
1

> <s_lp_Variant>
307217-1

> <s_i_glide_gridfile>
glide-grid_1h00

> <i_i_glide_lignum>
773

> <i_i_glide_rotatable_bonds>
4

> <r_i_docking_score>
-7.84149660564118

> <r_i_glide_ligand_efficiency>
-0.326729025235049

> <r_i_glide_ligand_efficiency_sa>
-0.942449591506031

> <r_i_glide_ligand_efficiency_ln>
-1.8768299605628

> <r_i_glide_gscore>
-7.84149660564118

> <r_i_glide_lipo>
-2.06365427290701

> <r_i_glide_hbond>
-0.441456803765146

> <r_i_glide_metal>
0

> <r_i_glide_rewards>
-2.77379819664486

> <r_i_glide_evdw>
-33.4922637939453

> <r_i_glide_ecoul>
-8.7094612121582

> <r_i_glide_erotb>
0.531144975507091

> <r_i_glide_esite>
-0.11269993631025

> <r_i_glide_emodel>
-62.3393639144143

> <r_i_glide_energy>
-42.2017250061035

> <r_i_glide_einternal>
1.84215593338013

> <i_i_glide_confnum>
6

> <i_i_glide_posenum>
313

> <r_i_glide_eff_state_penalty>
0

> <i_f3d_flags>
0

> <s_user_duplicate_titles>
307217

> <s_m_subgroup_title>
dock_pv

> <s_m_subgroupid>
dock_pv1

> <b_m_subgroup_collapsed>
0

$$$$
286093
                    3D
 Schrodinger Suite 2021-1.
 48 50  0  0  1  0            999 V2000
    4.0843   24.5418    6.5400 C   0  0  0  0  0  0
    4.3408   25.7952    7.3931 C   0  0  2  0  0  0
    4.5075   27.1081    6.5532 C   0  0  1  0  0  0
    4.5740   28.4458    7.3665 C   0  0  1  0  0  0
    3.2775   29.0926    7.6182 C   0  0  0  0  0  0
    2.2464   29.6780    7.9104 C   0  0  0  0  0  0
    1.0251   30.3575    8.3263 C   0  0  0  0  0  0
    0.7406   31.6206    7.7760 C   0  0  0  0  0  0
   -0.3418   32.3670    8.2520 C   0  0  0  0  0  0
   -1.1546   31.8670    9.2694 C   0  0  0  0  0  0
   -0.8613   30.6160    9.8074 C   0  0  0  0  0  0
    0.1964   29.8519    9.3526 C   0  0  0  0  0  0
    0.1765   28.6162   10.1599 C   0  0  0  0  0  0
    0.9672   27.5176   10.0820 C   0  0  0  0  0  0
    0.9895   26.2576   10.8123 C   0  0  0  0  0  0
    0.0208   25.3390   11.2443 C   0  0  0  0  0  0
    0.6758   24.2731   11.8619 C   0  0  0  0  0  0
    2.0300   24.5139   11.7760 C   0  0  0  0  0  0
    2.2070   25.7128   11.1395 N   0  0  0  0  0  0
   -1.3348   25.4194   11.1129 O   0  0  0  0  0  0
   -1.7502   25.3961    9.7623 C   0  0  0  0  0  0
   -0.8816   28.7942   11.1469 C   0  0  0  0  0  0
   -1.2097   28.0748   12.0864 O   0  0  0  0  0  0
   -1.4720   29.9610   10.8502 N   0  0  0  0  0  0
    1.5472   32.1720    6.8360 F   0  0  0  0  0  0
    5.2578   28.2519    8.5758 O   0  0  0  0  0  0
    5.6576   26.9730    5.6612 N   0  0  0  0  0  0
    5.4995   25.5339    8.1759 O   0  0  0  0  0  0
    3.5015   25.9225    8.0793 H   0  0  0  0  0  0
    3.6599   27.1859    5.8687 H   0  0  0  0  0  0
    5.1341   29.1906    6.7987 H   0  0  0  0  0  0
    3.1024   26.1587   10.9773 H   0  0  0  0  0  0
    3.2581   24.7000    5.8507 H   0  0  0  0  0  0
    3.8390   23.6802    7.1612 H   0  0  0  0  0  0
    4.9542   24.2792    5.9367 H   0  0  0  0  0  0
   -0.5331   33.3479    7.8397 H   0  0  0  0  0  0
   -1.9772   32.4616    9.6404 H   0  0  0  0  0  0
    1.7429   27.5277    9.3360 H   0  0  0  0  0  0
    0.1975   23.4176   12.3151 H   0  0  0  0  0  0
    2.8672   23.9550   12.1499 H   0  0  0  0  0  0
   -2.7982   25.1150    9.7302 H   0  0  0  0  0  0
   -1.6207   26.3697    9.2915 H   0  0  0  0  0  0
   -1.2120   24.6540    9.1758 H   0  0  0  0  0  0
   -2.2344   30.3304   11.4033 H   0  0  0  0  0  0
    5.6554   27.3727    8.5309 H   0  0  0  0  0  0
    6.0292   27.8727    5.3758 H   0  0  0  0  0  0
    6.4089   26.5173    6.1629 H   0  0  0  0  0  0
    5.2580   25.4635    9.1130 H   0  0  0  0  0  0
  1  2  1  0  0  0
  1 33  1  0  0  0
  1 34  1  0  0  0
  1 35  1  0  0  0
  2 29  1  0  0  0
  2  3  1  0  0  0
  2 28  1  0  0  0
  3 30  1  0  0  0
  3  4  1  0  0  0
  3 27  1  0  0  0
  4 31  1  0  0  0
  4  5  1  0  0  0
  4 26  1  0  0  0
  5  6  3  0  0  0
  6  7  1  0  0  0
  7 12  1  0  0  0
  7  8  2  0  0  0
  8  9  1  0  0  0
  8 25  1  0  0  0
  9 10  2  0  0  0
  9 36  1  0  0  0
 10 11  1  0  0  0
 10 37  1  0  0  0
 11 24  1  0  0  0
 11 12  2  0  0  0
 12 13  1  0  0  0
 13 14  2  0  0  0
 13 22  1  0  0  0
 14 15  1  0  0  0
 14 38  1  0  0  0
 15 19  1  0  0  0
 15 16  2  0  0  0
 16 17  1  0  0  0
 16 20  1  0  0  0
 17 18  2  0  0  0
 17 39  1  0  0  0
 18 19  1  0  0  0
 18 40  1  0  0  0
 19 32  1  0  0  0
 20 21  1  0  0  0
 21 41  1  0  0  0
 21 42  1  0  0  0
 21 43  1  0  0  0
 22 23  2  0  0  0
 22 24  1  0  0  0
 24 44  1  0  0  0
 26 45  1  0  0  0
 27 46  1  0  0  0
 27 47  1  0  0  0
 28 48  1  0  0  0
M  END
> <s_m_entry_id>
34676

> <s_m_entry_name>
ligand_docking-pose.173

> <s_m_Source_Path>
/home/csk/Desktop/cluster/DUD-E-result/cdk2

> <s_m_Source_File>
ligand_docking-pose.sdf

> <i_m_Source_File_Index>
173

> <i_lp_mmshare_version>
53161

> <r_lp_tautomer_probability>
1

> <s_lp_Force_Field>
OPLS_2005

> <r_lp_Energy>
47.401169

> <b_lp_Chiralities_Consistent>
1

> <s_lp_Variant>
286093-1

> <s_i_glide_gridfile>
glide-grid_1h00

> <i_i_glide_lignum>
1313

> <i_i_glide_rotatable_bonds>
8

> <r_i_docking_score>
-7.84056243267825

> <r_i_glide_ligand_efficiency>
-0.280020086881366

> <r_i_glide_ligand_efficiency_sa>
-0.850305906783157

> <r_i_glide_ligand_efficiency_ln>
-1.80983201837837

> <r_i_glide_gscore>
-7.84056243267825

> <r_i_glide_lipo>
-3.59605389218152

> <r_i_glide_hbond>
-0.27152092940718

> <r_i_glide_metal>
0

> <r_i_glide_rewards>
-1.57750024366167

> <r_i_glide_evdw>
-38.1073722839355

> <r_i_glide_ecoul>
-7.28000497817993

> <r_i_glide_erotb>
0.654857853398296

> <r_i_glide_esite>
-0.0529758599024078

> <r_i_glide_emodel>
-62.37894915758

> <r_i_glide_energy>
-45.3873772621155

> <r_i_glide_einternal>
10.2525196075439

> <i_i_glide_confnum>
22

> <i_i_glide_posenum>
390

> <r_i_glide_eff_state_penalty>
0

> <i_f3d_flags>
0

> <s_user_duplicate_titles>
286093

> <s_m_subgroup_title>
dock_pv

> <s_m_subgroupid>
dock_pv1

> <b_m_subgroup_collapsed>
0

$$$$
441558
                    3D
 Schrodinger Suite 2021-1.
 35 37  0  0  1  0            999 V2000
   -0.3415   28.1585   12.2545 C   0  0  0  0  0  0
   -0.7976   27.6719   10.8652 C   0  0  0  0  0  0
   -0.2971   26.2526   10.5695 C   0  0  0  0  0  0
   -0.2824   28.5171    9.8347 O   0  0  0  0  0  0
   -0.7637   29.8017    9.6802 C   0  0  0  0  0  0
   -1.9227   30.3107   10.2890 C   0  0  0  0  0  0
   -2.3185   31.6216   10.0356 C   0  0  0  0  0  0
   -1.6644   32.4751    9.2112 N   0  0  0  0  0  0
   -0.5715   31.9709    8.6350 C   0  0  0  0  0  0
   -0.0388   30.6523    8.8132 C   0  0  0  0  0  0
    1.1777   30.5908    8.0205 C   0  0  0  0  0  0
    1.2578   31.8153    7.3756 C   0  0  0  0  0  0
    0.2545   32.6532    7.7764 N   0  0  0  0  0  0
    2.2333   29.5371    7.9061 C   0  0  0  0  0  0
    2.5950   28.6517    8.9271 C   0  0  0  0  0  0
    3.6561   27.7802    8.6589 C   0  0  0  0  0  0
    4.3301   27.7738    7.4820 N   0  0  0  0  0  0
    3.8879   28.6458    6.5497 C   0  0  0  0  0  0
    2.8580   29.5089    6.6980 N   0  0  0  0  0  0
    4.5418   28.6520    5.3304 N   0  0  0  0  0  0
    0.1632   33.6121    7.4575 H   0  0  0  0  0  0
   -0.6593   27.4716   13.0391 H   0  0  0  0  0  0
   -0.7512   29.1379   12.5001 H   0  0  0  0  0  0
    0.7451   28.2398   12.3002 H   0  0  0  0  0  0
   -1.8872   27.6376   10.8230 H   0  0  0  0  0  0
   -0.6368   25.5466   11.3276 H   0  0  0  0  0  0
   -0.6691   25.9036    9.6057 H   0  0  0  0  0  0
    0.7929   26.2151   10.5386 H   0  0  0  0  0  0
   -2.5223   29.7174   10.9622 H   0  0  0  0  0  0
   -3.2015   32.0193   10.5168 H   0  0  0  0  0  0
    2.0131   32.1732    6.6954 H   0  0  0  0  0  0
    2.0953   28.6433    9.8804 H   0  0  0  0  0  0
    3.9828   27.0522    9.3760 H   0  0  0  0  0  0
    4.4181   29.5000    4.7962 H   0  0  0  0  0  0
    5.4377   28.1847    5.3170 H   0  0  0  0  0  0
  1  2  1  0  0  0
  1 22  1  0  0  0
  1 23  1  0  0  0
  1 24  1  0  0  0
  2  3  1  0  0  0
  2  4  1  0  0  0
  2 25  1  0  0  0
  3 26  1  0  0  0
  3 27  1  0  0  0
  3 28  1  0  0  0
  4  5  1  0  0  0
  5 10  1  0  0  0
  5  6  2  0  0  0
  6  7  1  0  0  0
  6 29  1  0  0  0
  7  8  2  0  0  0
  7 30  1  0  0  0
  8  9  1  0  0  0
  9 13  1  0  0  0
  9 10  2  0  0  0
 10 11  1  0  0  0
 11 12  2  0  0  0
 11 14  1  0  0  0
 12 13  1  0  0  0
 12 31  1  0  0  0
 13 21  1  0  0  0
 14 19  1  0  0  0
 14 15  2  0  0  0
 15 16  1  0  0  0
 15 32  1  0  0  0
 16 17  2  0  0  0
 16 33  1  0  0  0
 17 18  1  0  0  0
 18 19  2  0  0  0
 18 20  1  0  0  0
 20 34  1  0  0  0
 20 35  1  0  0  0
M  END
> <s_m_entry_id>
34681

> <s_m_entry_name>
ligand_docking-pose.178

> <s_m_Source_Path>
/home/csk/Desktop/cluster/DUD-E-result/cdk2

> <s_m_Source_File>
ligand_docking-pose.sdf

> <i_m_Source_File_Index>
178

> <i_lp_mmshare_version>
53161

> <r_lp_tautomer_probability>
0.999998420164496

> <s_lp_Force_Field>
OPLS_2005

> <r_lp_Energy>
2.834627

> <b_lp_Chiralities_Consistent>
1

> <s_lp_Variant>
441558-1

> <s_i_glide_gridfile>
glide-grid_1h00

> <i_i_glide_lignum>
1272

> <i_i_glide_rotatable_bonds>
3

> <r_i_docking_score>
-7.81365281248396

> <r_i_glide_ligand_efficiency>
-0.390682640624198

> <r_i_glide_ligand_efficiency_sa>
-1.06047584114917

> <r_i_glide_ligand_efficiency_ln>
-1.95549958744712

> <r_i_glide_gscore>
-7.81365281248396

> <r_i_glide_lipo>
-2.56050783778578

> <r_i_glide_hbond>
-0.373076306275512

> <r_i_glide_metal>
0

> <r_i_glide_rewards>
-3.18773754443463

> <r_i_glide_evdw>
-32.549861907959

> <r_i_glide_ecoul>
-3.71686601638794

> <r_i_glide_erotb>
0.4926918738681

> <r_i_glide_esite>
0

> <r_i_glide_emodel>
-51.0312340359629

> <r_i_glide_energy>
-36.2667279243469

> <r_i_glide_einternal>
2.19924211502075

> <i_i_glide_confnum>
6

> <i_i_glide_posenum>
351

> <r_i_glide_eff_state_penalty>
0

> <i_f3d_flags>
0

> <s_user_duplicate_titles>
441558

> <s_m_subgroup_title>
dock_pv

> <s_m_subgroupid>
dock_pv1

> <b_m_subgroup_collapsed>
0

$$$$
248104
                    3D
 Schrodinger Suite 2021-1.
 48 51  0  0  1  0            999 V2000
   -1.1177   25.6572   14.4894 C   0  0  0  0  0  0
   -0.5575   26.6171   13.5425 N   0  0  0  0  0  0
    0.0065   25.8886   12.4043 C   0  0  0  0  0  0
   -1.5422   27.6453   13.1948 C   0  0  0  0  0  0
   -0.9724   28.8039   12.3431 C   0  0  0  0  0  0
    0.2060   29.1436   12.4463 O   0  0  0  0  0  0
   -1.8494   29.4189   11.5262 N   0  0  0  0  0  0
   -1.5511   30.3976   10.5641 C   0  0  0  0  0  0
   -2.3680   31.5341   10.5759 C   0  0  0  0  0  0
   -2.1417   32.6097    9.7290 C   0  0  0  0  0  0
   -1.1269   32.5493    8.7915 C   0  0  0  0  0  0
   -0.3419   31.4074    8.7321 C   0  0  0  0  0  0
   -0.5189   30.3276    9.6052 C   0  0  0  0  0  0
    0.4970   29.2652    9.3017 C   0  0  0  0  0  0
    0.6054   28.1433    9.7900 O   0  0  0  0  0  0
    1.3336   29.8525    8.2767 C   0  0  0  0  0  0
    0.8070   31.0813    7.9177 C   0  0  0  0  0  0
    1.4787   31.6864    6.9761 N   0  0  0  0  0  0
    2.4484   30.8222    6.7206 N   0  0  0  0  0  0
    2.4583   29.6941    7.4805 C   0  0  0  0  0  0
    3.5021   28.6515    7.3253 C   0  0  0  0  0  0
    3.7735   27.7732    8.3727 C   0  0  0  0  0  0
    4.6717   26.7297    8.1760 C   0  0  0  0  0  0
    5.3406   26.5659    6.9669 C   0  0  0  0  0  0
    5.0693   27.4529    5.9187 C   0  0  0  0  0  0
    4.1582   28.4892    6.0996 C   0  0  0  0  0  0
    6.2368   25.5186    6.8940 O   0  0  0  0  0  0
    7.0090   25.3545    5.7080 C   0  0  0  0  0  0
    3.2120   31.0521    6.0914 H   0  0  0  0  0  0
   -1.5068   26.1716   15.3681 H   0  0  0  0  0  0
   -0.3566   24.9537   14.8317 H   0  0  0  0  0  0
   -1.9358   25.0907   14.0413 H   0  0  0  0  0  0
    0.5784   26.5563   11.7617 H   0  0  0  0  0  0
    0.6958   25.1104   12.7334 H   0  0  0  0  0  0
   -0.7755   25.4233   11.8020 H   0  0  0  0  0  0
   -2.3884   27.1933   12.6718 H   0  0  0  0  0  0
   -1.9386   28.0952   14.1051 H   0  0  0  0  0  0
   -2.8115   29.3821   11.8365 H   0  0  0  0  0  0
   -3.1466   31.6479   11.3081 H   0  0  0  0  0  0
   -2.7420   33.4966    9.8168 H   0  0  0  0  0  0
   -0.9355   33.3948    8.1456 H   0  0  0  0  0  0
    3.2707   27.8687    9.3253 H   0  0  0  0  0  0
    4.8540   26.0317    8.9760 H   0  0  0  0  0  0
    5.5625   27.3608    4.9633 H   0  0  0  0  0  0
    3.9578   29.1519    5.2715 H   0  0  0  0  0  0
    7.6891   24.5131    5.8364 H   0  0  0  0  0  0
    6.3759   25.1391    4.8453 H   0  0  0  0  0  0
    7.6148   26.2391    5.4982 H   0  0  0  0  0  0
  1  2  1  0  0  0
  1 30  1  0  0  0
  1 31  1  0  0  0
  1 32  1  0  0  0
  2  3  1  0  0  0
  2  4  1  0  0  0
  3 33  1  0  0  0
  3 34  1  0  0  0
  3 35  1  0  0  0
  4  5  1  0  0  0
  4 36  1  0  0  0
  4 37  1  0  0  0
  5  6  2  0  0  0
  5  7  1  0  0  0
  7  8  1  0  0  0
  7 38  1  0  0  0
  8 13  1  0  0  0
  8  9  2  0  0  0
  9 10  1  0  0  0
  9 39  1  0  0  0
 10 11  2  0  0  0
 10 40  1  0  0  0
 11 12  1  0  0  0
 11 41  1  0  0  0
 12 17  1  0  0  0
 12 13  2  0  0  0
 13 14  1  0  0  0
 14 15  2  0  0  0
 14 16  1  0  0  0
 16 20  2  0  0  0
 16 17  1  0  0  0
 17 18  2  0  0  0
 18 19  1  0  0  0
 19 29  1  0  0  0
 19 20  1  0  0  0
 20 21  1  0  0  0
 21 26  1  0  0  0
 21 22  2  0  0  0
 22 23  1  0  0  0
 22 42  1  0  0  0
 23 24  2  0  0  0
 23 43  1  0  0  0
 24 25  1  0  0  0
 24 27  1  0  0  0
 25 26  2  0  0  0
 25 44  1  0  0  0
 26 45  1  0  0  0
 27 28  1  0  0  0
 28 46  1  0  0  0
 28 47  1  0  0  0
 28 48  1  0  0  0
M  END
> <s_m_entry_id>
34682

> <s_m_entry_name>
ligand_docking-pose.179

> <s_m_Source_Path>
/home/csk/Desktop/cluster/DUD-E-result/cdk2

> <s_m_Source_File>
ligand_docking-pose.sdf

> <i_m_Source_File_Index>
179

> <i_lp_mmshare_version>
53161

> <r_lp_tautomer_probability>
1

> <s_lp_Force_Field>
OPLS_2005

> <r_lp_Energy>
63.56035

> <b_lp_Chiralities_Consistent>
1

> <s_lp_Variant>
248104-1

> <s_i_glide_gridfile>
glide-grid_1h00

> <i_i_glide_lignum>
1540

> <i_i_glide_rotatable_bonds>
6

> <r_i_docking_score>
-7.80425647093248

> <r_i_glide_ligand_efficiency>
-0.278723445390446

> <r_i_glide_ligand_efficiency_sa>
-0.846368539535725

> <r_i_glide_ligand_efficiency_ln>
-1.80145153641809

> <r_i_glide_gscore>
-7.80425647093248

> <r_i_glide_lipo>
-2.67735377050546

> <r_i_glide_hbond>
-0.341575793668541

> <r_i_glide_metal>
0

> <r_i_glide_rewards>
-2.33724264555662

> <r_i_glide_evdw>
-33.0393829345703

> <r_i_glide_ecoul>
-8.64847850799561

> <r_i_glide_erotb>
0.546496207156362

> <r_i_glide_esite>
-0.045339545430372

> <r_i_glide_emodel>
-61.8183863509804

> <r_i_glide_energy>
-41.6878614425659

> <r_i_glide_einternal>
5.3618278503418

> <i_i_glide_confnum>
16

> <i_i_glide_posenum>
12

> <r_i_glide_eff_state_penalty>
0

> <i_f3d_flags>
0

> <s_user_duplicate_titles>
248104

> <s_m_subgroup_title>
dock_pv

> <s_m_subgroupid>
dock_pv1

> <b_m_subgroup_collapsed>
0

$$$$
311751
                    3D
 Schrodinger Suite 2021-1.
 41 43  0  0  1  0            999 V2000
    4.4242   24.7981    4.5760 C   0  0  0  0  0  0
    4.6206   26.1199    4.1837 C   0  0  0  0  0  0
    4.8588   27.0963    5.1479 C   0  0  0  0  0  0
    4.9065   26.7450    6.5014 C   0  0  0  0  0  0
    4.6964   25.4182    6.8882 C   0  0  0  0  0  0
    4.4578   24.4430    5.9232 C   0  0  0  0  0  0
    5.1327   27.8179    7.5598 C   0  0  0  0  0  0
    3.8036   28.3992    8.0492 C   0  0  0  0  0  0
    3.2249   27.8601    8.9911 O   0  0  0  0  0  0
    3.3636   29.4825    7.3760 N   0  0  0  0  0  0
    2.2276   30.2515    7.5977 C   0  0  0  0  0  0
    2.0579   31.3891    6.9760 N   0  0  0  0  0  0
    0.9687   32.0114    7.3760 C   0  0  0  0  0  0
    0.1354   31.3473    8.2698 C   0  0  0  0  0  0
    0.9427   29.8520    8.6943 S   0  0  0  0  0  0
   -1.2155   31.7391    8.8223 C   0  0  0  0  0  0
   -2.1651   30.5428    8.7448 C   0  0  0  0  0  0
   -3.5967   30.8197    9.1690 C   0  0  0  0  0  0
   -3.5570   31.3978   10.5760 C   0  0  0  0  0  0
   -2.6076   32.6022   10.7396 C   0  0  0  0  0  0
   -1.1809   32.2416   10.2709 C   0  0  0  0  0  0
    4.2351   24.0446    3.8242 H   0  0  0  0  0  0
    4.5878   26.3792    3.1349 H   0  0  0  0  0  0
    5.0129   28.1214    4.8432 H   0  0  0  0  0  0
    4.7090   25.1481    7.9347 H   0  0  0  0  0  0
    4.2876   23.4181    6.2179 H   0  0  0  0  0  0
    5.6728   27.4041    8.4134 H   0  0  0  0  0  0
    5.7540   28.6149    7.1511 H   0  0  0  0  0  0
    3.9900   29.8827    6.6871 H   0  0  0  0  0  0
    0.7462   32.9865    6.9680 H   0  0  0  0  0  0
   -1.6391   32.5394    8.2121 H   0  0  0  0  0  0
   -2.1977   30.2520    7.7210 H   0  0  0  0  0  0
   -1.8039   29.7141    9.3592 H   0  0  0  0  0  0
   -4.0946   31.4520    8.4464 H   0  0  0  0  0  0
   -4.1622   29.8870    9.1718 H   0  0  0  0  0  0
   -4.5588   31.6287   10.9415 H   0  0  0  0  0  0
   -3.1419   30.5781   11.1660 H   0  0  0  0  0  0
   -2.9832   33.4519   10.1760 H   0  0  0  0  0  0
   -2.6015   32.9236   11.7792 H   0  0  0  0  0  0
   -0.8009   31.4519   10.9228 H   0  0  0  0  0  0
   -0.5321   33.1073   10.3703 H   0  0  0  0  0  0
  1  6  1  0  0  0
  1  2  2  0  0  0
  1 22  1  0  0  0
  2  3  1  0  0  0
  2 23  1  0  0  0
  3  4  2  0  0  0
  3 24  1  0  0  0
  4  5  1  0  0  0
  4  7  1  0  0  0
  5  6  2  0  0  0
  5 25  1  0  0  0
  6 26  1  0  0  0
  7  8  1  0  0  0
  7 27  1  0  0  0
  7 28  1  0  0  0
  8  9  2  0  0  0
  8 10  1  0  0  0
 10 11  1  0  0  0
 10 29  1  0  0  0
 11 15  1  0  0  0
 11 12  2  0  0  0
 12 13  1  0  0  0
 13 14  2  0  0  0
 13 30  1  0  0  0
 14 15  1  0  0  0
 14 16  1  0  0  0
 16 21  1  0  0  0
 16 17  1  0  0  0
 16 31  1  0  0  0
 17 18  1  0  0  0
 17 32  1  0  0  0
 17 33  1  0  0  0
 18 19  1  0  0  0
 18 34  1  0  0  0
 18 35  1  0  0  0
 19 20  1  0  0  0
 19 36  1  0  0  0
 19 37  1  0  0  0
 20 21  1  0  0  0
 20 38  1  0  0  0
 20 39  1  0  0  0
 21 40  1  0  0  0
 21 41  1  0  0  0
M  END
> <s_m_entry_id>
34688

> <s_m_entry_name>
ligand_docking-pose.185

> <s_m_Source_Path>
/home/csk/Desktop/cluster/DUD-E-result/cdk2

> <s_m_Source_File>
ligand_docking-pose.sdf

> <i_m_Source_File_Index>
185

> <i_lp_mmshare_version>
53161

> <r_lp_tautomer_probability>
0.999000488399163

> <s_lp_Force_Field>
OPLS_2005

> <r_lp_Energy>
9.638232

> <b_lp_Chiralities_Consistent>
1

> <s_lp_Variant>
311751-1

> <s_i_glide_gridfile>
glide-grid_1h00

> <i_i_glide_lignum>
275

> <i_i_glide_rotatable_bonds>
5

> <r_i_docking_score>
-7.79111018833151

> <r_i_glide_ligand_efficiency>
-0.371005247063405

> <r_i_glide_ligand_efficiency_sa>
-1.02357534464871

> <r_i_glide_ligand_efficiency_ln>
-1.92633625064445

> <r_i_glide_gscore>
-7.79111018833151

> <r_i_glide_lipo>
-3.03951933947132

> <r_i_glide_hbond>
-0.389600176281772

> <r_i_glide_metal>
0

> <r_i_glide_rewards>
-3.12103613800575

> <r_i_glide_evdw>
-25.8188323974609

> <r_i_glide_ecoul>
-3.46855497360229

> <r_i_glide_erotb>
0.570270331340719

> <r_i_glide_esite>
0

> <r_i_glide_emodel>
-45.7482069127736

> <r_i_glide_energy>
-29.2873873710632

> <r_i_glide_einternal>
1.41280710697174

> <i_i_glide_confnum>
2

> <i_i_glide_posenum>
17

> <r_i_glide_eff_state_penalty>
0

> <i_f3d_flags>
0

> <s_user_duplicate_titles>
311751

> <s_m_subgroup_title>
dock_pv

> <s_m_subgroupid>
dock_pv1

> <b_m_subgroup_collapsed>
0

$$$$
300600
                    3D
 Schrodinger Suite 2021-1.
 56 60  0  0  1  0            999 V2000
    9.7011   26.3345    3.6640 C   0  0  0  0  0  0
    8.4016   25.8523    3.8625 C   0  0  0  0  0  0
    8.1655   25.4779    5.1797 C   0  0  0  0  0  0
    9.5595   25.7239    6.1839 S   0  0  0  0  0  0
   10.4576   26.3319    4.8306 C   0  0  0  0  0  0
    6.6062   24.8196    5.8186 S   0  0  0  0  0  0
    6.9234   23.9824    6.9792 O   0  0  0  0  0  0
    5.8752   24.2771    4.6694 O   0  0  0  0  0  0
    5.6955   26.2512    6.3937 C   0  0  0  0  0  0
    5.1904   27.1425    5.4484 C   0  0  0  0  0  0
    4.4310   28.2309    5.8639 C   0  0  0  0  0  0
    4.1340   28.4062    7.2159 C   0  0  0  0  0  0
    4.6844   27.5420    8.1662 C   0  0  0  0  0  0
    5.4662   26.4627    7.7558 C   0  0  0  0  0  0
    3.2581   29.4519    7.5316 N   0  0  0  0  0  0
    2.1200   29.5141    8.3527 C   0  0  0  0  0  0
    1.7728   28.5457    9.3013 C   0  0  0  0  0  0
    0.5566   28.6585    9.9727 C   0  0  0  0  0  0
   -0.3108   29.6842    9.7699 N   0  0  0  0  0  0
    0.0580   30.6461    8.9193 C   0  0  0  0  0  0
    1.2480   30.5602    8.1813 N   0  0  0  0  0  0
    1.4222   31.6457    7.3760 N   0  0  0  0  0  0
    0.4575   32.4671    7.7275 C   0  0  0  0  0  0
   -0.4829   31.9037    8.5772 C   0  0  0  0  0  0
   -1.9422   32.5492    9.2158 Cl  0  0  0  0  0  0
    0.2326   27.6504   10.8911 N   0  0  0  0  0  0
   -1.0976   27.5028   11.4954 C   0  0  2  0  0  0
   -0.9982   27.5022   13.0345 C   0  0  0  0  0  0
   -0.3418   26.2212   13.5946 C   0  0  0  0  0  0
   -1.0004   24.9276   13.0622 C   0  0  1  0  0  0
   -1.0559   24.9340   11.5172 C   0  0  0  0  0  0
   -1.7472   26.2042   10.9757 C   0  0  0  0  0  0
   -0.3792   23.7281   13.5918 N   0  0  0  0  0  0
   10.0786   26.6711    2.7078 H   0  0  0  0  0  0
    7.6641   25.7766    3.0766 H   0  0  0  0  0  0
   11.4823   26.6530    4.9616 H   0  0  0  0  0  0
    5.3760   26.9867    4.3962 H   0  0  0  0  0  0
    4.0294   28.9054    5.1225 H   0  0  0  0  0  0
    4.5137   27.6924    9.2213 H   0  0  0  0  0  0
    5.8665   25.7864    8.4972 H   0  0  0  0  0  0
    3.3122   30.2331    6.8879 H   0  0  0  0  0  0
    2.3967   27.6890    9.4841 H   0  0  0  0  0  0
    0.3845   33.4520    7.2904 H   0  0  0  0  0  0
    0.9143   26.9272   11.0704 H   0  0  0  0  0  0
   -1.7387   28.3384   11.2085 H   0  0  0  0  0  0
   -2.0007   27.6024   13.4529 H   0  0  0  0  0  0
   -0.4483   28.3822   13.3756 H   0  0  0  0  0  0
    0.7120   26.2238   13.3125 H   0  0  0  0  0  0
   -0.3706   26.2428   14.6855 H   0  0  0  0  0  0
   -2.0368   24.9469   13.4074 H   0  0  0  0  0  0
   -0.0443   24.8747   11.1116 H   0  0  0  0  0  0
   -1.5861   24.0520   11.1580 H   0  0  0  0  0  0
   -1.7428   26.1889    9.8849 H   0  0  0  0  0  0
   -2.8008   26.1966   11.2675 H   0  0  0  0  0  0
   -0.4455   23.7231   14.5981 H   0  0  0  0  0  0
   -0.8679   22.9070   13.2647 H   0  0  0  0  0  0
  1  5  2  0  0  0
  1  2  1  0  0  0
  1 34  1  0  0  0
  2  3  2  0  0  0
  2 35  1  0  0  0
  3  4  1  0  0  0
  3  6  1  0  0  0
  4  5  1  0  0  0
  5 36  1  0  0  0
  6  7  2  0  0  0
  6  8  2  0  0  0
  6  9  1  0  0  0
  9 14  1  0  0  0
  9 10  2  0  0  0
 10 11  1  0  0  0
 10 37  1  0  0  0
 11 12  2  0  0  0
 11 38  1  0  0  0
 12 13  1  0  0  0
 12 15  1  0  0  0
 13 14  2  0  0  0
 13 39  1  0  0  0
 14 40  1  0  0  0
 15 16  1  0  0  0
 15 41  1  0  0  0
 16 21  1  0  0  0
 16 17  2  0  0  0
 17 18  1  0  0  0
 17 42  1  0  0  0
 18 19  2  0  0  0
 18 26  1  0  0  0
 19 20  1  0  0  0
 20 24  2  0  0  0
 20 21  1  0  0  0
 21 22  1  0  0  0
 22 23  2  0  0  0
 23 24  1  0  0  0
 23 43  1  0  0  0
 24 25  1  0  0  0
 26 27  1  0  0  0
 26 44  1  0  0  0
 27 32  1  0  0  0
 27 28  1  0  0  0
 27 45  1  0  0  0
 28 29  1  0  0  0
 28 46  1  0  0  0
 28 47  1  0  0  0
 29 30  1  0  0  0
 29 48  1  0  0  0
 29 49  1  0  0  0
 30 31  1  0  0  0
 30 33  1  0  0  0
 30 50  1  0  0  0
 31 32  1  0  0  0
 31 51  1  0  0  0
 31 52  1  0  0  0
 32 53  1  0  0  0
 32 54  1  0  0  0
 33 55  1  0  0  0
 33 56  1  0  0  0
M  END
> <s_m_entry_id>
34689

> <s_m_entry_name>
ligand_docking-pose.186

> <s_m_Source_Path>
/home/csk/Desktop/cluster/DUD-E-result/cdk2

> <s_m_Source_File>
ligand_docking-pose.sdf

> <i_m_Source_File_Index>
186

> <i_lp_mmshare_version>
53161

> <r_lp_tautomer_probability>
1

> <s_lp_Force_Field>
OPLS_2005

> <r_lp_Energy>
22.634461

> <b_lp_Chiralities_Consistent>
1

> <s_lp_Variant>
300600-1

> <s_i_glide_gridfile>
glide-grid_1h00

> <i_i_glide_lignum>
612

> <i_i_glide_rotatable_bonds>
6

> <r_i_docking_score>
-7.77731477955875

> <r_i_glide_ligand_efficiency>
-0.235676205441174

> <r_i_glide_ligand_efficiency_sa>
-0.755939518834666

> <r_i_glide_ligand_efficiency_ln>
-1.72963453819308

> <r_i_glide_gscore>
-7.77731477955875

> <r_i_glide_lipo>
-3.1600920463507

> <r_i_glide_hbond>
-0.231451825264529

> <r_i_glide_metal>
0

> <r_i_glide_rewards>
-1.24327290473637

> <r_i_glide_evdw>
-51.1156806945801

> <r_i_glide_ecoul>
-7.08289194107056

> <r_i_glide_erotb>
0.484580541580183

> <r_i_glide_esite>
-0.00886071889774435

> <r_i_glide_emodel>
-79.9474546593223

> <r_i_glide_energy>
-58.1985726356506

> <r_i_glide_einternal>
8.31299877166748

> <i_i_glide_confnum>
15

> <i_i_glide_posenum>
70

> <r_i_glide_eff_state_penalty>
0

> <i_f3d_flags>
0

> <s_user_duplicate_titles>
300600

> <s_m_subgroup_title>
dock_pv

> <s_m_subgroupid>
dock_pv1

> <b_m_subgroup_collapsed>
0

$$$$
165238
                    3D
 Schrodinger Suite 2021-1.
 42 44  0  0  1  0            999 V2000
   -0.1043   25.8626   13.3688 C   0  0  0  0  0  0
   -1.3405   26.2961   12.5497 C   0  0  0  0  0  0
   -1.4627   25.3912   11.3033 C   0  0  0  0  0  0
   -2.6055   26.1451   13.4216 C   0  0  0  0  0  0
   -1.1972   27.7495   12.1088 C   0  0  0  0  0  0
   -0.2396   28.7435   12.2406 C   0  0  0  0  0  0
   -0.6084   29.8518   11.6271 N   0  0  0  0  0  0
   -1.7667   29.5458   11.0847 C   0  0  0  0  0  0
   -2.1964   28.2903   11.3714 O   0  0  0  0  0  0
   -2.6365   30.3790   10.1546 C   0  0  0  0  0  0
   -2.0378   32.0639    9.7772 S   0  0  0  0  0  0
   -0.6504   31.7831    8.7191 C   0  0  0  0  0  0
    0.1186   32.7524    8.0857 C   0  0  0  0  0  0
    1.1594   32.3432    7.3761 N   0  0  0  0  0  0
    1.3323   31.0496    7.4674 C   0  0  0  0  0  0
    0.0606   30.2415    8.3342 S   0  0  0  0  0  0
    2.4580   30.4163    6.9774 N   0  0  0  0  0  0
    3.0985   29.2247    7.3633 C   0  0  0  0  0  0
    4.0011   28.6521    6.4599 C   0  0  0  0  0  0
    4.7307   27.5200    6.8092 C   0  0  0  0  0  0
    4.5496   26.9519    8.0662 C   0  0  0  0  0  0
    3.6576   27.5125    8.9760 C   0  0  0  0  0  0
    2.9400   28.6524    8.6303 C   0  0  0  0  0  0
   -0.1889   24.8307   13.7123 H   0  0  0  0  0  0
    0.0332   26.4913   14.2494 H   0  0  0  0  0  0
    0.8113   25.9392   12.7795 H   0  0  0  0  0  0
   -2.3413   25.6422   10.7071 H   0  0  0  0  0  0
   -0.5959   25.4956   10.6493 H   0  0  0  0  0  0
   -1.5428   24.3382   11.5756 H   0  0  0  0  0  0
   -3.5030   26.4408   12.8762 H   0  0  0  0  0  0
   -2.7504   25.1160   13.7526 H   0  0  0  0  0  0
   -2.5535   26.7763   14.3099 H   0  0  0  0  0  0
    0.7046   28.6546   12.7561 H   0  0  0  0  0  0
   -2.7896   29.8568    9.2123 H   0  0  0  0  0  0
   -3.6351   30.4876   10.5748 H   0  0  0  0  0  0
   -0.0763   33.8135    8.1565 H   0  0  0  0  0  0
    3.0535   30.9234    6.3293 H   0  0  0  0  0  0
    4.1581   29.0970    5.4880 H   0  0  0  0  0  0
    5.4375   27.0939    6.1115 H   0  0  0  0  0  0
    5.1170   26.0769    8.3498 H   0  0  0  0  0  0
    3.5435   27.0764    9.9578 H   0  0  0  0  0  0
    2.2984   29.0970    9.3741 H   0  0  0  0  0  0
  1  2  1  0  0  0
  1 24  1  0  0  0
  1 25  1  0  0  0
  1 26  1  0  0  0
  2  3  1  0  0  0
  2  4  1  0  0  0
  2  5  1  0  0  0
  3 27  1  0  0  0
  3 28  1  0  0  0
  3 29  1  0  0  0
  4 30  1  0  0  0
  4 31  1  0  0  0
  4 32  1  0  0  0
  5  9  1  0  0  0
  5  6  2  0  0  0
  6  7  1  0  0  0
  6 33  1  0  0  0
  7  8  2  0  0  0
  8  9  1  0  0  0
  8 10  1  0  0  0
 10 11  1  0  0  0
 10 34  1  0  0  0
 10 35  1  0  0  0
 11 12  1  0  0  0
 12 16  1  0  0  0
 12 13  2  0  0  0
 13 14  1  0  0  0
 13 36  1  0  0  0
 14 15  2  0  0  0
 15 16  1  0  0  0
 15 17  1  0  0  0
 17 18  1  0  0  0
 17 37  1  0  0  0
 18 23  1  0  0  0
 18 19  2  0  0  0
 19 20  1  0  0  0
 19 38  1  0  0  0
 20 21  2  0  0  0
 20 39  1  0  0  0
 21 22  1  0  0  0
 21 40  1  0  0  0
 22 23  2  0  0  0
 22 41  1  0  0  0
 23 42  1  0  0  0
M  END
> <s_m_entry_id>
34690

> <s_m_entry_name>
ligand_docking-pose.187

> <s_m_Source_Path>
/home/csk/Desktop/cluster/DUD-E-result/cdk2

> <s_m_Source_File>
ligand_docking-pose.sdf

> <i_m_Source_File_Index>
187

> <i_lp_mmshare_version>
53161

> <r_lp_tautomer_probability>
1

> <s_lp_Force_Field>
OPLS_2005

> <r_lp_Energy>
11.859188

> <b_lp_Chiralities_Consistent>
1

> <s_lp_Variant>
165238-1

> <s_i_glide_gridfile>
glide-grid_1h00

> <i_i_glide_lignum>
1125

> <i_i_glide_rotatable_bonds>
6

> <r_i_docking_score>
-7.77698605959359

> <r_i_glide_ligand_efficiency>
-0.338129828677982

> <r_i_glide_ligand_efficiency_sa>
-0.961596253675155

> <r_i_glide_ligand_efficiency_ln>
-1.88054574702054

> <r_i_glide_gscore>
-7.77698605959359

> <r_i_glide_lipo>
-3.03311554426214

> <r_i_glide_hbond>
-0.288041315579372

> <r_i_glide_metal>
0

> <r_i_glide_rewards>
-2.40080900436048

> <r_i_glide_evdw>
-40.2576637268066

> <r_i_glide_ecoul>
-5.5871205329895

> <r_i_glide_erotb>
0.795931070897164

> <r_i_glide_esite>
0

> <r_i_glide_emodel>
-63.0085181123283

> <r_i_glide_energy>
-45.8447842597961

> <r_i_glide_einternal>
6.56350040435791

> <i_i_glide_confnum>
63

> <i_i_glide_posenum>
153

> <r_i_glide_eff_state_penalty>
0

> <i_f3d_flags>
0

> <s_user_duplicate_titles>
165238

> <s_m_subgroup_title>
dock_pv

> <s_m_subgroupid>
dock_pv1

> <b_m_subgroup_collapsed>
0

$$$$
310725
                    3D
 Schrodinger Suite 2021-1.
 59 64  0  0  1  0            999 V2000
    7.0456   25.3664    5.2022 C   0  0  0  0  0  0
    6.4059   25.4393    6.4723 O   0  0  0  0  0  0
    5.5192   26.4691    6.7195 C   0  0  0  0  0  0
    4.9514   26.5086    7.9881 C   0  0  0  0  0  0
    4.0580   27.5148    8.3490 C   0  0  0  0  0  0
    3.6970   28.4906    7.4185 C   0  0  0  0  0  0
    4.2647   28.4553    6.1384 C   0  0  0  0  0  0
    5.1638   27.4520    5.7893 C   0  0  0  0  0  0
    2.6245   29.4842    7.7239 C   0  0  0  0  0  0
    1.5219   29.4767    8.5760 C   0  0  0  0  0  0
    0.7848   30.6032    8.2299 C   0  0  0  0  0  0
    1.3589   31.3434    7.3188 N   0  0  0  0  0  0
    2.4580   30.6520    7.0221 N   0  0  0  0  0  0
   -0.4608   30.6519    8.9760 C   0  0  0  0  0  0
   -1.5241   31.5499    8.9759 C   0  0  0  0  0  0
   -2.6566   31.2550    9.7246 C   0  0  0  0  0  0
   -2.7045   30.0850   10.4787 C   0  0  0  0  0  0
   -1.6052   29.2101   10.5486 C   0  0  0  0  0  0
   -0.4709   29.5093    9.7773 C   0  0  0  0  0  0
    0.8062   28.7459    9.6097 C   0  0  0  0  0  0
    1.1292   27.7039   10.1793 O   0  0  0  0  0  0
   -1.6002   28.0387   11.3306 N   0  0  0  0  0  0
   -2.6406   27.3631   11.8730 C   0  0  0  0  0  0
   -3.8216   27.6926   11.7760 O   0  0  0  0  0  0
   -2.3420   26.2507   12.5811 N   0  0  0  0  0  0
   -1.1378   25.5249   12.4558 N   0  0  0  0  0  0
   -0.8514   24.8842   11.2991 C   0  0  0  0  0  0
   -1.4621   25.0520   10.2398 O   0  0  0  0  0  0
    0.2743   23.8837   11.3454 C   0  0  0  0  0  0
    1.2580   23.9685   10.3547 C   0  0  0  0  0  0
    2.1933   22.9619   10.1760 C   0  0  0  0  0  0
    2.2041   21.8528   11.0110 C   0  0  0  0  0  0
    1.2769   21.7432   12.0711 C   0  0  0  0  0  0
    0.2782   22.7570   12.2483 C   0  0  0  0  0  0
   -0.6842   22.5523   13.2865 C   0  0  0  0  0  0
   -0.6273   21.4365   14.1155 C   0  0  0  0  0  0
    0.3634   20.4806   13.9451 C   0  0  0  0  0  0
    1.3053   20.6188   12.9338 C   0  0  0  0  0  0
    3.1413   30.9979    6.3551 H   0  0  0  0  0  0
    7.7101   24.5028    5.1831 H   0  0  0  0  0  0
    6.3222   25.2425    4.3947 H   0  0  0  0  0  0
    7.6525   26.2519    5.0078 H   0  0  0  0  0  0
    5.2076   25.7369    8.6948 H   0  0  0  0  0  0
    3.6284   27.5064    9.3404 H   0  0  0  0  0  0
    3.9966   29.1889    5.3923 H   0  0  0  0  0  0
    5.5826   27.4594    4.7947 H   0  0  0  0  0  0
   -1.4988   32.4427    8.3684 H   0  0  0  0  0  0
   -3.5066   31.9212    9.7134 H   0  0  0  0  0  0
   -3.6179   29.8923   11.0098 H   0  0  0  0  0  0
   -0.6994   27.5843   11.3747 H   0  0  0  0  0  0
   -3.0828   25.6813   12.9626 H   0  0  0  0  0  0
   -0.4475   25.7641   13.1528 H   0  0  0  0  0  0
    1.2577   24.7936    9.6537 H   0  0  0  0  0  0
    2.8964   23.0374    9.3585 H   0  0  0  0  0  0
    2.9207   21.0600   10.8501 H   0  0  0  0  0  0
   -1.4880   23.2527   13.4416 H   0  0  0  0  0  0
   -1.3720   21.2969   14.8851 H   0  0  0  0  0  0
    0.3781   19.6046   14.5777 H   0  0  0  0  0  0
    2.0495   19.8490   12.7874 H   0  0  0  0  0  0
  1  2  1  0  0  0
  1 40  1  0  0  0
  1 41  1  0  0  0
  1 42  1  0  0  0
  2  3  1  0  0  0
  3  8  1  0  0  0
  3  4  2  0  0  0
  4  5  1  0  0  0
  4 43  1  0  0  0
  5  6  2  0  0  0
  5 44  1  0  0  0
  6  7  1  0  0  0
  6  9  1  0  0  0
  7  8  2  0  0  0
  7 45  1  0  0  0
  8 46  1  0  0  0
  9 13  1  0  0  0
  9 10  2  0  0  0
 10 20  1  0  0  0
 10 11  1  0  0  0
 11 12  2  0  0  0
 11 14  1  0  0  0
 12 13  1  0  0  0
 13 39  1  0  0  0
 14 19  2  0  0  0
 14 15  1  0  0  0
 15 16  2  0  0  0
 15 47  1  0  0  0
 16 17  1  0  0  0
 16 48  1  0  0  0
 17 18  2  0  0  0
 17 49  1  0  0  0
 18 19  1  0  0  0
 18 22  1  0  0  0
 19 20  1  0  0  0
 20 21  2  0  0  0
 22 23  1  0  0  0
 22 50  1  0  0  0
 23 24  2  0  0  0
 23 25  1  0  0  0
 25 26  1  0  0  0
 25 51  1  0  0  0
 26 27  1  0  0  0
 26 52  1  0  0  0
 27 28  2  0  0  0
 27 29  1  0  0  0
 29 34  1  0  0  0
 29 30  2  0  0  0
 30 31  1  0  0  0
 30 53  1  0  0  0
 31 32  2  0  0  0
 31 54  1  0  0  0
 32 33  1  0  0  0
 32 55  1  0  0  0
 33 38  2  0  0  0
 33 34  1  0  0  0
 34 35  2  0  0  0
 35 36  1  0  0  0
 35 56  1  0  0  0
 36 37  2  0  0  0
 36 57  1  0  0  0
 37 38  1  0  0  0
 37 58  1  0  0  0
 38 59  1  0  0  0
M  END
> <s_m_entry_id>
34691

> <s_m_entry_name>
ligand_docking-pose.188

> <s_m_Source_Path>
/home/csk/Desktop/cluster/DUD-E-result/cdk2

> <s_m_Source_File>
ligand_docking-pose.sdf

> <i_m_Source_File_Index>
188

> <i_lp_mmshare_version>
53161

> <r_lp_tautomer_probability>
1

> <s_lp_Force_Field>
OPLS_2005

> <r_lp_Energy>
76.177097

> <b_lp_Chiralities_Consistent>
1

> <s_lp_Variant>
310725-1

> <s_i_glide_gridfile>
glide-grid_1h00

> <i_i_glide_lignum>
1641

> <i_i_glide_rotatable_bonds>
8

> <r_i_docking_score>
-7.7747628889721

> <r_i_glide_ligand_efficiency>
-0.204599023394003

> <r_i_glide_ligand_efficiency_sa>
-0.687856884071676

> <r_i_glide_ligand_efficiency_ln>
-1.67646758921473

> <r_i_glide_gscore>
-7.7747628889721

> <r_i_glide_lipo>
-2.94298747166435

> <r_i_glide_hbond>
-0.313787676053731

> <r_i_glide_metal>
0

> <r_i_glide_rewards>
-1.50120087745311

> <r_i_glide_evdw>
-48.0338973999023

> <r_i_glide_ecoul>
-7.22346878051758

> <r_i_glide_erotb>
0.483757494847864

> <r_i_glide_esite>
-0.0153291715760233

> <r_i_glide_emodel>
-72.9403651235689

> <r_i_glide_energy>
-55.2573661804199

> <r_i_glide_einternal>
12.0043249130249

> <i_i_glide_confnum>
3

> <i_i_glide_posenum>
38

> <r_i_glide_eff_state_penalty>
0

> <i_f3d_flags>
0

> <s_user_duplicate_titles>
310725

> <s_m_subgroup_title>
dock_pv

> <s_m_subgroupid>
dock_pv1

> <b_m_subgroup_collapsed>
0

$$$$
574838
                    3D
 Schrodinger Suite 2021-1.
 54 57  0  0  1  0            999 V2000
   -1.7112   32.2119    9.0401 C   0  0  0  0  0  0
   -0.4383   31.4780    8.6489 C   0  0  0  0  0  0
    0.4579   32.1002    7.7761 C   0  0  0  0  0  0
    1.5817   31.5014    7.3280 N   0  0  0  0  0  0
    1.8438   30.2612    7.8012 C   0  0  0  0  0  0
    1.0430   29.5719    8.6532 N   0  0  0  0  0  0
   -0.0922   30.1826    9.0975 C   0  0  0  0  0  0
   -0.8557   29.3714   10.1110 C   0  0  0  0  0  0
   -0.6925   28.0006   10.4153 C   0  0  0  0  0  0
   -1.5590   27.6268   11.4497 C   0  0  0  0  0  0
   -2.2590   28.7550   11.7687 N   0  0  0  0  0  0
   -1.8508   29.7990   10.9862 C   0  0  0  0  0  0
   -1.8047   26.3687   12.1004 C   0  0  0  0  0  0
   -2.7027   26.2442   12.9330 O   0  0  0  0  0  0
   -0.9826   25.3783   11.7227 N   0  0  0  0  0  0
   -1.0462   23.9587   12.1164 C   0  0  2  0  0  0
   -1.2591   23.6951   13.6383 C   0  0  0  0  0  0
   -0.3436   24.4029   14.4451 O   0  0  0  0  0  0
    0.1098   23.1306   11.5200 C   0  0  0  0  0  0
    1.1861   23.7282   10.8409 C   0  0  0  0  0  0
    2.1238   22.9435   10.1769 C   0  0  0  0  0  0
    2.0234   21.5560   10.2236 C   0  0  0  0  0  0
    0.9839   20.9469   10.9202 C   0  0  0  0  0  0
    0.0270   21.7322   11.5576 C   0  0  0  0  0  0
    3.0755   29.7656    7.3771 N   0  0  0  0  0  0
    3.6700   28.5000    7.3238 C   0  0  0  0  0  0
    4.3090   28.2084    6.1133 C   0  0  0  0  0  0
    4.9629   26.9937    5.9199 C   0  0  0  0  0  0
    5.0034   26.0592    6.9496 C   0  0  0  0  0  0
    4.4106   26.3507    8.1743 C   0  0  0  0  0  0
    3.7659   27.5724    8.3862 C   0  0  0  0  0  0
    3.1383   27.8521    9.9698 Cl  0  0  0  0  0  0
   -2.9558   28.8176   12.5064 H   0  0  0  0  0  0
   -1.9334   23.5799   11.6104 H   0  0  0  0  0  0
   -1.9124   33.0517    8.3751 H   0  0  0  0  0  0
   -2.5753   31.5491    8.9707 H   0  0  0  0  0  0
   -1.6381   32.5952   10.0583 H   0  0  0  0  0  0
    0.2659   33.0909    7.3889 H   0  0  0  0  0  0
    0.0136   27.3506    9.9179 H   0  0  0  0  0  0
   -2.3050   30.7616   11.1604 H   0  0  0  0  0  0
   -0.3814   25.5802   10.9408 H   0  0  0  0  0  0
   -2.2694   23.9723   13.9395 H   0  0  0  0  0  0
   -1.1673   22.6358   13.8781 H   0  0  0  0  0  0
   -0.4091   25.3318   14.1995 H   0  0  0  0  0  0
    1.2929   24.8005   10.7835 H   0  0  0  0  0  0
    2.9167   23.4148    9.6152 H   0  0  0  0  0  0
    2.7477   20.9467    9.7020 H   0  0  0  0  0  0
    0.9039   19.8685   10.9494 H   0  0  0  0  0  0
   -0.7912   21.2387   12.0610 H   0  0  0  0  0  0
    3.5769   30.4491    6.8156 H   0  0  0  0  0  0
    4.2937   28.9244    5.3041 H   0  0  0  0  0  0
    5.4404   26.7831    4.9750 H   0  0  0  0  0  0
    5.5080   25.1157    6.8008 H   0  0  0  0  0  0
    4.4619   25.6263    8.9756 H   0  0  0  0  0  0
  1  2  1  0  0  0
  1 35  1  0  0  0
  1 36  1  0  0  0
  1 37  1  0  0  0
  2  7  1  0  0  0
  2  3  2  0  0  0
  3  4  1  0  0  0
  3 38  1  0  0  0
  4  5  2  0  0  0
  5  6  1  0  0  0
  5 25  1  0  0  0
  6  7  2  0  0  0
  7  8  1  0  0  0
  8 12  2  0  0  0
  8  9  1  0  0  0
  9 10  2  0  0  0
  9 39  1  0  0  0
 10 11  1  0  0  0
 10 13  1  0  0  0
 11 33  1  0  0  0
 11 12  1  0  0  0
 12 40  1  0  0  0
 13 14  2  0  0  0
 13 15  1  0  0  0
 15 16  1  0  0  0
 15 41  1  0  0  0
 16 34  1  0  0  0
 16 17  1  0  0  0
 16 19  1  0  0  0
 17 18  1  0  0  0
 17 42  1  0  0  0
 17 43  1  0  0  0
 18 44  1  0  0  0
 19 24  1  0  0  0
 19 20  2  0  0  0
 20 21  1  0  0  0
 20 45  1  0  0  0
 21 22  2  0  0  0
 21 46  1  0  0  0
 22 23  1  0  0  0
 22 47  1  0  0  0
 23 24  2  0  0  0
 23 48  1  0  0  0
 24 49  1  0  0  0
 25 26  1  0  0  0
 25 50  1  0  0  0
 26 31  1  0  0  0
 26 27  2  0  0  0
 27 28  1  0  0  0
 27 51  1  0  0  0
 28 29  2  0  0  0
 28 52  1  0  0  0
 29 30  1  0  0  0
 29 53  1  0  0  0
 30 31  2  0  0  0
 30 54  1  0  0  0
 31 32  1  0  0  0
M  END
> <s_m_entry_id>
34695

> <s_m_entry_name>
ligand_docking-pose.192

> <s_m_Source_Path>
/home/csk/Desktop/cluster/DUD-E-result/cdk2

> <s_m_Source_File>
ligand_docking-pose.sdf

> <i_m_Source_File_Index>
192

> <i_lp_mmshare_version>
53161

> <r_lp_tautomer_probability>
0.999999987636

> <s_lp_Force_Field>
OPLS_2005

> <r_lp_Energy>
12.667503

> <b_lp_Chiralities_Consistent>
1

> <s_lp_Variant>
574838-1

> <s_i_glide_gridfile>
glide-grid_1h00

> <i_i_glide_lignum>
807

> <i_i_glide_rotatable_bonds>
9

> <r_i_docking_score>
-7.75149674601792

> <r_i_glide_ligand_efficiency>
-0.24223427331306

> <r_i_glide_ligand_efficiency_sa>
-0.769045879671371

> <r_i_glide_ligand_efficiency_ln>
-1.73577141925438

> <r_i_glide_gscore>
-7.75149674601792

> <r_i_glide_lipo>
-2.7759856631491

> <r_i_glide_hbond>
-0.459291751938551

> <r_i_glide_metal>
0

> <r_i_glide_rewards>
-1.86837134949491

> <r_i_glide_evdw>
-42.8280181884766

> <r_i_glide_ecoul>
-7.65029811859131

> <r_i_glide_erotb>
0.698799715779426

> <r_i_glide_esite>
-0.0577020700022527

> <r_i_glide_emodel>
-70.3947165320655

> <r_i_glide_energy>
-50.4783163070679

> <r_i_glide_einternal>
12.0009450912476

> <i_i_glide_confnum>
55

> <i_i_glide_posenum>
387

> <r_i_glide_eff_state_penalty>
0

> <i_f3d_flags>
0

> <s_user_duplicate_titles>
574838

> <s_m_subgroup_title>
dock_pv

> <s_m_subgroupid>
dock_pv1

> <b_m_subgroup_collapsed>
0

$$$$
96662
                    3D
 Schrodinger Suite 2021-1.
 36 41  0  0  1  0            999 V2000
   -0.4591   31.5773    8.5760 C   0  0  0  0  0  0
   -1.6407   32.0654    9.1241 C   0  0  0  0  0  0
   -2.3632   31.3401   10.0704 C   0  0  0  0  0  0
   -1.8364   30.1059   10.4666 C   0  0  0  0  0  0
   -0.6112   29.5946    9.9405 C   0  0  0  0  0  0
    0.0588   30.3409    8.9581 C   0  0  0  0  0  0
   -0.3395   28.3662   10.5908 C   0  0  0  0  0  0
    0.6979   27.4070   10.5760 C   0  0  0  0  0  0
    0.6099   26.2444   11.3256 C   0  0  0  0  0  0
   -0.4910   26.0091   12.1804 C   0  0  0  0  0  0
   -0.9020   24.9869   13.0706 C   0  0  0  0  0  0
   -0.3712   23.7348   13.4252 C   0  0  0  0  0  0
   -1.0396   22.9609   14.3709 C   0  0  0  0  0  0
   -2.2128   23.4080   14.9723 C   0  0  0  0  0  0
   -2.7753   24.6426   14.6513 C   0  0  0  0  0  0
   -2.1155   25.4172   13.6927 C   0  0  0  0  0  0
   -2.4420   26.6519   13.1707 N   0  0  0  0  0  0
   -1.4898   26.9992   12.2429 C   0  0  0  0  0  0
   -1.4264   28.1384   11.4527 C   0  0  0  0  0  0
   -2.3141   29.1870   11.3760 N   0  0  0  0  0  0
   -2.8226   22.6287   15.8919 F   0  0  0  0  0  0
    1.8396   25.4514   11.0510 C   0  0  0  0  0  0
    2.1726   24.3522   11.4924 O   0  0  0  0  0  0
    2.5638   26.2034   10.2048 N   0  0  0  0  0  0
    2.0136   27.3859    9.8814 C   0  0  0  0  0  0
    2.5261   28.2394    9.1624 O   0  0  0  0  0  0
   -3.2258   27.2326   13.4479 H   0  0  0  0  0  0
   -3.1405   29.3164   11.9488 H   0  0  0  0  0  0
    0.0690   32.1678    7.8413 H   0  0  0  0  0  0
   -2.0095   33.0297    8.8063 H   0  0  0  0  0  0
   -3.2834   31.7256   10.4862 H   0  0  0  0  0  0
    0.9804   29.9944    8.5190 H   0  0  0  0  0  0
    0.5352   23.3612   12.9761 H   0  0  0  0  0  0
   -0.6423   21.9939   14.6431 H   0  0  0  0  0  0
   -3.6896   24.9741   15.1199 H   0  0  0  0  0  0
    3.4926   25.9408    9.9074 H   0  0  0  0  0  0
  1  6  1  0  0  0
  1  2  2  0  0  0
  1 29  1  0  0  0
  2  3  1  0  0  0
  2 30  1  0  0  0
  3  4  2  0  0  0
  3 31  1  0  0  0
  4 20  1  0  0  0
  4  5  1  0  0  0
  5  6  2  0  0  0
  5  7  1  0  0  0
  6 32  1  0  0  0
  7 19  2  0  0  0
  7  8  1  0  0  0
  8 25  1  0  0  0
  8  9  2  0  0  0
  9 10  1  0  0  0
  9 22  1  0  0  0
 10 18  2  0  0  0
 10 11  1  0  0  0
 11 16  2  0  0  0
 11 12  1  0  0  0
 12 13  2  0  0  0
 12 33  1  0  0  0
 13 14  1  0  0  0
 13 34  1  0  0  0
 14 15  2  0  0  0
 14 21  1  0  0  0
 15 16  1  0  0  0
 15 35  1  0  0  0
 16 17  1  0  0  0
 17 27  1  0  0  0
 17 18  1  0  0  0
 18 19  1  0  0  0
 19 20  1  0  0  0
 20 28  1  0  0  0
 22 23  2  0  0  0
 22 24  1  0  0  0
 24 25  1  0  0  0
 24 36  1  0  0  0
 25 26  2  0  0  0
M  END
> <s_m_entry_id>
34697

> <s_m_entry_name>
ligand_docking-pose.194

> <s_m_Source_Path>
/home/csk/Desktop/cluster/DUD-E-result/cdk2

> <s_m_Source_File>
ligand_docking-pose.sdf

> <i_m_Source_File_Index>
194

> <i_lp_mmshare_version>
53161

> <r_lp_tautomer_probability>
1

> <s_lp_Force_Field>
OPLS_2005

> <r_lp_Energy>
74.456582

> <b_lp_Chiralities_Consistent>
1

> <s_lp_Variant>
96662-1

> <s_i_glide_gridfile>
glide-grid_1h00

> <i_i_glide_lignum>
114

> <i_i_glide_rotatable_bonds>
0

> <r_i_docking_score>
-7.74461999954672

> <r_i_glide_ligand_efficiency>
-0.297869999982566

> <r_i_glide_ligand_efficiency_sa>
-0.882438702886499

> <r_i_glide_ligand_efficiency_ln>
-1.81879859472262

> <r_i_glide_gscore>
-7.74461999954672

> <r_i_glide_lipo>
-2.04256380788958

> <r_i_glide_hbond>
-0.255291249772878

> <r_i_glide_metal>
0

> <r_i_glide_rewards>
-2.3818845535695

> <r_i_glide_evdw>
-38.2538757324219

> <r_i_glide_ecoul>
-6.49065494537354

> <r_i_glide_erotb>
0

> <r_i_glide_esite>
-0.178588359887638

> <r_i_glide_emodel>
-67.3021444640011

> <r_i_glide_energy>
-44.7445306777954

> <r_i_glide_einternal>
0

> <i_i_glide_confnum>
1

> <i_i_glide_posenum>
33

> <r_i_glide_eff_state_penalty>
0

> <i_f3d_flags>
0

> <s_user_duplicate_titles>
96662

> <s_m_subgroup_title>
dock_pv

> <s_m_subgroupid>
dock_pv1

> <b_m_subgroup_collapsed>
0

$$$$
248244
                    3D
 Schrodinger Suite 2021-1.
 51 55  0  0  1  0            999 V2000
    7.0217   25.3333    5.6776 C   0  0  0  0  0  0
    6.2616   25.4930    6.8709 O   0  0  0  0  0  0
    5.3756   26.5488    6.9641 C   0  0  0  0  0  0
    4.7086   26.6984    8.1758 C   0  0  0  0  0  0
    3.8266   27.7516    8.3905 C   0  0  0  0  0  0
    3.5618   28.6520    7.3601 C   0  0  0  0  0  0
    4.2168   28.5035    6.1317 C   0  0  0  0  0  0
    5.1165   27.4604    5.9336 C   0  0  0  0  0  0
    2.5248   29.7078    7.5399 C   0  0  0  0  0  0
    1.4106   29.8496    8.3505 C   0  0  0  0  0  0
    0.8285   31.0472    7.9867 C   0  0  0  0  0  0
    1.4628   31.6637    7.0258 N   0  0  0  0  0  0
    2.4579   30.8248    6.7629 N   0  0  0  0  0  0
   -0.3523   31.2909    8.7838 C   0  0  0  0  0  0
   -1.2466   32.3519    8.8012 C   0  0  0  0  0  0
   -2.3703   32.2612    9.6058 C   0  0  0  0  0  0
   -2.5792   31.1419   10.3979 C   0  0  0  0  0  0
   -1.6234   30.1272   10.4866 C   0  0  0  0  0  0
   -0.5019   30.1859    9.6306 C   0  0  0  0  0  0
    0.6088   29.2134    9.3767 C   0  0  0  0  0  0
    0.7831   28.1037    9.8756 O   0  0  0  0  0  0
   -1.9236   29.1171   11.4136 N   0  0  0  0  0  0
   -1.0658   28.5406   12.2746 C   0  0  0  0  0  0
    0.0585   28.9738   12.5345 O   0  0  0  0  0  0
   -1.6041   27.4267   12.8023 N   0  0  0  0  0  0
   -0.7994   26.4646   13.4398 N   0  0  0  0  0  0
   -0.3094   25.4665   12.4886 C   0  0  0  0  0  0
   -0.1819   24.1426   13.2568 C   0  0  0  0  0  0
   -0.7371   24.4605   14.6445 C   0  0  0  0  0  0
   -1.5783   25.7123   14.4104 C   0  0  0  0  0  0
    3.1914   31.0611    6.1026 H   0  0  0  0  0  0
    7.6834   24.4739    5.7842 H   0  0  0  0  0  0
    6.3799   25.1494    4.8147 H   0  0  0  0  0  0
    7.6460   26.2065    5.4796 H   0  0  0  0  0  0
    4.8763   25.9878    8.9681 H   0  0  0  0  0  0
    3.3298   27.8366    9.3461 H   0  0  0  0  0  0
    4.0269   29.1870    5.3179 H   0  0  0  0  0  0
    5.6115   27.3836    4.9777 H   0  0  0  0  0  0
   -1.0996   33.2198    8.1755 H   0  0  0  0  0  0
   -3.1002   33.0520    9.6157 H   0  0  0  0  0  0
   -3.4864   31.1050   10.9760 H   0  0  0  0  0  0
   -2.8903   29.0783   11.7007 H   0  0  0  0  0  0
   -2.4169   27.0118   12.3729 H   0  0  0  0  0  0
    0.6480   25.7891   12.0742 H   0  0  0  0  0  0
   -0.9875   25.3338   11.6421 H   0  0  0  0  0  0
    0.8488   23.7913   13.3120 H   0  0  0  0  0  0
   -0.7837   23.3684   12.7790 H   0  0  0  0  0  0
   -1.3344   23.6408   15.0453 H   0  0  0  0  0  0
    0.0549   24.6605   15.3676 H   0  0  0  0  0  0
   -2.5696   25.4481   14.0331 H   0  0  0  0  0  0
   -1.6962   26.3062   15.3182 H   0  0  0  0  0  0
  1  2  1  0  0  0
  1 32  1  0  0  0
  1 33  1  0  0  0
  1 34  1  0  0  0
  2  3  1  0  0  0
  3  8  1  0  0  0
  3  4  2  0  0  0
  4  5  1  0  0  0
  4 35  1  0  0  0
  5  6  2  0  0  0
  5 36  1  0  0  0
  6  7  1  0  0  0
  6  9  1  0  0  0
  7  8  2  0  0  0
  7 37  1  0  0  0
  8 38  1  0  0  0
  9 13  1  0  0  0
  9 10  2  0  0  0
 10 20  1  0  0  0
 10 11  1  0  0  0
 11 12  2  0  0  0
 11 14  1  0  0  0
 12 13  1  0  0  0
 13 31  1  0  0  0
 14 19  2  0  0  0
 14 15  1  0  0  0
 15 16  2  0  0  0
 15 39  1  0  0  0
 16 17  1  0  0  0
 16 40  1  0  0  0
 17 18  2  0  0  0
 17 41  1  0  0  0
 18 19  1  0  0  0
 18 22  1  0  0  0
 19 20  1  0  0  0
 20 21  2  0  0  0
 22 23  1  0  0  0
 22 42  1  0  0  0
 23 24  2  0  0  0
 23 25  1  0  0  0
 25 26  1  0  0  0
 25 43  1  0  0  0
 26 30  1  0  0  0
 26 27  1  0  0  0
 27 28  1  0  0  0
 27 44  1  0  0  0
 27 45  1  0  0  0
 28 29  1  0  0  0
 28 46  1  0  0  0
 28 47  1  0  0  0
 29 30  1  0  0  0
 29 48  1  0  0  0
 29 49  1  0  0  0
 30 50  1  0  0  0
 30 51  1  0  0  0
M  END
> <s_m_entry_id>
34701

> <s_m_entry_name>
ligand_docking-pose.198

> <s_m_Source_Path>
/home/csk/Desktop/cluster/DUD-E-result/cdk2

> <s_m_Source_File>
ligand_docking-pose.sdf

> <i_m_Source_File_Index>
198

> <i_lp_mmshare_version>
53161

> <r_lp_tautomer_probability>
1

> <s_lp_Force_Field>
OPLS_2005

> <r_lp_Energy>
82.740836

> <b_lp_Chiralities_Consistent>
1

> <s_lp_Variant>
248244-1

> <s_i_glide_gridfile>
glide-grid_1h00

> <i_i_glide_lignum>
1637

> <i_i_glide_rotatable_bonds>
6

> <r_i_docking_score>
-7.72675166956573

> <r_i_glide_ligand_efficiency>
-0.257558388985524

> <r_i_glide_ligand_efficiency_sa>
-0.80029379752961

> <r_i_glide_ligand_efficiency_ln>
-1.75560216902784

> <r_i_glide_gscore>
-7.72675166956573

> <r_i_glide_lipo>
-2.78415766074115

> <r_i_glide_hbond>
-0.268403161101177

> <r_i_glide_metal>
0

> <r_i_glide_rewards>
-1.97872962865879

> <r_i_glide_evdw>
-37.2576484680176

> <r_i_glide_ecoul>
-8.43689918518066

> <r_i_glide_erotb>
0.482515586722796

> <r_i_glide_esite>
-0.0495595046094232

> <r_i_glide_emodel>
-63.6773893859779

> <r_i_glide_energy>
-45.6945476531982

> <r_i_glide_einternal>
6.80529308319092

> <i_i_glide_confnum>
13

> <i_i_glide_posenum>
208

> <r_i_glide_eff_state_penalty>
0

> <i_f3d_flags>
0

> <s_user_duplicate_titles>
248244

> <s_m_subgroup_title>
dock_pv

> <s_m_subgroupid>
dock_pv1

> <b_m_subgroup_collapsed>
0

$$$$
165159
                    3D
 Schrodinger Suite 2021-1.
 41 43  0  0  1  0            999 V2000
   -2.5018   26.1004   13.3843 C   0  0  0  0  0  0
   -1.2771   26.2750   12.4610 C   0  0  0  0  0  0
   -0.0026   25.8425   13.2192 C   0  0  0  0  0  0
   -1.4477   25.3866   11.2079 C   0  0  0  0  0  0
   -1.1630   27.7358   12.0377 C   0  0  0  0  0  0
   -0.2028   28.7333   12.1307 C   0  0  0  0  0  0
   -0.6122   29.8490   11.5606 N   0  0  0  0  0  0
   -1.7882   29.5375   11.0622 C   0  0  0  0  0  0
   -2.2005   28.2787   11.3578 O   0  0  0  0  0  0
   -2.6864   30.3676   10.1615 C   0  0  0  0  0  0
   -2.0905   32.0490    9.7764 S   0  0  0  0  0  0
   -0.7000   31.7664    8.7216 C   0  0  0  0  0  0
    0.0610   32.7400    8.0941 C   0  0  0  0  0  0
    1.1031   32.3483    7.3761 N   0  0  0  0  0  0
    1.2899   31.0564    7.4596 C   0  0  0  0  0  0
    0.0204   30.2339    8.3162 S   0  0  0  0  0  0
    2.4278   30.4361    6.9796 N   0  0  0  0  0  0
    3.0586   29.2456    7.3810 C   0  0  0  0  0  0
    3.9850   28.6519    6.5140 C   0  0  0  0  0  0
    4.6689   27.5081    6.9291 C   0  0  0  0  0  0
    4.4646   26.9306    8.1392 N   0  0  0  0  0  0
    3.5700   27.5136    8.9753 C   0  0  0  0  0  0
    2.8627   28.6644    8.6406 C   0  0  0  0  0  0
   -2.6159   25.0672   13.7149 H   0  0  0  0  0  0
   -3.4258   26.3901   12.8814 H   0  0  0  0  0  0
   -2.4214   26.7269   14.2733 H   0  0  0  0  0  0
    0.8830   25.9397   12.5897 H   0  0  0  0  0  0
    0.1636   26.4569   14.1056 H   0  0  0  0  0  0
   -0.0595   24.8023   13.5437 H   0  0  0  0  0  0
   -0.5994   25.4900   10.5301 H   0  0  0  0  0  0
   -1.5339   24.3314   11.4694 H   0  0  0  0  0  0
   -2.3421   25.6548   10.6431 H   0  0  0  0  0  0
    0.7752   28.6516   12.5759 H   0  0  0  0  0  0
   -2.8623   29.8515    9.2203 H   0  0  0  0  0  0
   -3.6721   30.4759   10.6097 H   0  0  0  0  0  0
   -0.1566   33.7914    8.1763 H   0  0  0  0  0  0
    3.0453   30.9534    6.3623 H   0  0  0  0  0  0
    4.1793   29.0520    5.5313 H   0  0  0  0  0  0
    5.3932   27.0317    6.2831 H   0  0  0  0  0  0
    3.4135   27.0508    9.9359 H   0  0  0  0  0  0
    2.2014   29.0926    9.3746 H   0  0  0  0  0  0
  1  2  1  0  0  0
  1 24  1  0  0  0
  1 25  1  0  0  0
  1 26  1  0  0  0
  2  3  1  0  0  0
  2  4  1  0  0  0
  2  5  1  0  0  0
  3 27  1  0  0  0
  3 28  1  0  0  0
  3 29  1  0  0  0
  4 30  1  0  0  0
  4 31  1  0  0  0
  4 32  1  0  0  0
  5  9  1  0  0  0
  5  6  2  0  0  0
  6  7  1  0  0  0
  6 33  1  0  0  0
  7  8  2  0  0  0
  8  9  1  0  0  0
  8 10  1  0  0  0
 10 11  1  0  0  0
 10 34  1  0  0  0
 10 35  1  0  0  0
 11 12  1  0  0  0
 12 16  1  0  0  0
 12 13  2  0  0  0
 13 14  1  0  0  0
 13 36  1  0  0  0
 14 15  2  0  0  0
 15 16  1  0  0  0
 15 17  1  0  0  0
 17 18  1  0  0  0
 17 37  1  0  0  0
 18 23  1  0  0  0
 18 19  2  0  0  0
 19 20  1  0  0  0
 19 38  1  0  0  0
 20 21  2  0  0  0
 20 39  1  0  0  0
 21 22  1  0  0  0
 22 23  2  0  0  0
 22 40  1  0  0  0
 23 41  1  0  0  0
M  END
> <s_m_entry_id>
34704

> <s_m_entry_name>
ligand_docking-pose.201

> <s_m_Source_Path>
/home/csk/Desktop/cluster/DUD-E-result/cdk2

> <s_m_Source_File>
ligand_docking-pose.sdf

> <i_m_Source_File_Index>
201

> <i_lp_mmshare_version>
53161

> <r_lp_tautomer_probability>
0.999999106000799

> <s_lp_Force_Field>
OPLS_2005

> <r_lp_Energy>
9.362932

> <b_lp_Chiralities_Consistent>
1

> <s_lp_Variant>
165159-1

> <s_i_glide_gridfile>
glide-grid_1h00

> <i_i_glide_lignum>
1143

> <i_i_glide_rotatable_bonds>
6

> <r_i_docking_score>
-7.71347497936846

> <r_i_glide_ligand_efficiency>
-0.335368477363846

> <r_i_glide_ligand_efficiency_sa>
-0.953743337861321

> <r_i_glide_ligand_efficiency_ln>
-1.86518819193546

> <r_i_glide_gscore>
-7.71347497936846

> <r_i_glide_lipo>
-3.01770330330983

> <r_i_glide_hbond>
-0.303395291421169

> <r_i_glide_metal>
0

> <r_i_glide_rewards>
-2.38300663001941

> <r_i_glide_evdw>
-39.7495346069336

> <r_i_glide_ecoul>
-5.4253191947937

> <r_i_glide_erotb>
0.791904854947683

> <r_i_glide_esite>
0

> <r_i_glide_emodel>
-61.9898138313857

> <r_i_glide_energy>
-45.1748538017273

> <r_i_glide_einternal>
5.29158544540405

> <i_i_glide_confnum>
52

> <i_i_glide_posenum>
235

> <r_i_glide_eff_state_penalty>
0

> <i_f3d_flags>
0

> <s_user_duplicate_titles>
165159

> <s_m_subgroup_title>
dock_pv

> <s_m_subgroupid>
dock_pv1

> <b_m_subgroup_collapsed>
0

$$$$
66798
                    3D
 Schrodinger Suite 2021-1.
 44 46  0  0  1  0            999 V2000
    1.7354   25.6337   10.2898 C   0  0  0  0  0  0
    0.7635   26.5369   11.0246 C   0  0  0  0  0  0
    0.3858   27.8579   10.7358 C   0  0  0  0  0  0
   -0.7430   28.3691   11.9694 S   0  0  0  0  0  0
   -0.6238   26.8092   12.7085 C   0  0  0  0  0  0
    0.1935   25.9972   12.0876 N   0  0  0  0  0  0
   -1.3769   26.4175   13.9589 C   0  0  0  0  0  0
    0.8028   28.8127    9.6621 C   0  0  0  0  0  0
   -0.0472   29.8142    9.1712 C   0  0  0  0  0  0
    0.4586   30.6518    8.1759 C   0  0  0  0  0  0
    1.7221   30.5281    7.6971 N   0  0  0  0  0  0
    2.4759   29.5272    8.2231 C   0  0  0  0  0  0
    2.0650   28.6519    9.1769 N   0  0  0  0  0  0
    3.7958   29.4525    7.7766 N   0  0  0  0  0  0
    4.3508   28.3713    7.0926 C   0  0  0  0  0  0
    4.0483   28.2127    5.7453 C   0  0  0  0  0  0
    4.6355   27.1909    5.0088 C   0  0  0  0  0  0
    5.5685   26.3217    5.5956 C   0  0  0  0  0  0
    5.8825   26.4860    6.9691 C   0  0  0  0  0  0
    5.2578   27.5100    7.7029 C   0  0  0  0  0  0
    6.8124   25.5779    7.6785 N   0  3  0  0  0  0
    7.5026   26.0523    8.5756 O   0  5  0  0  0  0
    6.8328   24.3889    7.3759 O   0  0  0  0  0  0
    6.2207   25.3531    4.7942 N   0  0  0  0  0  0
    7.6196   25.6706    4.5158 C   0  0  0  0  0  0
    5.4987   24.7689    3.6659 C   0  0  0  0  0  0
    2.0725   26.0520    9.3432 H   0  0  0  0  0  0
    2.6325   25.4524   10.8837 H   0  0  0  0  0  0
    1.2979   24.6629   10.0541 H   0  0  0  0  0  0
   -1.5988   25.3501   13.9882 H   0  0  0  0  0  0
   -2.3304   26.9425   14.0378 H   0  0  0  0  0  0
   -0.8047   26.6538   14.8572 H   0  0  0  0  0  0
   -1.0527   29.9429    9.5445 H   0  0  0  0  0  0
   -0.1403   31.4547    7.7718 H   0  0  0  0  0  0
    4.0425   30.3077    7.2877 H   0  0  0  0  0  0
    3.3585   28.8913    5.2663 H   0  0  0  0  0  0
    4.3879   27.1100    3.9612 H   0  0  0  0  0  0
    5.4789   27.6407    8.7544 H   0  0  0  0  0  0
    8.1575   25.9849    5.4110 H   0  0  0  0  0  0
    8.1417   24.8029    4.1080 H   0  0  0  0  0  0
    7.6896   26.4894    3.7977 H   0  0  0  0  0  0
    4.4793   24.5038    3.9498 H   0  0  0  0  0  0
    5.4464   25.4589    2.8217 H   0  0  0  0  0  0
    5.9877   23.8537    3.3301 H   0  0  0  0  0  0
  1  2  1  0  0  0
  1 27  1  0  0  0
  1 28  1  0  0  0
  1 29  1  0  0  0
  2  6  1  0  0  0
  2  3  2  0  0  0
  3  4  1  0  0  0
  3  8  1  0  0  0
  4  5  1  0  0  0
  5  6  2  0  0  0
  5  7  1  0  0  0
  7 30  1  0  0  0
  7 31  1  0  0  0
  7 32  1  0  0  0
  8 13  1  0  0  0
  8  9  2  0  0  0
  9 10  1  0  0  0
  9 33  1  0  0  0
 10 11  2  0  0  0
 10 34  1  0  0  0
 11 12  1  0  0  0
 12 13  2  0  0  0
 12 14  1  0  0  0
 14 15  1  0  0  0
 14 35  1  0  0  0
 15 20  1  0  0  0
 15 16  2  0  0  0
 16 17  1  0  0  0
 16 36  1  0  0  0
 17 18  2  0  0  0
 17 37  1  0  0  0
 18 19  1  0  0  0
 18 24  1  0  0  0
 19 20  2  0  0  0
 19 21  1  0  0  0
 20 38  1  0  0  0
 21 22  1  0  0  0
 21 23  2  0  0  0
 24 25  1  0  0  0
 24 26  1  0  0  0
 25 39  1  0  0  0
 25 40  1  0  0  0
 25 41  1  0  0  0
 26 42  1  0  0  0
 26 43  1  0  0  0
 26 44  1  0  0  0
M  CHG  2  21   1  22  -1
M  END
> <s_m_entry_id>
34705

> <s_m_entry_name>
ligand_docking-pose.202

> <s_m_Source_Path>
/home/csk/Desktop/cluster/DUD-E-result/cdk2

> <s_m_Source_File>
ligand_docking-pose.sdf

> <i_m_Source_File_Index>
202

> <i_lp_mmshare_version>
53161

> <r_lp_tautomer_probability>
0.999999987636

> <s_lp_Force_Field>
OPLS_2005

> <r_lp_Energy>
17.141211

> <b_lp_Chiralities_Consistent>
1

> <s_lp_Variant>
66798-1

> <s_i_glide_gridfile>
glide-grid_1h00

> <i_i_glide_lignum>
832

> <i_i_glide_rotatable_bonds>
5

> <r_i_docking_score>
-7.71285797188745

> <r_i_glide_ligand_efficiency>
-0.296648383534133

> <r_i_glide_ligand_efficiency_sa>
-0.878819668964843

> <r_i_glide_ligand_efficiency_ln>
-1.81133938674655

> <r_i_glide_gscore>
-7.71285797188745

> <r_i_glide_lipo>
-2.55174518884689

> <r_i_glide_hbond>
-0.32

> <r_i_glide_metal>
0

> <r_i_glide_rewards>
-2.43174140537625

> <r_i_glide_evdw>
-42.5833473205566

> <r_i_glide_ecoul>
-4.57000112533569

> <r_i_glide_erotb>
0.421780556149465

> <r_i_glide_esite>
-0.0164843989855909

> <r_i_glide_emodel>
-61.1786785894912

> <r_i_glide_energy>
-47.1533484458923

> <r_i_glide_einternal>
13.0339403152466

> <i_i_glide_confnum>
6

> <i_i_glide_posenum>
63

> <r_i_glide_eff_state_penalty>
0

> <i_f3d_flags>
0

> <s_user_duplicate_titles>
66798

> <s_m_subgroup_title>
dock_pv

> <s_m_subgroupid>
dock_pv1

> <b_m_subgroup_collapsed>
0

$$$$
307131
                    3D
 Schrodinger Suite 2021-1.
 40 42  0  0  1  0            999 V2000
    6.0534   26.3723    4.6509 C   0  0  0  0  0  0
    5.3386   26.6846    5.9543 C   0  0  0  0  0  0
    4.7210   27.9266    6.1377 C   0  0  0  0  0  0
    4.0578   28.2269    7.3309 C   0  0  0  0  0  0
    4.0551   27.2889    8.3623 C   0  0  0  0  0  0
    4.6469   26.0403    8.1759 C   0  0  0  0  0  0
    5.2943   25.7367    6.9810 C   0  0  0  0  0  0
    5.8801   24.5260    6.8297 F   0  0  0  0  0  0
    3.3868   29.4520    7.4118 N   0  0  0  0  0  0
    2.1649   29.8520    7.9705 C   0  0  0  0  0  0
    1.6586   30.9604    7.3761 N   0  0  0  0  0  0
    0.4580   31.3938    7.8166 C   0  0  0  0  0  0
   -0.2550   30.7311    8.8120 C   0  0  0  0  0  0
    0.3193   29.5849    9.3843 C   0  0  0  0  0  0
    1.5533   29.1520    8.9759 N   0  0  0  0  0  0
   -0.3623   28.8311   10.5124 C   0  0  0  0  0  0
    0.1712   27.7540   11.2856 C   0  0  0  0  0  0
   -0.7513   27.4780   12.2962 C   0  0  0  0  0  0
   -1.8388   28.2726   12.1058 N   0  0  0  0  0  0
   -1.6690   29.0515   10.9969 C   0  0  0  0  0  0
   -2.8246   29.9313   10.5662 C   0  0  0  0  0  0
   -0.7424   26.5456   13.4126 C   0  0  0  0  0  0
   -0.7416   25.8068   14.3042 N   0  0  0  0  0  0
    1.4862   27.0294   11.0824 C   0  0  0  0  0  0
   -2.6572   28.2934   12.7046 H   0  0  0  0  0  0
    7.0870   26.0868    4.8520 H   0  0  0  0  0  0
    5.5738   25.5322    4.1462 H   0  0  0  0  0  0
    6.0686   27.2269    3.9730 H   0  0  0  0  0  0
    4.7434   28.6568    5.3410 H   0  0  0  0  0  0
    3.5841   27.5125    9.3042 H   0  0  0  0  0  0
    4.6183   25.3120    8.9720 H   0  0  0  0  0  0
    3.7542   30.1468    6.7697 H   0  0  0  0  0  0
    0.0777   32.3043    7.3760 H   0  0  0  0  0  0
   -1.1890   31.1504    9.1367 H   0  0  0  0  0  0
   -2.9600   29.9302    9.4850 H   0  0  0  0  0  0
   -3.7765   29.5926   10.9757 H   0  0  0  0  0  0
   -2.6946   30.9635   10.8933 H   0  0  0  0  0  0
    2.3298   27.7102   11.1937 H   0  0  0  0  0  0
    1.5562   26.6202   10.0749 H   0  0  0  0  0  0
    1.6382   26.2026   11.7756 H   0  0  0  0  0  0
  1  2  1  0  0  0
  1 26  1  0  0  0
  1 27  1  0  0  0
  1 28  1  0  0  0
  2  7  1  0  0  0
  2  3  2  0  0  0
  3  4  1  0  0  0
  3 29  1  0  0  0
  4  5  2  0  0  0
  4  9  1  0  0  0
  5  6  1  0  0  0
  5 30  1  0  0  0
  6  7  2  0  0  0
  6 31  1  0  0  0
  7  8  1  0  0  0
  9 10  1  0  0  0
  9 32  1  0  0  0
 10 15  1  0  0  0
 10 11  2  0  0  0
 11 12  1  0  0  0
 12 13  2  0  0  0
 12 33  1  0  0  0
 13 14  1  0  0  0
 13 34  1  0  0  0
 14 15  2  0  0  0
 14 16  1  0  0  0
 16 20  2  0  0  0
 16 17  1  0  0  0
 17 18  2  0  0  0
 17 24  1  0  0  0
 18 19  1  0  0  0
 18 22  1  0  0  0
 19 25  1  0  0  0
 19 20  1  0  0  0
 20 21  1  0  0  0
 21 35  1  0  0  0
 21 36  1  0  0  0
 21 37  1  0  0  0
 22 23  3  0  0  0
 24 38  1  0  0  0
 24 39  1  0  0  0
 24 40  1  0  0  0
M  END
> <s_m_entry_id>
34706

> <s_m_entry_name>
ligand_docking-pose.203

> <s_m_Source_Path>
/home/csk/Desktop/cluster/DUD-E-result/cdk2

> <s_m_Source_File>
ligand_docking-pose.sdf

> <i_m_Source_File_Index>
203

> <i_lp_mmshare_version>
53161

> <r_lp_tautomer_probability>
0.999999987636

> <s_lp_Force_Field>
OPLS_2005

> <r_lp_Energy>
6.374969

> <b_lp_Chiralities_Consistent>
1

> <s_lp_Variant>
307131-1

> <s_i_glide_gridfile>
glide-grid_1h00

> <i_i_glide_lignum>
721

> <i_i_glide_rotatable_bonds>
3

> <r_i_docking_score>
-7.71285444029437

> <r_i_glide_ligand_efficiency>
-0.321368935012265

> <r_i_glide_ligand_efficiency_sa>
-0.926988415881172

> <r_i_glide_ligand_efficiency_ln>
-1.84603998739098

> <r_i_glide_gscore>
-7.71285444029437

> <r_i_glide_lipo>
-2.05882124361414

> <r_i_glide_hbond>
-0.41176764890788

> <r_i_glide_metal>
0

> <r_i_glide_rewards>
-2.84595182303949

> <r_i_glide_evdw>
-36.9245681762695

> <r_i_glide_ecoul>
-7.07492780685425

> <r_i_glide_erotb>
0.542828149549782

> <r_i_glide_esite>
-0.0316742944410334

> <r_i_glide_emodel>
-62.9609229853332

> <r_i_glide_energy>
-43.9994959831238

> <r_i_glide_einternal>
2.01803255081177

> <i_i_glide_confnum>
4

> <i_i_glide_posenum>
334

> <r_i_glide_eff_state_penalty>
0

> <i_f3d_flags>
0

> <s_user_duplicate_titles>
307131

> <s_m_subgroup_title>
dock_pv

> <s_m_subgroupid>
dock_pv1

> <b_m_subgroup_collapsed>
0

$$$$
311788
                    3D
 Schrodinger Suite 2021-1.
 35 37  0  0  1  0            999 V2000
    4.4115   25.5912    4.2568 C   0  0  0  0  0  0
    4.5001   25.1102    5.5630 C   0  0  0  0  0  0
    4.6436   26.0059    6.6198 C   0  0  0  0  0  0
    4.6909   27.3803    6.3698 C   0  0  0  0  0  0
    4.5902   27.8542    5.0569 C   0  0  0  0  0  0
    4.4591   26.9586    4.0002 C   0  0  0  0  0  0
    4.7984   28.3656    7.5289 C   0  0  0  0  0  0
    3.4169   28.7898    8.0423 C   0  0  0  0  0  0
    2.9095   28.1670    8.9748 O   0  0  0  0  0  0
    2.8610   29.8514    7.4190 N   0  0  0  0  0  0
    1.6704   30.4944    7.7150 C   0  0  0  0  0  0
    1.4757   31.7044    7.2768 N   0  0  0  0  0  0
    0.3776   32.2243    7.7760 C   0  0  0  0  0  0
   -0.4391   31.4182    8.5764 C   0  0  0  0  0  0
    0.3722   29.8626    8.6945 S   0  0  0  0  0  0
   -1.7504   31.7805    9.2691 C   0  0  0  0  0  0
   -3.0162   31.0348    8.8024 C   0  0  0  0  0  0
   -2.8479   30.0606    9.9761 C   0  0  0  0  0  0
   -2.0077   31.1522   10.6508 C   0  0  0  0  0  0
    4.3034   24.8993    3.4342 H   0  0  0  0  0  0
    4.4518   24.0483    5.7522 H   0  0  0  0  0  0
    4.7020   25.6353    7.6328 H   0  0  0  0  0  0
    4.6183   28.9157    4.8585 H   0  0  0  0  0  0
    4.3888   27.3171    2.9834 H   0  0  0  0  0  0
    5.3585   27.9191    8.3544 H   0  0  0  0  0  0
    5.3602   29.2475    7.2166 H   0  0  0  0  0  0
    3.4540   30.3343    6.7538 H   0  0  0  0  0  0
    0.1427   33.2495    7.5257 H   0  0  0  0  0  0
   -1.8723   32.8648    9.2613 H   0  0  0  0  0  0
   -3.9185   31.6376    8.8895 H   0  0  0  0  0  0
   -2.9964   30.6518    7.7824 H   0  0  0  0  0  0
   -3.7628   29.7869   10.5021 H   0  0  0  0  0  0
   -2.2805   29.1598    9.7422 H   0  0  0  0  0  0
   -1.1249   30.8319   11.2055 H   0  0  0  0  0  0
   -2.5862   31.8036   11.3101 H   0  0  0  0  0  0
  1  6  1  0  0  0
  1  2  2  0  0  0
  1 20  1  0  0  0
  2  3  1  0  0  0
  2 21  1  0  0  0
  3  4  2  0  0  0
  3 22  1  0  0  0
  4  5  1  0  0  0
  4  7  1  0  0  0
  5  6  2  0  0  0
  5 23  1  0  0  0
  6 24  1  0  0  0
  7  8  1  0  0  0
  7 25  1  0  0  0
  7 26  1  0  0  0
  8  9  2  0  0  0
  8 10  1  0  0  0
 10 11  1  0  0  0
 10 27  1  0  0  0
 11 15  1  0  0  0
 11 12  2  0  0  0
 12 13  1  0  0  0
 13 14  2  0  0  0
 13 28  1  0  0  0
 14 15  1  0  0  0
 14 16  1  0  0  0
 16 19  1  0  0  0
 16 17  1  0  0  0
 16 29  1  0  0  0
 17 18  1  0  0  0
 17 30  1  0  0  0
 17 31  1  0  0  0
 18 19  1  0  0  0
 18 32  1  0  0  0
 18 33  1  0  0  0
 19 34  1  0  0  0
 19 35  1  0  0  0
M  END
> <s_m_entry_id>
34707

> <s_m_entry_name>
ligand_docking-pose.204

> <s_m_Source_Path>
/home/csk/Desktop/cluster/DUD-E-result/cdk2

> <s_m_Source_File>
ligand_docking-pose.sdf

> <i_m_Source_File_Index>
204

> <i_lp_mmshare_version>
53161

> <r_lp_tautomer_probability>
0.999000488399163

> <s_lp_Force_Field>
OPLS_2005

> <r_lp_Energy>
12.768207

> <b_lp_Chiralities_Consistent>
1

> <s_lp_Variant>
311788-1

> <s_i_glide_gridfile>
glide-grid_1h00

> <i_i_glide_lignum>
273

> <i_i_glide_rotatable_bonds>
5

> <r_i_docking_score>
-7.7076147925555

> <r_i_glide_ligand_efficiency>
-0.40566393645029

> <r_i_glide_ligand_efficiency_sa>
-1.08247431578856

> <r_i_glide_ligand_efficiency_ln>
-1.9540458942996

> <r_i_glide_gscore>
-7.7076147925555

> <r_i_glide_lipo>
-2.77378842110299

> <r_i_glide_hbond>
-0.32

> <r_i_glide_metal>
0

> <r_i_glide_rewards>
-3.34158609542519

> <r_i_glide_evdw>
-31.7973575592041

> <r_i_glide_ecoul>
-4.32433795928955

> <r_i_glide_erotb>
0.96627829582632

> <r_i_glide_esite>
0

> <r_i_glide_emodel>
-50.1017905909732

> <r_i_glide_energy>
-36.1216955184937

> <r_i_glide_einternal>
4.44513654708862

> <i_i_glide_confnum>
21

> <i_i_glide_posenum>
80

> <r_i_glide_eff_state_penalty>
0

> <i_f3d_flags>
0

> <s_user_duplicate_titles>
311788

> <s_m_subgroup_title>
dock_pv

> <s_m_subgroupid>
dock_pv1

> <b_m_subgroup_collapsed>
0

$$$$
307125
                    3D
 Schrodinger Suite 2021-1.
 39 41  0  0  1  0            999 V2000
    2.3827   27.3333   10.1672 C   0  0  0  0  0  0
    2.4723   28.4147    9.1165 C   0  0  0  0  0  0
    3.5297   28.5418    8.2196 C   0  0  0  0  0  0
    3.2780   29.6179    7.4362 N   0  0  0  0  0  0
    2.0964   30.2018    7.7749 C   0  0  0  0  0  0
    1.5275   29.4520    8.8190 C   0  0  0  0  0  0
    0.1574   29.6734    9.4333 C   0  0  0  0  0  0
   -0.7208   30.6711    8.9763 C   0  0  0  0  0  0
   -1.9638   30.7840    9.5907 C   0  0  0  0  0  0
   -2.3442   29.9599   10.5884 N   0  0  0  0  0  0
   -1.4581   29.0142   10.9856 C   0  0  0  0  0  0
   -0.2217   28.8305   10.4418 N   0  0  0  0  0  0
   -1.9458   28.2020   12.0171 N   0  0  0  0  0  0
   -1.6057   26.9511   12.5542 C   0  0  0  0  0  0
   -0.3606   26.3471   12.3876 C   0  0  0  0  0  0
   -0.1076   25.0868   12.9248 C   0  0  0  0  0  0
   -1.0885   24.4297   13.6667 C   0  0  0  0  0  0
   -2.3426   25.0249   13.8681 C   0  0  0  0  0  0
   -2.5841   26.2809   13.2945 C   0  0  0  0  0  0
   -3.3930   24.3450   14.6609 N   0  3  0  0  0  0
   -3.0637   23.4041   15.3764 O   0  5  0  0  0  0
   -4.5498   24.7535   14.5832 O   0  0  0  0  0  0
    1.6576   31.3919    6.9623 C   0  0  0  0  0  0
    4.7175   27.7395    7.9767 C   0  0  0  0  0  0
    5.6577   27.0960    7.7766 N   0  0  0  0  0  0
    3.8975   29.9697    6.7129 H   0  0  0  0  0  0
    1.5132   26.6990    9.9986 H   0  0  0  0  0  0
    2.2776   27.7721   11.1589 H   0  0  0  0  0  0
    3.2571   26.6841   10.1956 H   0  0  0  0  0  0
   -0.4954   31.3475    8.1749 H   0  0  0  0  0  0
   -2.6778   31.5367    9.2826 H   0  0  0  0  0  0
   -2.7930   28.5901   12.4158 H   0  0  0  0  0  0
    0.4208   26.8533   11.8570 H   0  0  0  0  0  0
    0.8562   24.6228   12.7691 H   0  0  0  0  0  0
   -0.8688   23.4540   14.0787 H   0  0  0  0  0  0
   -3.5452   26.7534   13.4313 H   0  0  0  0  0  0
    1.3185   32.2317    7.5673 H   0  0  0  0  0  0
    2.4450   31.7798    6.3162 H   0  0  0  0  0  0
    0.8604   31.0648    6.3029 H   0  0  0  0  0  0
  1  2  1  0  0  0
  1 27  1  0  0  0
  1 28  1  0  0  0
  1 29  1  0  0  0
  2  6  1  0  0  0
  2  3  2  0  0  0
  3  4  1  0  0  0
  3 24  1  0  0  0
  4 26  1  0  0  0
  4  5  1  0  0  0
  5  6  2  0  0  0
  5 23  1  0  0  0
  6  7  1  0  0  0
  7 12  1  0  0  0
  7  8  2  0  0  0
  8  9  1  0  0  0
  8 30  1  0  0  0
  9 10  2  0  0  0
  9 31  1  0  0  0
 10 11  1  0  0  0
 11 12  2  0  0  0
 11 13  1  0  0  0
 13 14  1  0  0  0
 13 32  1  0  0  0
 14 19  1  0  0  0
 14 15  2  0  0  0
 15 16  1  0  0  0
 15 33  1  0  0  0
 16 17  2  0  0  0
 16 34  1  0  0  0
 17 18  1  0  0  0
 17 35  1  0  0  0
 18 19  2  0  0  0
 18 20  1  0  0  0
 19 36  1  0  0  0
 20 21  1  0  0  0
 20 22  2  0  0  0
 23 37  1  0  0  0
 23 38  1  0  0  0
 23 39  1  0  0  0
 24 25  3  0  0  0
M  CHG  2  20   1  21  -1
M  END
> <s_m_entry_id>
34708

> <s_m_entry_name>
ligand_docking-pose.205

> <s_m_Source_Path>
/home/csk/Desktop/cluster/DUD-E-result/cdk2

> <s_m_Source_File>
ligand_docking-pose.sdf

> <i_m_Source_File_Index>
205

> <i_lp_mmshare_version>
53161

> <r_lp_tautomer_probability>
0.999999987636

> <s_lp_Force_Field>
OPLS_2005

> <r_lp_Energy>
8.158197

> <b_lp_Chiralities_Consistent>
1

> <s_lp_Variant>
307125-1

> <s_i_glide_gridfile>
glide-grid_1h00

> <i_i_glide_lignum>
814

> <i_i_glide_rotatable_bonds>
4

> <r_i_docking_score>
-7.70539181195475

> <r_i_glide_ligand_efficiency>
-0.30821567247819

> <r_i_glide_ligand_efficiency_sa>
-0.901228092554455

> <r_i_glide_ligand_efficiency_ln>
-1.82640877139243

> <r_i_glide_gscore>
-7.70539181195475

> <r_i_glide_lipo>
-2.21459648896113

> <r_i_glide_hbond>
-0.357935790131295

> <r_i_glide_metal>
0

> <r_i_glide_rewards>
-2.58671697902227

> <r_i_glide_evdw>
-39.9897003173828

> <r_i_glide_ecoul>
-6.00174951553345

> <r_i_glide_erotb>
0.506159540344057

> <r_i_glide_esite>
-0.152554650984956

> <r_i_glide_emodel>
-66.9389733520175

> <r_i_glide_energy>
-45.9914498329163

> <r_i_glide_einternal>
2.15316104888916

> <i_i_glide_confnum>
19

> <i_i_glide_posenum>
299

> <r_i_glide_eff_state_penalty>
0

> <i_f3d_flags>
0

> <s_user_duplicate_titles>
307125

> <s_m_subgroup_title>
dock_pv

> <s_m_subgroupid>
dock_pv1

> <b_m_subgroup_collapsed>
0

$$$$
301225
                    3D
 Schrodinger Suite 2021-1.
 36 39  0  0  1  0            999 V2000
   -0.3239   22.1513   12.1387 C   0  0  0  0  0  0
    0.6784   23.1607   12.1956 O   0  0  0  0  0  0
    0.4120   24.4084   11.6645 C   0  0  0  0  0  0
    1.4350   25.3495   11.7526 C   0  0  0  0  0  0
    1.2580   26.6385   11.2596 C   0  0  0  0  0  0
    0.0599   27.0040   10.6577 C   0  0  0  0  0  0
   -0.9720   26.0615   10.5529 C   0  0  0  0  0  0
   -0.7997   24.7762   11.0612 C   0  0  0  0  0  0
   -0.1002   28.3008   10.1157 N   0  0  0  0  0  0
    0.7285   29.0928    9.3265 C   0  0  0  0  0  0
   -0.0524   30.1986    8.9153 C   0  0  0  0  0  0
    0.4583   31.0889    7.9513 C   0  0  0  0  0  0
    1.7202   30.9000    7.3758 C   0  0  0  0  0  0
    2.5091   29.8523    7.8604 C   0  0  0  0  0  0
    2.0558   28.9376    8.8262 C   0  0  0  0  0  0
    3.1249   27.9976    8.9835 C   0  0  0  0  0  0
    4.1524   28.3433    8.2502 N   0  0  0  0  0  0
    3.7960   29.4520    7.5759 N   0  0  0  0  0  0
   -1.2816   30.0825    9.6521 C   0  0  0  0  0  0
   -1.2713   28.9462   10.3147 N   0  0  0  0  0  0
   -2.4313   30.9513    9.6675 C   0  0  0  0  0  0
   -3.5799   30.5306    9.7744 O   0  0  0  0  0  0
   -2.1578   32.2511    9.5541 N   0  0  0  0  0  0
    4.4446   29.9158    6.9476 H   0  0  0  0  0  0
    0.0489   21.2441   12.6149 H   0  0  0  0  0  0
   -1.2299   22.4519   12.6676 H   0  0  0  0  0  0
   -0.5763   21.8997   11.1074 H   0  0  0  0  0  0
    2.3745   25.0888   12.2152 H   0  0  0  0  0  0
    2.0529   27.3603   11.3756 H   0  0  0  0  0  0
   -1.9105   26.3153   10.0817 H   0  0  0  0  0  0
   -1.6195   24.0818   10.9766 H   0  0  0  0  0  0
   -0.1362   31.9281    7.6237 H   0  0  0  0  0  0
    2.0918   31.5802    6.6251 H   0  0  0  0  0  0
    3.1881   27.1040    9.5838 H   0  0  0  0  0  0
   -1.2028   32.5717    9.5250 H   0  0  0  0  0  0
   -2.9198   32.9131    9.5744 H   0  0  0  0  0  0
  1  2  1  0  0  0
  1 25  1  0  0  0
  1 26  1  0  0  0
  1 27  1  0  0  0
  2  3  1  0  0  0
  3  8  1  0  0  0
  3  4  2  0  0  0
  4  5  1  0  0  0
  4 28  1  0  0  0
  5  6  2  0  0  0
  5 29  1  0  0  0
  6  7  1  0  0  0
  6  9  1  0  0  0
  7  8  2  0  0  0
  7 30  1  0  0  0
  8 31  1  0  0  0
  9 20  1  0  0  0
  9 10  1  0  0  0
 10 15  2  0  0  0
 10 11  1  0  0  0
 11 12  2  0  0  0
 11 19  1  0  0  0
 12 13  1  0  0  0
 12 32  1  0  0  0
 13 14  2  0  0  0
 13 33  1  0  0  0
 14 18  1  0  0  0
 14 15  1  0  0  0
 15 16  1  0  0  0
 16 17  2  0  0  0
 16 34  1  0  0  0
 17 18  1  0  0  0
 18 24  1  0  0  0
 19 20  2  0  0  0
 19 21  1  0  0  0
 21 22  2  0  0  0
 21 23  1  0  0  0
 23 35  1  0  0  0
 23 36  1  0  0  0
M  END
> <s_m_entry_id>
34710

> <s_m_entry_name>
ligand_docking-pose.207

> <s_m_Source_Path>
/home/csk/Desktop/cluster/DUD-E-result/cdk2

> <s_m_Source_File>
ligand_docking-pose.sdf

> <i_m_Source_File_Index>
207

> <i_lp_mmshare_version>
53161

> <r_lp_tautomer_probability>
1

> <s_lp_Force_Field>
OPLS_2005

> <r_lp_Energy>
62.62436

> <b_lp_Chiralities_Consistent>
1

> <s_lp_Variant>
301225-1

> <s_i_glide_gridfile>
glide-grid_1h00

> <i_i_glide_lignum>
1697

> <i_i_glide_rotatable_bonds>
3

> <r_i_docking_score>
-7.69791058961726

> <r_i_glide_ligand_efficiency>
-0.334691764765968

> <r_i_glide_ligand_efficiency_sa>
-0.951818857251376

> <r_i_glide_ligand_efficiency_ln>
-1.86142458136354

> <r_i_glide_gscore>
-7.69791058961726

> <r_i_glide_lipo>
-2.51021348071739

> <r_i_glide_hbond>
-0.271996855391849

> <r_i_glide_metal>
0

> <r_i_glide_rewards>
-2.65901676851704

> <r_i_glide_evdw>
-37.1399002075195

> <r_i_glide_ecoul>
-3.96950173377991

> <r_i_glide_erotb>
0.195736785451985

> <r_i_glide_esite>
0

> <r_i_glide_emodel>
-59.292407459053

> <r_i_glide_energy>
-41.1094019412994

> <r_i_glide_einternal>
3.97565078735352

> <i_i_glide_confnum>
1

> <i_i_glide_posenum>
379

> <r_i_glide_eff_state_penalty>
0

> <i_f3d_flags>
0

> <s_user_duplicate_titles>
301225

> <s_m_subgroup_title>
dock_pv

> <s_m_subgroupid>
dock_pv1

> <b_m_subgroup_collapsed>
0

$$$$
301056
                    3D
 Schrodinger Suite 2021-1.
 38 41  0  0  1  0            999 V2000
    0.8364   26.2964   10.5755 C   0  0  0  0  0  0
    0.9437   25.0820   11.2430 C   0  0  0  0  0  0
    0.2401   24.8557   12.4225 C   0  0  0  0  0  0
   -0.5544   25.8836   12.9501 C   0  0  0  0  0  0
   -0.6600   27.1026   12.2834 C   0  0  0  0  0  0
    0.0232   27.3169   11.0742 C   0  0  0  0  0  0
   -0.1693   28.5259   10.3425 N   0  0  0  0  0  0
    0.6493   29.2165    9.4579 C   0  0  0  0  0  0
   -0.0843   30.3325    9.0446 C   0  0  0  0  0  0
   -1.3386   30.1935    9.6700 C   0  0  0  0  0  0
   -1.3727   29.1221   10.4263 N   0  0  0  0  0  0
   -2.4696   31.0643    9.5071 C   0  0  0  0  0  0
   -3.5777   30.6523    9.1729 O   0  0  0  0  0  0
   -2.2279   32.3476    9.7738 N   0  0  0  0  0  0
    0.4539   31.3789    8.0558 C   0  0  0  0  0  0
    1.7019   30.9305    7.2322 C   0  0  0  0  0  0
    2.4581   29.8014    7.9190 C   0  0  0  0  0  0
    2.0176   29.0267    8.9770 C   0  0  0  0  0  0
    3.1375   28.2520    9.3290 C   0  0  0  0  0  0
    4.1863   28.4952    8.5760 N   0  0  0  0  0  0
    3.7697   29.4521    7.7439 N   0  0  0  0  0  0
    0.4011   23.6078   12.9948 O   0  0  0  0  0  0
   -0.4909   23.1615   14.0155 C   0  0  0  0  0  0
   -0.1831   21.8933   14.2808 F   0  0  0  0  0  0
   -0.3420   23.8530   15.1466 F   0  0  0  0  0  0
   -1.7622   23.1941   13.6120 F   0  0  0  0  0  0
    4.3884   29.9005    7.0769 H   0  0  0  0  0  0
    1.3823   26.4121    9.6598 H   0  0  0  0  0  0
    1.5670   24.3032   10.8304 H   0  0  0  0  0  0
   -1.1067   25.7567   13.8667 H   0  0  0  0  0  0
   -1.2961   27.8688   12.7052 H   0  0  0  0  0  0
   -1.3068   32.6451   10.0535 H   0  0  0  0  0  0
   -2.9867   33.0115    9.7238 H   0  0  0  0  0  0
    0.6854   32.3061    8.5759 H   0  0  0  0  0  0
   -0.3414   31.6658    7.3760 H   0  0  0  0  0  0
    2.3637   31.7823    7.0742 H   0  0  0  0  0  0
    1.3868   30.6519    6.2295 H   0  0  0  0  0  0
    3.2083   27.5506   10.1477 H   0  0  0  0  0  0
  1  6  1  0  0  0
  1  2  2  0  0  0
  1 28  1  0  0  0
  2  3  1  0  0  0
  2 29  1  0  0  0
  3  4  2  0  0  0
  3 22  1  0  0  0
  4  5  1  0  0  0
  4 30  1  0  0  0
  5  6  2  0  0  0
  5 31  1  0  0  0
  6  7  1  0  0  0
  7 11  1  0  0  0
  7  8  1  0  0  0
  8  9  2  0  0  0
  8 18  1  0  0  0
  9 10  1  0  0  0
  9 15  1  0  0  0
 10 11  2  0  0  0
 10 12  1  0  0  0
 12 13  2  0  0  0
 12 14  1  0  0  0
 14 32  1  0  0  0
 14 33  1  0  0  0
 15 16  1  0  0  0
 15 34  1  0  0  0
 15 35  1  0  0  0
 16 36  1  0  0  0
 16 37  1  0  0  0
 16 17  1  0  0  0
 17 21  1  0  0  0
 17 18  2  0  0  0
 18 19  1  0  0  0
 19 38  1  0  0  0
 19 20  2  0  0  0
 20 21  1  0  0  0
 21 27  1  0  0  0
 22 23  1  0  0  0
 23 24  1  0  0  0
 23 25  1  0  0  0
 23 26  1  0  0  0
M  END
> <s_m_entry_id>
34712

> <s_m_entry_name>
ligand_docking-pose.209

> <s_m_Source_Path>
/home/csk/Desktop/cluster/DUD-E-result/cdk2

> <s_m_Source_File>
ligand_docking-pose.sdf

> <i_m_Source_File_Index>
209

> <i_lp_mmshare_version>
53161

> <r_lp_tautomer_probability>
0.5

> <s_lp_Force_Field>
OPLS_2005

> <r_lp_Energy>
23.871076

> <b_lp_Chiralities_Consistent>
1

> <s_lp_Variant>
301056-2

> <s_i_glide_gridfile>
glide-grid_1h00

> <i_i_glide_lignum>
406

> <i_i_glide_rotatable_bonds>
4

> <r_i_docking_score>
-7.69551051203072

> <r_i_glide_ligand_efficiency>
-0.295981173539643

> <r_i_glide_ligand_efficiency_sa>
-0.876843061981512

> <r_i_glide_ligand_efficiency_ln>
-1.80726539272086

> <r_i_glide_gscore>
-7.69551051203072

> <r_i_glide_lipo>
-2.49320268170021

> <r_i_glide_hbond>
-0.290333332965275

> <r_i_glide_metal>
0

> <r_i_glide_rewards>
-2.53253042538077

> <r_i_glide_evdw>
-40.3406105041504

> <r_i_glide_ecoul>
-4.23259305953979

> <r_i_glide_erotb>
0.291126140138278

> <r_i_glide_esite>
-0.0186507279842513

> <r_i_glide_emodel>
-62.286232711914

> <r_i_glide_energy>
-44.5732035636902

> <r_i_glide_einternal>
4.23282241821289

> <i_i_glide_confnum>
12

> <i_i_glide_posenum>
234

> <r_i_glide_eff_state_penalty>
0

> <i_f3d_flags>
0

> <s_user_duplicate_titles>
301056

> <s_m_subgroup_title>
dock_pv

> <s_m_subgroupid>
dock_pv1

> <b_m_subgroup_collapsed>
0

$$$$
317141
                    3D
 Schrodinger Suite 2021-1.
 38 40  0  0  1  0            999 V2000
    3.7610   28.3914    6.4212 C   0  0  0  0  0  0
    4.2172   28.6517    8.1639 S   0  0  0  0  0  0
    2.6123   28.6622    8.8900 C   0  0  0  0  0  0
    1.5258   29.5627    8.6418 C   0  0  0  0  0  0
    0.4863   29.1078    9.4912 C   0  0  0  0  0  0
   -0.7428   29.6373    9.5589 N   0  0  0  0  0  0
   -0.8984   30.7385    8.7837 C   0  0  0  0  0  0
    0.0239   31.2845    7.9584 N   0  0  0  0  0  0
    1.2276   30.6847    7.8388 C   0  0  0  0  0  0
    2.1732   31.1499    6.9761 O   0  0  0  0  0  0
   -2.2879   31.3657    8.7421 C   0  0  0  0  0  0
   -2.8924   31.7482   10.1054 C   0  0  0  0  0  0
   -2.3407   33.0615   10.6828 C   0  0  0  0  0  0
   -3.1419   33.4517   11.7759 O   0  0  0  0  0  0
    0.9939   28.0237   10.1931 N   0  0  0  0  0  0
    2.2822   27.8070    9.8288 N   0  0  0  0  0  0
    0.3654   27.2244   11.1890 C   0  0  0  0  0  0
   -0.3135   27.8236   12.2740 C   0  0  0  0  0  0
   -1.0059   27.0344   13.1923 C   0  0  0  0  0  0
   -1.0116   25.6498   13.0710 C   0  0  0  0  0  0
   -0.3323   25.0456   12.0187 C   0  0  0  0  0  0
    0.3478   25.8172   11.0757 C   0  0  0  0  0  0
    1.1147   24.9675    9.7771 Cl  0  0  0  0  0  0
   -1.8535   24.6842   14.2287 Cl  0  0  0  0  0  0
   -0.2754   29.5267   12.5816 Cl  0  0  0  0  0  0
    4.5174   28.8346    5.7728 H   0  0  0  0  0  0
    3.6992   27.3278    6.1973 H   0  0  0  0  0  0
    2.7988   28.8249    6.1635 H   0  0  0  0  0  0
    3.0297   30.7169    7.0551 H   0  0  0  0  0  0
   -2.9447   30.6511    8.2475 H   0  0  0  0  0  0
   -2.2911   32.2502    8.1046 H   0  0  0  0  0  0
   -2.7640   30.9366   10.8240 H   0  0  0  0  0  0
   -3.9691   31.8504    9.9711 H   0  0  0  0  0  0
   -2.3426   33.8527    9.9329 H   0  0  0  0  0  0
   -1.2935   32.9584   10.9587 H   0  0  0  0  0  0
   -3.4366   32.6352   12.2127 H   0  0  0  0  0  0
   -1.5397   27.5009   14.0080 H   0  0  0  0  0  0
   -0.3452   23.9704   11.9247 H   0  0  0  0  0  0
  1  2  1  0  0  0
  1 26  1  0  0  0
  1 27  1  0  0  0
  1 28  1  0  0  0
  2  3  1  0  0  0
  3 16  2  0  0  0
  3  4  1  0  0  0
  4  9  2  0  0  0
  4  5  1  0  0  0
  5  6  2  0  0  0
  5 15  1  0  0  0
  6  7  1  0  0  0
  7  8  2  0  0  0
  7 11  1  0  0  0
  8  9  1  0  0  0
  9 10  1  0  0  0
 10 29  1  0  0  0
 11 12  1  0  0  0
 11 30  1  0  0  0
 11 31  1  0  0  0
 12 13  1  0  0  0
 12 32  1  0  0  0
 12 33  1  0  0  0
 13 14  1  0  0  0
 13 34  1  0  0  0
 13 35  1  0  0  0
 14 36  1  0  0  0
 15 16  1  0  0  0
 15 17  1  0  0  0
 17 22  1  0  0  0
 17 18  2  0  0  0
 18 19  1  0  0  0
 18 25  1  0  0  0
 19 20  2  0  0  0
 19 37  1  0  0  0
 20 21  1  0  0  0
 20 24  1  0  0  0
 21 22  2  0  0  0
 21 38  1  0  0  0
 22 23  1  0  0  0
M  END
> <s_m_entry_id>
34715

> <s_m_entry_name>
ligand_docking-pose.212

> <s_m_Source_Path>
/home/csk/Desktop/cluster/DUD-E-result/cdk2

> <s_m_Source_File>
ligand_docking-pose.sdf

> <i_m_Source_File_Index>
212

> <i_lp_mmshare_version>
53161

> <r_lp_tautomer_probability>
1

> <s_lp_Force_Field>
OPLS_2005

> <r_lp_Energy>
0.377218

> <b_lp_Chiralities_Consistent>
1

> <s_lp_Variant>
317141-1

> <s_i_glide_gridfile>
glide-grid_1h00

> <i_i_glide_lignum>
1747

> <i_i_glide_rotatable_bonds>
7

> <r_i_docking_score>
-7.66735954879776

> <r_i_glide_ligand_efficiency>
-0.306694381951911

> <r_i_glide_ligand_efficiency_sa>
-0.896779812075411

> <r_i_glide_ligand_efficiency_ln>
-1.81739398528927

> <r_i_glide_gscore>
-7.66735954879776

> <r_i_glide_lipo>
-2.94132413307355

> <r_i_glide_hbond>
-0.462378107846916

> <r_i_glide_metal>
0

> <r_i_glide_rewards>
-1.72415646779696

> <r_i_glide_evdw>
-42.4814186096191

> <r_i_glide_ecoul>
-5.76467895507812

> <r_i_glide_erotb>
0.449271933662341

> <r_i_glide_esite>
0

> <r_i_glide_emodel>
-67.4314023758207

> <r_i_glide_energy>
-48.2460975646973

> <r_i_glide_einternal>
7.1476526260376

> <i_i_glide_confnum>
37

> <i_i_glide_posenum>
357

> <r_i_glide_eff_state_penalty>
0

> <i_f3d_flags>
0

> <s_user_duplicate_titles>
317141

> <s_m_subgroup_title>
dock_pv

> <s_m_subgroupid>
dock_pv1

> <b_m_subgroup_collapsed>
0

$$$$
625581
                    3D
 Schrodinger Suite 2021-1.
 40 43  0  0  1  0            999 V2000
    2.3137   25.6691   10.3544 C   0  0  0  0  0  0
    1.2237   26.3615   11.0289 N   0  0  0  0  0  0
    0.7039   27.6030   10.7562 C   0  0  0  0  0  0
   -0.2935   27.7973   11.7002 C   0  0  0  0  0  0
   -0.3265   26.6046   12.4587 C   0  0  0  0  0  0
    0.5960   25.7591   12.0469 N   0  0  0  0  0  0
   -1.1775   26.3380   13.5830 C   0  0  0  0  0  0
   -0.7470   25.9602   14.6705 O   0  0  0  0  0  0
   -2.4739   26.5190   13.3447 N   0  0  0  0  0  0
   -1.0730   29.1149   11.7127 C   0  0  0  0  0  0
   -1.2088   29.6503   10.2579 C   0  0  0  0  0  0
    0.1127   29.6147    9.4755 C   0  0  0  0  0  0
    1.0594   28.6077    9.7226 C   0  0  0  0  0  0
    2.2346   28.5126    9.0519 N   0  0  0  0  0  0
    2.4729   29.4520    8.1053 C   0  0  0  0  0  0
    1.6285   30.4635    7.7761 N   0  0  0  0  0  0
    0.4590   30.5285    8.4733 C   0  0  0  0  0  0
    3.6638   29.3720    7.3761 N   0  0  0  0  0  0
    4.4364   28.2315    7.0988 C   0  0  0  0  0  0
    5.1719   27.6005    8.1069 C   0  0  0  0  0  0
    5.9240   26.4613    7.8169 C   0  0  0  0  0  0
    5.9490   25.9407    6.5250 C   0  0  0  0  0  0
    5.2128   26.5588    5.5166 C   0  0  0  0  0  0
    4.4576   27.6951    5.8032 C   0  0  0  0  0  0
    3.7279   28.2516    4.8125 F   0  0  0  0  0  0
    2.0573   25.5230    9.3042 H   0  0  0  0  0  0
    3.2149   26.2795   10.4206 H   0  0  0  0  0  0
    2.5082   24.6994   10.8120 H   0  0  0  0  0  0
   -3.1362   26.4477   14.0996 H   0  0  0  0  0  0
   -2.7779   26.8507   12.4413 H   0  0  0  0  0  0
   -2.0630   29.0002   12.1576 H   0  0  0  0  0  0
   -0.5569   29.8542   12.3275 H   0  0  0  0  0  0
   -1.6155   30.6632   10.2682 H   0  0  0  0  0  0
   -1.9425   29.0396    9.7313 H   0  0  0  0  0  0
   -0.2068   31.3398    8.2077 H   0  0  0  0  0  0
    3.7778   30.1192    6.6986 H   0  0  0  0  0  0
    5.1563   27.9904    9.1134 H   0  0  0  0  0  0
    6.4802   25.9784    8.6062 H   0  0  0  0  0  0
    6.5346   25.0588    6.3077 H   0  0  0  0  0  0
    5.2228   26.1525    4.5171 H   0  0  0  0  0  0
  1  2  1  0  0  0
  1 26  1  0  0  0
  1 27  1  0  0  0
  1 28  1  0  0  0
  2  6  1  0  0  0
  2  3  1  0  0  0
  3 13  1  0  0  0
  3  4  2  0  0  0
  4  5  1  0  0  0
  4 10  1  0  0  0
  5  6  2  0  0  0
  5  7  1  0  0  0
  7  8  2  0  0  0
  7  9  1  0  0  0
  9 29  1  0  0  0
  9 30  1  0  0  0
 10 11  1  0  0  0
 10 31  1  0  0  0
 10 32  1  0  0  0
 11 12  1  0  0  0
 11 33  1  0  0  0
 11 34  1  0  0  0
 12 17  2  0  0  0
 12 13  1  0  0  0
 13 14  2  0  0  0
 14 15  1  0  0  0
 15 16  2  0  0  0
 15 18  1  0  0  0
 16 17  1  0  0  0
 17 35  1  0  0  0
 18 19  1  0  0  0
 18 36  1  0  0  0
 19 24  1  0  0  0
 19 20  2  0  0  0
 20 21  1  0  0  0
 20 37  1  0  0  0
 21 22  2  0  0  0
 21 38  1  0  0  0
 22 23  1  0  0  0
 22 39  1  0  0  0
 23 24  2  0  0  0
 23 40  1  0  0  0
 24 25  1  0  0  0
M  END
> <s_m_entry_id>
34716

> <s_m_entry_name>
ligand_docking-pose.213

> <s_m_Source_Path>
/home/csk/Desktop/cluster/DUD-E-result/cdk2

> <s_m_Source_File>
ligand_docking-pose.sdf

> <i_m_Source_File_Index>
213

> <i_lp_mmshare_version>
53161

> <r_lp_tautomer_probability>
0.999999987636

> <s_lp_Force_Field>
OPLS_2005

> <r_lp_Energy>
12.811545

> <b_lp_Chiralities_Consistent>
1

> <s_lp_Variant>
625581-1

> <s_i_glide_gridfile>
glide-grid_1h00

> <i_i_glide_lignum>
1420

> <i_i_glide_rotatable_bonds>
3

> <r_i_docking_score>
-7.66632919355828

> <r_i_glide_ligand_efficiency>
-0.306653167742331

> <r_i_glide_ligand_efficiency_sa>
-0.896659300995663

> <r_i_glide_ligand_efficiency_ln>
-1.81714976022025

> <r_i_glide_gscore>
-7.66632919355828

> <r_i_glide_lipo>
-2.27853752850394

> <r_i_glide_hbond>
-0.32

> <r_i_glide_metal>
0

> <r_i_glide_rewards>
-2.62915618409567

> <r_i_glide_evdw>
-38.0941886901855

> <r_i_glide_ecoul>
-5.33436870574951

> <r_i_glide_erotb>
0.330395329387722

> <r_i_glide_esite>
-0.0641660699746874

> <r_i_glide_emodel>
-62.2171290463318

> <r_i_glide_energy>
-43.4285573959351

> <r_i_glide_einternal>
3.77161192893982

> <i_i_glide_confnum>
14

> <i_i_glide_posenum>
42

> <r_i_glide_eff_state_penalty>
0

> <i_f3d_flags>
0

> <s_user_duplicate_titles>
625581

> <s_m_subgroup_title>
dock_pv

> <s_m_subgroupid>
dock_pv1

> <b_m_subgroup_collapsed>
0

$$$$
2864
                    3D
 Schrodinger Suite 2021-1.
 36 41  0  0  1  0            999 V2000
   -0.4190   31.5340    8.5758 C   0  0  0  0  0  0
   -1.5996   32.0336    9.1122 C   0  0  0  0  0  0
   -2.3358   31.3201   10.0574 C   0  0  0  0  0  0
   -1.8201   30.0846   10.4666 C   0  0  0  0  0  0
   -0.5941   29.5620    9.9504 C   0  0  0  0  0  0
    0.0875   30.2971    8.9677 C   0  0  0  0  0  0
   -0.3336   28.3388   10.6135 C   0  0  0  0  0  0
    0.6977   27.3756   10.6136 C   0  0  0  0  0  0
    0.6027   26.2220   11.3740 C   0  0  0  0  0  0
   -0.5042   25.9959   12.2207 C   0  0  0  0  0  0
   -0.9251   24.9780   13.1093 C   0  0  0  0  0  0
   -0.3975   23.7255   13.4719 C   0  0  0  0  0  0
   -1.0866   22.9437   14.3963 C   0  0  0  0  0  0
   -2.2730   23.3887   14.9749 C   0  0  0  0  0  0
   -2.8251   24.6319   14.6618 C   0  0  0  0  0  0
   -2.1472   25.4115   13.7176 C   0  0  0  0  0  0
   -2.4591   26.6520   13.1955 N   0  0  0  0  0  0
   -1.5004   26.9901   12.2707 C   0  0  0  0  0  0
   -1.4275   28.1238   11.4706 C   0  0  0  0  0  0
   -2.3119   29.1724   11.3760 N   0  0  0  0  0  0
    1.8295   25.4204   11.1117 C   0  0  0  0  0  0
    2.1614   24.3236   11.5613 O   0  0  0  0  0  0
    2.5572   26.1607   10.2582 N   0  0  0  0  0  0
    2.0160   27.3446    9.9259 C   0  0  0  0  0  0
    2.5373   28.1901    9.2028 O   0  0  0  0  0  0
   -3.2411   27.2365   13.4650 H   0  0  0  0  0  0
   -3.1411   29.3100   11.9412 H   0  0  0  0  0  0
    0.1157   32.1219    7.8399 H   0  0  0  0  0  0
   -1.9620   32.9980    8.7824 H   0  0  0  0  0  0
   -3.2593   31.7161   10.4626 H   0  0  0  0  0  0
    1.0070   29.9431    8.5343 H   0  0  0  0  0  0
    0.5132   23.3490   13.0371 H   0  0  0  0  0  0
   -0.6994   21.9704   14.6663 H   0  0  0  0  0  0
   -2.7831   22.7473   15.6807 H   0  0  0  0  0  0
   -3.7471   24.9649   15.1167 H   0  0  0  0  0  0
    3.4850   25.8906    9.9604 H   0  0  0  0  0  0
  1  6  1  0  0  0
  1  2  2  0  0  0
  1 28  1  0  0  0
  2  3  1  0  0  0
  2 29  1  0  0  0
  3  4  2  0  0  0
  3 30  1  0  0  0
  4 20  1  0  0  0
  4  5  1  0  0  0
  5  6  2  0  0  0
  5  7  1  0  0  0
  6 31  1  0  0  0
  7 19  2  0  0  0
  7  8  1  0  0  0
  8 24  1  0  0  0
  8  9  2  0  0  0
  9 10  1  0  0  0
  9 21  1  0  0  0
 10 18  2  0  0  0
 10 11  1  0  0  0
 11 16  2  0  0  0
 11 12  1  0  0  0
 12 13  2  0  0  0
 12 32  1  0  0  0
 13 14  1  0  0  0
 13 33  1  0  0  0
 14 15  2  0  0  0
 14 34  1  0  0  0
 15 16  1  0  0  0
 15 35  1  0  0  0
 16 17  1  0  0  0
 17 26  1  0  0  0
 17 18  1  0  0  0
 18 19  1  0  0  0
 19 20  1  0  0  0
 20 27  1  0  0  0
 21 22  2  0  0  0
 21 23  1  0  0  0
 23 24  1  0  0  0
 23 36  1  0  0  0
 24 25  2  0  0  0
M  END
> <s_m_entry_id>
34717

> <s_m_entry_name>
ligand_docking-pose.214

> <s_m_Source_Path>
/home/csk/Desktop/cluster/DUD-E-result/cdk2

> <s_m_Source_File>
ligand_docking-pose.sdf

> <i_m_Source_File_Index>
214

> <i_lp_mmshare_version>
53161

> <r_lp_tautomer_probability>
1

> <s_lp_Force_Field>
OPLS_2005

> <r_lp_Energy>
74.184872

> <b_lp_Chiralities_Consistent>
1

> <s_lp_Variant>
2864-1

> <s_i_glide_gridfile>
glide-grid_1h00

> <i_i_glide_lignum>
113

> <i_i_glide_rotatable_bonds>
0

> <r_i_docking_score>
-7.66452764392981

> <r_i_glide_ligand_efficiency>
-0.306581105757192

> <r_i_glide_ligand_efficiency_sa>
-0.896448590473093

> <r_i_glide_ligand_efficiency_ln>
-1.81672273897022

> <r_i_glide_gscore>
-7.66452764392981

> <r_i_glide_lipo>
-2.02759932811118

> <r_i_glide_hbond>
-0.263659757383501

> <r_i_glide_metal>
0

> <r_i_glide_rewards>
-2.49524605763861

> <r_i_glide_evdw>
-38.0539932250977

> <r_i_glide_ecoul>
-5.64493894577026

> <r_i_glide_erotb>
0

> <r_i_glide_esite>
-0.128581997676097

> <r_i_glide_emodel>
-65.1066066098384

> <r_i_glide_energy>
-43.6989321708679

> <r_i_glide_einternal>
0

> <i_i_glide_confnum>
1

> <i_i_glide_posenum>
236

> <r_i_glide_eff_state_penalty>
0

> <i_f3d_flags>
0

> <s_user_duplicate_titles>
2864

> <s_m_subgroup_title>
dock_pv

> <s_m_subgroupid>
dock_pv1

> <b_m_subgroup_collapsed>
0

$$$$
311670
                    3D
 Schrodinger Suite 2021-1.
 36 39  0  0  1  0            999 V2000
    4.3068   23.8751    7.7760 C   0  0  0  0  0  0
    5.3886   23.3755    7.0583 C   0  0  0  0  0  0
    6.2587   24.2995    6.4818 C   0  0  0  0  0  0
    6.0029   25.6924    6.5799 C   0  0  0  0  0  0
    4.8795   26.2112    7.2559 C   0  0  0  0  0  0
    4.0581   25.2450    7.8708 C   0  0  0  0  0  0
    4.5906   27.6024    7.2395 N   0  0  0  0  0  0
    3.6699   28.2818    7.9672 C   0  0  0  0  0  0
    3.1481   27.8520    8.9951 O   0  0  0  0  0  0
    3.3344   29.4520    7.3760 N   0  0  0  0  0  0
    2.2045   30.2477    7.5945 C   0  0  0  0  0  0
    2.0580   31.3898    6.9760 N   0  0  0  0  0  0
    0.9691   32.0222    7.3760 C   0  0  0  0  0  0
    0.0803   31.3661    8.2293 C   0  0  0  0  0  0
    0.8620   29.8520    8.6388 S   0  0  0  0  0  0
   -1.2727   31.8363    8.7687 C   0  0  0  0  0  0
   -2.2292   30.7750    9.3470 C   0  0  0  0  0  0
   -1.6393   31.0520   10.7233 C   0  0  0  0  0  0
   -1.2746   32.4405   10.1760 C   0  0  0  0  0  0
    7.0592   26.2520    5.8833 N   0  0  0  0  0  0
    7.8960   25.3103    5.4184 N   0  0  0  0  0  0
    7.4052   24.0811    5.7818 N   0  0  0  0  0  0
    7.2580   27.2368    5.7152 H   0  0  0  0  0  0
    3.6371   23.1819    8.2599 H   0  0  0  0  0  0
    5.5689   22.3143    6.9760 H   0  0  0  0  0  0
    3.1822   25.5355    8.4284 H   0  0  0  0  0  0
    5.0818   28.1249    6.5311 H   0  0  0  0  0  0
    3.9075   29.7601    6.6024 H   0  0  0  0  0  0
    0.7888   33.0115    6.9828 H   0  0  0  0  0  0
   -1.7409   32.4972    8.0433 H   0  0  0  0  0  0
   -3.2835   31.0435    9.2464 H   0  0  0  0  0  0
   -2.1126   29.7672    8.9760 H   0  0  0  0  0  0
   -2.3420   31.0411   11.5516 H   0  0  0  0  0  0
   -0.7784   30.4334   10.9815 H   0  0  0  0  0  0
   -0.3420   32.8987   10.5037 H   0  0  0  0  0  0
   -2.0568   33.1910   10.3162 H   0  0  0  0  0  0
  1  6  1  0  0  0
  1 24  1  0  0  0
  1  2  2  0  0  0
  2 25  1  0  0  0
  2  3  1  0  0  0
  3 22  1  0  0  0
  3  4  2  0  0  0
  4 20  1  0  0  0
  4  5  1  0  0  0
  5  7  1  0  0  0
  5  6  2  0  0  0
  6 26  1  0  0  0
  7  8  1  0  0  0
  7 27  1  0  0  0
  8  9  2  0  0  0
  8 10  1  0  0  0
 10 11  1  0  0  0
 10 28  1  0  0  0
 11 15  1  0  0  0
 11 12  2  0  0  0
 12 13  1  0  0  0
 13 14  2  0  0  0
 13 29  1  0  0  0
 14 15  1  0  0  0
 14 16  1  0  0  0
 16 19  1  0  0  0
 16 17  1  0  0  0
 16 30  1  0  0  0
 17 18  1  0  0  0
 17 31  1  0  0  0
 17 32  1  0  0  0
 18 19  1  0  0  0
 18 33  1  0  0  0
 18 34  1  0  0  0
 19 35  1  0  0  0
 19 36  1  0  0  0
 20 21  1  0  0  0
 20 23  1  0  0  0
 21 22  2  0  0  0
M  END
> <s_m_entry_id>
34718

> <s_m_entry_name>
ligand_docking-pose.215

> <s_m_Source_Path>
/home/csk/Desktop/cluster/DUD-E-result/cdk2

> <s_m_Source_File>
ligand_docking-pose.sdf

> <i_m_Source_File_Index>
215

> <i_lp_mmshare_version>
53161

> <r_lp_tautomer_probability>
0.460583048915237

> <s_lp_Force_Field>
OPLS_2005

> <r_lp_Energy>
17.463165

> <b_lp_Chiralities_Consistent>
1

> <s_lp_Variant>
311670-2

> <s_i_glide_gridfile>
glide-grid_1h00

> <i_i_glide_lignum>
49

> <i_i_glide_rotatable_bonds>
5

> <r_i_docking_score>
-7.66370134497343

> <r_i_glide_ligand_efficiency>
-0.348350061135156

> <r_i_glide_ligand_efficiency_sa>
-0.976090571131203

> <r_i_glide_ligand_efficiency_ln>
-1.87328814901012

> <r_i_glide_gscore>
-7.66370134497343

> <r_i_glide_lipo>
-2.0894195727678

> <r_i_glide_hbond>
-0.619907122159163

> <r_i_glide_metal>
0

> <r_i_glide_rewards>
-2.87875751785833

> <r_i_glide_evdw>
-28.0023746490479

> <r_i_glide_ecoul>
-7.60459280014038

> <r_i_glide_erotb>
0.526626941202962

> <r_i_glide_esite>
-0.0614364209176496

> <r_i_glide_emodel>
-50.0431828675511

> <r_i_glide_energy>
-35.6069674491882

> <r_i_glide_einternal>
6.44653654098511

> <i_i_glide_confnum>
15

> <i_i_glide_posenum>
58

> <r_i_glide_eff_state_penalty>
0

> <i_f3d_flags>
0

> <s_user_duplicate_titles>
311670

> <s_m_subgroup_title>
dock_pv

> <s_m_subgroupid>
dock_pv1

> <b_m_subgroup_collapsed>
0

$$$$
96625
                    3D
 Schrodinger Suite 2021-1.
 36 41  0  0  1  0            999 V2000
   -0.3692   31.5001    8.5748 C   0  0  0  0  0  0
   -1.5446   32.0275    9.0983 C   0  0  0  0  0  0
   -2.2997   31.3380   10.0429 C   0  0  0  0  0  0
   -1.8149   30.0944   10.4616 C   0  0  0  0  0  0
   -0.5974   29.5423    9.9626 C   0  0  0  0  0  0
    0.1114   30.2543    8.9805 C   0  0  0  0  0  0
   -0.3730   28.3188   10.6412 C   0  0  0  0  0  0
    0.6406   27.3385   10.6632 C   0  0  0  0  0  0
    0.5090   26.1815   11.4150 C   0  0  0  0  0  0
   -0.6284   25.9712   12.2269 C   0  0  0  0  0  0
   -1.1002   24.9438   13.0824 C   0  0  0  0  0  0
   -0.6176   23.6678   13.4189 C   0  0  0  0  0  0
   -1.3625   22.8717   14.2827 C   0  0  0  0  0  0
   -2.5580   23.3220   14.8334 C   0  0  0  0  0  0
   -3.0535   24.5986   14.5661 C   0  0  0  0  0  0
   -2.3283   25.3911   13.6672 C   0  0  0  0  0  0
   -2.5945   26.6517   13.1639 N   0  0  0  0  0  0
   -1.6044   26.9863   12.2688 C   0  0  0  0  0  0
   -1.4852   28.1257   11.4804 C   0  0  0  0  0  0
   -2.3340   29.2017   11.3760 N   0  0  0  0  0  0
   -3.4603   22.2560   15.8518 Cl  0  0  0  0  0  0
    1.7367   25.3693   11.1945 C   0  0  0  0  0  0
    2.0463   24.2707   11.6570 O   0  0  0  0  0  0
    2.4979   26.1071   10.3681 N   0  0  0  0  0  0
    1.9754   27.2888   10.0121 C   0  0  0  0  0  0
    2.5235   28.1257    9.2996 O   0  0  0  0  0  0
   -3.3712   27.2491   13.4226 H   0  0  0  0  0  0
   -3.1667   29.3627   11.9306 H   0  0  0  0  0  0
    0.1803   32.0661    7.8367 H   0  0  0  0  0  0
   -1.8847   32.9943    8.7568 H   0  0  0  0  0  0
   -3.2118   31.7598   10.4429 H   0  0  0  0  0  0
    1.0323   29.8770    8.5643 H   0  0  0  0  0  0
    0.2990   23.2822   12.9998 H   0  0  0  0  0  0
   -1.0115   21.8771   14.5183 H   0  0  0  0  0  0
   -3.9839   24.9352   14.9974 H   0  0  0  0  0  0
    3.4411   25.8509   10.1121 H   0  0  0  0  0  0
  1  6  1  0  0  0
  1  2  2  0  0  0
  1 29  1  0  0  0
  2  3  1  0  0  0
  2 30  1  0  0  0
  3  4  2  0  0  0
  3 31  1  0  0  0
  4 20  1  0  0  0
  4  5  1  0  0  0
  5  6  2  0  0  0
  5  7  1  0  0  0
  6 32  1  0  0  0
  7 19  2  0  0  0
  7  8  1  0  0  0
  8 25  1  0  0  0
  8  9  2  0  0  0
  9 10  1  0  0  0
  9 22  1  0  0  0
 10 18  2  0  0  0
 10 11  1  0  0  0
 11 16  2  0  0  0
 11 12  1  0  0  0
 12 13  2  0  0  0
 12 33  1  0  0  0
 13 14  1  0  0  0
 13 34  1  0  0  0
 14 15  2  0  0  0
 14 21  1  0  0  0
 15 16  1  0  0  0
 15 35  1  0  0  0
 16 17  1  0  0  0
 17 27  1  0  0  0
 17 18  1  0  0  0
 18 19  1  0  0  0
 19 20  1  0  0  0
 20 28  1  0  0  0
 22 23  2  0  0  0
 22 24  1  0  0  0
 24 25  1  0  0  0
 24 36  1  0  0  0
 25 26  2  0  0  0
M  END
> <s_m_entry_id>
34721

> <s_m_entry_name>
ligand_docking-pose.218

> <s_m_Source_Path>
/home/csk/Desktop/cluster/DUD-E-result/cdk2

> <s_m_Source_File>
ligand_docking-pose.sdf

> <i_m_Source_File_Index>
218

> <i_lp_mmshare_version>
53161

> <r_lp_tautomer_probability>
1

> <s_lp_Force_Field>
OPLS_2005

> <r_lp_Energy>
74.174675

> <b_lp_Chiralities_Consistent>
1

> <s_lp_Variant>
96625-1

> <s_i_glide_gridfile>
glide-grid_1h00

> <i_i_glide_lignum>
112

> <i_i_glide_rotatable_bonds>
0

> <r_i_docking_score>
-7.65609810065192

> <r_i_glide_ligand_efficiency>
-0.294465311563536

> <r_i_glide_ligand_efficiency_sa>
-0.872352326841923

> <r_i_glide_ligand_efficiency_ln>
-1.79800951723122

> <r_i_glide_gscore>
-7.65609810065192

> <r_i_glide_lipo>
-2.05957190174533

> <r_i_glide_hbond>
-0.298993011250864

> <r_i_glide_metal>
0

> <r_i_glide_rewards>
-2.18830541305597

> <r_i_glide_evdw>
-39.4723243713379

> <r_i_glide_ecoul>
-6.700843334198

> <r_i_glide_erotb>
0

> <r_i_glide_esite>
-0.130485055903157

> <r_i_glide_emodel>
-68.5749001171699

> <r_i_glide_energy>
-46.1731677055359

> <r_i_glide_einternal>
0

> <i_i_glide_confnum>
1

> <i_i_glide_posenum>
161

> <r_i_glide_eff_state_penalty>
0

> <i_f3d_flags>
0

> <s_user_duplicate_titles>
96625

> <s_m_subgroup_title>
dock_pv

> <s_m_subgroupid>
dock_pv1

> <b_m_subgroup_collapsed>
0

$$$$
285926
                    3D
 Schrodinger Suite 2021-1.
 44 47  0  0  1  0            999 V2000
    2.8493   24.7009    9.3823 C   0  0  0  0  0  0
    2.4604   25.3896   10.5601 O   0  0  0  0  0  0
    1.1381   25.2389   10.8578 C   0  0  0  0  0  0
    0.5661   24.1142   11.4673 C   0  0  0  0  0  0
   -0.7773   24.3776   11.6454 C   0  0  0  0  0  0
   -1.0100   25.6352   11.1567 N   0  0  0  0  0  0
    0.1480   26.2058   10.6833 C   0  0  0  0  0  0
    0.2011   27.5457   10.0867 C   0  0  0  0  0  0
   -0.5958   28.6469   10.1552 C   0  0  0  0  0  0
   -0.4681   29.9558    9.4723 C   0  0  0  0  0  0
   -1.5517   30.7072    9.8899 C   0  0  0  0  0  0
   -1.7726   32.0110    9.4551 C   0  0  0  0  0  0
   -0.8577   32.5861    8.5773 C   0  0  0  0  0  0
    0.2538   31.8608    8.1501 C   0  0  0  0  0  0
    0.4585   30.5344    8.5761 C   0  0  0  0  0  0
    1.6817   29.8563    8.1526 C   0  0  0  0  0  0
    2.7540   29.3932    7.7911 C   0  0  0  0  0  0
    4.0622   28.8866    7.3341 C   0  0  2  0  0  0
    4.0924   28.3821    5.8785 C   0  0  0  0  0  0
    4.7627   27.0130    5.9630 C   0  0  0  0  0  0
    5.4014   27.0100    7.3468 C   0  0  0  0  0  0
    4.4921   27.7821    8.1767 N   0  0  2  0  0  0
    1.1455   32.4795    7.3367 F   0  0  0  0  0  0
   -2.2880   29.9751   10.7815 N   0  0  0  0  0  0
   -1.7848   28.7554   10.9973 C   0  0  0  0  0  0
   -2.2839   27.9456   11.7755 O   0  0  0  0  0  0
   -1.8988   26.1209   11.1998 H   0  0  0  0  0  0
    4.7896   29.6922    7.4536 H   0  0  0  0  0  0
    3.9361   24.6983    9.3070 H   0  0  0  0  0  0
    2.5188   23.6598    9.3769 H   0  0  0  0  0  0
    2.4586   25.2054    8.4991 H   0  0  0  0  0  0
    1.0884   23.2141   11.7542 H   0  0  0  0  0  0
   -1.5781   23.8040   12.0888 H   0  0  0  0  0  0
    1.0856   27.6324    9.4765 H   0  0  0  0  0  0
   -2.6235   32.5828    9.7973 H   0  0  0  0  0  0
   -0.9932   33.6026    8.2376 H   0  0  0  0  0  0
    4.6821   29.0620    5.2648 H   0  0  0  0  0  0
    3.1082   28.3064    5.4132 H   0  0  0  0  0  0
    5.5113   26.8798    5.1812 H   0  0  0  0  0  0
    4.0525   26.1914    5.8617 H   0  0  0  0  0  0
    6.3967   27.4526    7.3209 H   0  0  0  0  0  0
    5.4895   26.0005    7.7505 H   0  0  0  0  0  0
    3.6868   27.2062    8.3752 H   0  0  0  0  0  0
   -3.0742   30.3295   11.3148 H   0  0  0  0  0  0
  1  2  1  0  0  0
  1 29  1  0  0  0
  1 30  1  0  0  0
  1 31  1  0  0  0
  2  3  1  0  0  0
  3  7  2  0  0  0
  3  4  1  0  0  0
  4  5  2  0  0  0
  4 32  1  0  0  0
  5  6  1  0  0  0
  5 33  1  0  0  0
  6 27  1  0  0  0
  6  7  1  0  0  0
  7  8  1  0  0  0
  8  9  2  0  0  0
  8 34  1  0  0  0
  9 25  1  0  0  0
  9 10  1  0  0  0
 10 15  2  0  0  0
 10 11  1  0  0  0
 11 12  2  0  0  0
 11 24  1  0  0  0
 12 13  1  0  0  0
 12 35  1  0  0  0
 13 14  2  0  0  0
 13 36  1  0  0  0
 14 15  1  0  0  0
 14 23  1  0  0  0
 15 16  1  0  0  0
 16 17  3  0  0  0
 17 18  1  0  0  0
 18 28  1  0  0  0
 18 22  1  0  0  0
 18 19  1  0  0  0
 19 20  1  0  0  0
 19 37  1  0  0  0
 19 38  1  0  0  0
 20 21  1  0  0  0
 20 39  1  0  0  0
 20 40  1  0  0  0
 21 22  1  0  0  0
 21 41  1  0  0  0
 21 42  1  0  0  0
 22 43  1  0  0  0
 24 25  1  0  0  0
 24 44  1  0  0  0
 25 26  2  0  0  0
M  END
> <s_m_entry_id>
34726

> <s_m_entry_name>
ligand_docking-pose.223

> <s_m_Source_Path>
/home/csk/Desktop/cluster/DUD-E-result/cdk2

> <s_m_Source_File>
ligand_docking-pose.sdf

> <i_m_Source_File_Index>
223

> <i_lp_mmshare_version>
53161

> <r_lp_tautomer_probability>
1

> <s_lp_Force_Field>
OPLS_2005

> <r_lp_Energy>
50.858839

> <b_lp_Chiralities_Consistent>
1

> <s_lp_Variant>
285926-1

> <s_i_glide_gridfile>
glide-grid_1h00

> <i_i_glide_lignum>
1723

> <i_i_glide_rotatable_bonds>
4

> <r_i_docking_score>
-7.63766628363453

> <r_i_glide_ligand_efficiency>
-0.293756395524405

> <r_i_glide_ligand_efficiency_sa>
-0.870252165865449

> <r_i_glide_ligand_efficiency_ln>
-1.79368086548441

> <r_i_glide_gscore>
-7.63766628363453

> <r_i_glide_lipo>
-3.66822084810798

> <r_i_glide_hbond>
-0.144422862275349

> <r_i_glide_metal>
0

> <r_i_glide_rewards>
-1.81214781336096

> <r_i_glide_evdw>
-40.7901763916016

> <r_i_glide_ecoul>
-2.6078519821167

> <r_i_glide_erotb>
0.463426310784188

> <r_i_glide_esite>
-0.045614453776843

> <r_i_glide_emodel>
-62.1348077714429

> <r_i_glide_energy>
-43.3980283737183

> <r_i_glide_einternal>
3.84088635444641

> <i_i_glide_confnum>
10

> <i_i_glide_posenum>
56

> <r_i_glide_eff_state_penalty>
0

> <i_f3d_flags>
0

> <s_user_duplicate_titles>
285926

> <s_m_subgroup_title>
dock_pv

> <s_m_subgroupid>
dock_pv1

> <b_m_subgroup_collapsed>
0

$$$$
248084
                    3D
 Schrodinger Suite 2021-1.
 59 63  0  0  1  0            999 V2000
    7.2640   25.5485    7.5045 C   0  0  0  0  0  0
    6.5258   26.2086    6.4833 O   0  0  0  0  0  0
    5.5559   27.1264    6.8357 C   0  0  0  0  0  0
    4.8556   27.7297    5.7945 C   0  0  0  0  0  0
    3.8473   28.6522    6.0639 C   0  0  0  0  0  0
    3.5290   28.9933    7.3824 C   0  0  0  0  0  0
    4.2323   28.3940    8.4267 C   0  0  0  0  0  0
    5.2464   27.4795    8.1543 C   0  0  0  0  0  0
    2.3822   29.9050    7.6734 C   0  0  0  0  0  0
    1.3391   29.8077    8.5767 C   0  0  0  0  0  0
    0.4532   30.8179    8.2566 C   0  0  0  0  0  0
    0.9361   31.6472    7.3759 N   0  0  0  0  0  0
    2.0586   31.0436    6.9759 N   0  0  0  0  0  0
   -0.7831   30.6713    9.0066 C   0  0  0  0  0  0
   -1.9957   31.3537    8.9799 C   0  0  0  0  0  0
   -3.0455   30.8876    9.7660 C   0  0  0  0  0  0
   -2.8675   29.7660   10.5762 C   0  0  0  0  0  0
   -1.6274   29.1128   10.6582 C   0  0  0  0  0  0
   -0.5841   29.5701    9.8411 C   0  0  0  0  0  0
    0.7979   29.0314    9.6611 C   0  0  0  0  0  0
    1.3308   28.1021   10.2587 O   0  0  0  0  0  0
   -1.3822   28.0339   11.5288 N   0  0  0  0  0  0
   -2.2299   27.1048   12.0205 C   0  0  0  0  0  0
   -3.4361   27.0633   11.7761 O   0  0  0  0  0  0
   -1.6014   26.0246   12.9318 C   0  0  0  0  0  0
   -0.9226   24.9615   12.1567 N   0  0  1  0  0  0
    0.3530   25.4010   11.5665 C   0  0  0  0  0  0
    1.0294   24.3323   10.6978 C   0  0  0  0  0  0
    1.1797   22.9733   11.4113 C   0  0  0  0  0  0
   -0.1464   22.6007   12.1086 C   0  0  0  0  0  0
   -0.7289   23.7487   12.9621 C   0  0  0  0  0  0
    1.7167   21.8426   10.5056 C   0  0  0  0  0  0
    2.8570   22.2520    9.7758 O   0  0  0  0  0  0
    2.6559   31.4319    6.2577 H   0  0  0  0  0  0
    7.9585   24.8436    7.0484 H   0  0  0  0  0  0
    7.8510   26.2512    8.0959 H   0  0  0  0  0  0
    6.6091   24.9841    8.1698 H   0  0  0  0  0  0
    5.0942   27.4732    4.7729 H   0  0  0  0  0  0
    3.3015   29.0913    5.2446 H   0  0  0  0  0  0
    3.9840   28.6249    9.4515 H   0  0  0  0  0  0
    5.7788   27.0389    8.9759 H   0  0  0  0  0  0
   -2.1398   32.2128    8.3413 H   0  0  0  0  0  0
   -3.9968   31.3990    9.7545 H   0  0  0  0  0  0
   -3.6919   29.4493   11.1962 H   0  0  0  0  0  0
   -0.4008   27.8513   11.6800 H   0  0  0  0  0  0
   -2.4143   25.6042   13.5279 H   0  0  0  0  0  0
   -0.9181   26.4909   13.6443 H   0  0  0  0  0  0
    1.0311   25.7831   12.3329 H   0  0  0  0  0  0
    0.1313   26.2199   10.8968 H   0  0  0  0  0  0
    2.0037   24.6917   10.3634 H   0  0  0  0  0  0
    0.4579   24.2520    9.7760 H   0  0  0  0  0  0
    1.8953   23.1478   12.2170 H   0  0  0  0  0  0
   -0.8944   22.3021   11.3758 H   0  0  0  0  0  0
   -0.0035   21.7077   12.7190 H   0  0  0  0  0  0
   -0.0928   23.9727   13.8212 H   0  0  0  0  0  0
   -1.6923   23.4296   13.3636 H   0  0  0  0  0  0
    0.9520   21.5213    9.7964 H   0  0  0  0  0  0
    1.9772   20.9703   11.1063 H   0  0  0  0  0  0
    2.5567   22.7593    9.0115 H   0  0  0  0  0  0
  1  2  1  0  0  0
  1 35  1  0  0  0
  1 36  1  0  0  0
  1 37  1  0  0  0
  2  3  1  0  0  0
  3  8  1  0  0  0
  3  4  2  0  0  0
  4  5  1  0  0  0
  4 38  1  0  0  0
  5  6  2  0  0  0
  5 39  1  0  0  0
  6  7  1  0  0  0
  6  9  1  0  0  0
  7  8  2  0  0  0
  7 40  1  0  0  0
  8 41  1  0  0  0
  9 13  1  0  0  0
  9 10  2  0  0  0
 10 20  1  0  0  0
 10 11  1  0  0  0
 11 12  2  0  0  0
 11 14  1  0  0  0
 12 13  1  0  0  0
 13 34  1  0  0  0
 14 19  2  0  0  0
 14 15  1  0  0  0
 15 16  2  0  0  0
 15 42  1  0  0  0
 16 17  1  0  0  0
 16 43  1  0  0  0
 17 18  2  0  0  0
 17 44  1  0  0  0
 18 19  1  0  0  0
 18 22  1  0  0  0
 19 20  1  0  0  0
 20 21  2  0  0  0
 22 23  1  0  0  0
 22 45  1  0  0  0
 23 24  2  0  0  0
 23 25  1  0  0  0
 25 26  1  0  0  0
 25 46  1  0  0  0
 25 47  1  0  0  0
 26 31  1  0  0  0
 26 27  1  0  0  0
 27 28  1  0  0  0
 27 48  1  0  0  0
 27 49  1  0  0  0
 28 29  1  0  0  0
 28 50  1  0  0  0
 28 51  1  0  0  0
 29 30  1  0  0  0
 29 32  1  0  0  0
 29 52  1  0  0  0
 30 31  1  0  0  0
 30 53  1  0  0  0
 30 54  1  0  0  0
 31 55  1  0  0  0
 31 56  1  0  0  0
 32 33  1  0  0  0
 32 57  1  0  0  0
 32 58  1  0  0  0
 33 59  1  0  0  0
M  END
> <s_m_entry_id>
34727

> <s_m_entry_name>
ligand_docking-pose.224

> <s_m_Source_Path>
/home/csk/Desktop/cluster/DUD-E-result/cdk2

> <s_m_Source_File>
ligand_docking-pose.sdf

> <i_m_Source_File_Index>
224

> <i_lp_mmshare_version>
53161

> <r_lp_tautomer_probability>
1

> <s_lp_Force_Field>
OPLS_2005

> <r_lp_Energy>
72.389707

> <b_lp_Chiralities_Consistent>
1

> <s_lp_Variant>
248084-1

> <s_i_glide_gridfile>
glide-grid_1h00

> <i_i_glide_lignum>
1625

> <i_i_glide_rotatable_bonds>
8

> <r_i_docking_score>
-7.63590205921624

> <r_i_glide_ligand_efficiency>
-0.231390971491401

> <r_i_glide_ligand_efficiency_sa>
-0.742194483844726

> <r_i_glide_ligand_efficiency_ln>
-1.69818508138478

> <r_i_glide_gscore>
-7.63590205921624

> <r_i_glide_lipo>
-3.66674077761295

> <r_i_glide_hbond>
-0.412826247944748

> <r_i_glide_metal>
0

> <r_i_glide_rewards>
-1.20949483687219

> <r_i_glide_evdw>
-49.3673553466797

> <r_i_glide_ecoul>
-3.20603513717651

> <r_i_glide_erotb>
0.60243284112411

> <r_i_glide_esite>
0

> <r_i_glide_emodel>
-72.8443405947301

> <r_i_glide_energy>
-52.5733904838562

> <r_i_glide_einternal>
8.56644439697266

> <i_i_glide_confnum>
15

> <i_i_glide_posenum>
170

> <r_i_glide_eff_state_penalty>
0

> <i_f3d_flags>
0

> <s_user_duplicate_titles>
248084

> <s_m_subgroup_title>
dock_pv

> <s_m_subgroupid>
dock_pv1

> <b_m_subgroup_collapsed>
0

$$$$
311571
                    3D
 Schrodinger Suite 2021-1.
 31 32  0  0  1  0            999 V2000
   -2.0975   32.8761   10.0180 C   0  0  0  0  0  0
   -1.7550   31.4206    9.6830 C   0  0  0  0  0  0
   -0.4936   31.2749    8.8570 C   0  0  0  0  0  0
    0.1605   32.1430    7.9748 C   0  0  0  0  0  0
    1.2576   31.7172    7.3749 N   0  0  0  0  0  0
    1.6020   30.5224    7.7781 C   0  0  0  0  0  0
    0.4712   29.8301    8.9190 S   0  0  0  0  0  0
    2.8206   29.9532    7.4010 N   0  0  0  0  0  0
    3.4624   28.9080    7.9730 C   0  0  0  0  0  0
    3.0337   28.2352    8.9109 O   0  0  0  0  0  0
    4.8433   28.5635    7.3996 C   0  0  0  0  0  0
    4.7614   27.4842    6.3281 C   0  0  0  0  0  0
    4.5541   27.8456    4.9930 C   0  0  0  0  0  0
    4.4580   26.8605    4.0148 C   0  0  0  0  0  0
    4.5487   25.5180    4.3742 C   0  0  0  0  0  0
    4.7459   25.1510    5.7052 C   0  0  0  0  0  0
    4.8559   26.1360    6.6843 C   0  0  0  0  0  0
   -3.0061   32.9387   10.6176 H   0  0  0  0  0  0
   -1.2957   33.3585   10.5771 H   0  0  0  0  0  0
   -2.2581   33.4513    9.1101 H   0  0  0  0  0  0
   -2.5946   30.9636    9.1588 H   0  0  0  0  0  0
   -1.6574   30.8693   10.6207 H   0  0  0  0  0  0
   -0.1901   33.1401    7.7458 H   0  0  0  0  0  0
    3.3543   30.4693    6.7100 H   0  0  0  0  0  0
    5.4926   28.2406    8.2145 H   0  0  0  0  0  0
    5.3035   29.4518    6.9750 H   0  0  0  0  0  0
    4.4770   28.8864    4.7157 H   0  0  0  0  0  0
    4.3038   27.1301    2.9814 H   0  0  0  0  0  0
    4.4672   24.7555    3.6103 H   0  0  0  0  0  0
    4.8111   24.1069    5.9761 H   0  0  0  0  0  0
    5.0007   25.8538    7.7177 H   0  0  0  0  0  0
  1  2  1  0  0  0
  1 18  1  0  0  0
  1 19  1  0  0  0
  1 20  1  0  0  0
  2  3  1  0  0  0
  2 21  1  0  0  0
  2 22  1  0  0  0
  3  7  1  0  0  0
  3  4  2  0  0  0
  4  5  1  0  0  0
  4 23  1  0  0  0
  5  6  2  0  0  0
  6  7  1  0  0  0
  6  8  1  0  0  0
  8  9  1  0  0  0
  8 24  1  0  0  0
  9 10  2  0  0  0
  9 11  1  0  0  0
 11 12  1  0  0  0
 11 25  1  0  0  0
 11 26  1  0  0  0
 12 17  1  0  0  0
 12 13  2  0  0  0
 13 14  1  0  0  0
 13 27  1  0  0  0
 14 15  2  0  0  0
 14 28  1  0  0  0
 15 16  1  0  0  0
 15 29  1  0  0  0
 16 17  2  0  0  0
 16 30  1  0  0  0
 17 31  1  0  0  0
M  END
> <s_m_entry_id>
34730

> <s_m_entry_name>
ligand_docking-pose.227

> <s_m_Source_Path>
/home/csk/Desktop/cluster/DUD-E-result/cdk2

> <s_m_Source_File>
ligand_docking-pose.sdf

> <i_m_Source_File_Index>
227

> <i_lp_mmshare_version>
53161

> <r_lp_tautomer_probability>
0.999000488399163

> <s_lp_Force_Field>
OPLS_2005

> <r_lp_Energy>
5.094245

> <b_lp_Chiralities_Consistent>
1

> <s_lp_Variant>
311571-1

> <s_i_glide_gridfile>
glide-grid_1h00

> <i_i_glide_lignum>
1062

> <i_i_glide_rotatable_bonds>
5

> <r_i_docking_score>
-7.6196668662323

> <r_i_glide_ligand_efficiency>
-0.448215698013665

> <r_i_glide_ligand_efficiency_sa>
-1.15248877185815

> <r_i_glide_ligand_efficiency_ln>
-1.98780140376151

> <r_i_glide_gscore>
-7.6196668662323

> <r_i_glide_lipo>
-2.75355115811717

> <r_i_glide_hbond>
-0.32

> <r_i_glide_metal>
0

> <r_i_glide_rewards>
-3.28784875548003

> <r_i_glide_evdw>
-29.892448425293

> <r_i_glide_ecoul>
-4.16799354553223

> <r_i_glide_erotb>
0.861554500459382

> <r_i_glide_esite>
0

> <r_i_glide_emodel>
-48.97286708054

> <r_i_glide_energy>
-34.0604419708252

> <r_i_glide_einternal>
2.38668942451477

> <i_i_glide_confnum>
2

> <i_i_glide_posenum>
57

> <r_i_glide_eff_state_penalty>
0

> <i_f3d_flags>
0

> <s_user_duplicate_titles>
311571

> <s_m_subgroup_title>
dock_pv

> <s_m_subgroupid>
dock_pv1

> <b_m_subgroup_collapsed>
0

$$$$
441562
                    3D
 Schrodinger Suite 2021-1.
 32 34  0  0  1  0            999 V2000
   -0.3411   28.1341   12.2351 C   0  0  0  0  0  0
   -0.7791   27.6623   10.8381 C   0  0  0  0  0  0
   -0.2726   28.5070    9.8060 O   0  0  0  0  0  0
   -0.7543   29.7923    9.6661 C   0  0  0  0  0  0
   -1.9153   30.2925   10.2771 C   0  0  0  0  0  0
   -2.3136   31.6047   10.0331 C   0  0  0  0  0  0
   -1.6604   32.4657    9.2148 N   0  0  0  0  0  0
   -0.5669   31.9675    8.6340 C   0  0  0  0  0  0
   -0.0320   30.6495    8.8045 C   0  0  0  0  0  0
    1.1814   30.5886    8.0089 C   0  0  0  0  0  0
    1.2582   31.8146    7.3673 C   0  0  0  0  0  0
    0.2574   32.6522    7.7763 N   0  0  0  0  0  0
    2.2361   29.5328    7.8957 C   0  0  0  0  0  0
    2.5993   28.6519    8.9207 C   0  0  0  0  0  0
    3.6585   27.7771    8.6554 C   0  0  0  0  0  0
    4.3332   27.7677    7.4787 N   0  0  0  0  0  0
    3.8915   28.6376    6.5433 C   0  0  0  0  0  0
    2.8581   29.4971    6.6866 N   0  0  0  0  0  0
    4.5528   28.6518    5.3282 N   0  0  0  0  0  0
    0.1662   33.6125    7.4614 H   0  0  0  0  0  0
   -0.6301   27.4127   12.9995 H   0  0  0  0  0  0
   -0.7864   29.0914   12.5060 H   0  0  0  0  0  0
    0.7427   28.2490   12.2788 H   0  0  0  0  0  0
   -0.3751   26.6654   10.6598 H   0  0  0  0  0  0
   -1.8626   27.5574   10.7733 H   0  0  0  0  0  0
   -2.5135   29.6874   10.9416 H   0  0  0  0  0  0
   -3.1989   31.9959   10.5151 H   0  0  0  0  0  0
    2.0096   32.1742    6.6837 H   0  0  0  0  0  0
    2.1024   28.6504    9.8748 H   0  0  0  0  0  0
    3.9836   27.0518    9.3773 H   0  0  0  0  0  0
    4.4226   29.5059    4.8051 H   0  0  0  0  0  0
    5.4528   28.1925    5.3094 H   0  0  0  0  0  0
  1  2  1  0  0  0
  1 21  1  0  0  0
  1 22  1  0  0  0
  1 23  1  0  0  0
  2  3  1  0  0  0
  2 24  1  0  0  0
  2 25  1  0  0  0
  3  4  1  0  0  0
  4  9  1  0  0  0
  4  5  2  0  0  0
  5  6  1  0  0  0
  5 26  1  0  0  0
  6  7  2  0  0  0
  6 27  1  0  0  0
  7  8  1  0  0  0
  8 12  1  0  0  0
  8  9  2  0  0  0
  9 10  1  0  0  0
 10 11  2  0  0  0
 10 13  1  0  0  0
 11 12  1  0  0  0
 11 28  1  0  0  0
 12 20  1  0  0  0
 13 18  1  0  0  0
 13 14  2  0  0  0
 14 15  1  0  0  0
 14 29  1  0  0  0
 15 16  2  0  0  0
 15 30  1  0  0  0
 16 17  1  0  0  0
 17 18  2  0  0  0
 17 19  1  0  0  0
 19 31  1  0  0  0
 19 32  1  0  0  0
M  END
> <s_m_entry_id>
34731

> <s_m_entry_name>
ligand_docking-pose.228

> <s_m_Source_Path>
/home/csk/Desktop/cluster/DUD-E-result/cdk2

> <s_m_Source_File>
ligand_docking-pose.sdf

> <i_m_Source_File_Index>
228

> <i_lp_mmshare_version>
53161

> <r_lp_tautomer_probability>
0.999998420164496

> <s_lp_Force_Field>
OPLS_2005

> <r_lp_Energy>
2.765174

> <b_lp_Chiralities_Consistent>
1

> <s_lp_Variant>
441562-1

> <s_i_glide_gridfile>
glide-grid_1h00

> <i_i_glide_lignum>
1363

> <i_i_glide_rotatable_bonds>
3

> <r_i_docking_score>
-7.61886299083426

> <r_i_glide_ligand_efficiency>
-0.400992788991277

> <r_i_glide_ligand_efficiency_sa>
-1.07000981821974

> <r_i_glide_ligand_efficiency_ln>
-1.93154540634935

> <r_i_glide_gscore>
-7.61886299083426

> <r_i_glide_lipo>
-2.38978717280958

> <r_i_glide_hbond>
-0.386452727169916

> <r_i_glide_metal>
0

> <r_i_glide_rewards>
-3.2812470951075

> <r_i_glide_evdw>
-30.5753364562988

> <r_i_glide_ecoul>
-3.81929111480713

> <r_i_glide_erotb>
0.540284494288743

> <r_i_glide_esite>
0

> <r_i_glide_emodel>
-49.8452096061843

> <r_i_glide_energy>
-34.394627571106

> <r_i_glide_einternal>
0.72388219833374

> <i_i_glide_confnum>
5

> <i_i_glide_posenum>
310

> <r_i_glide_eff_state_penalty>
0

> <i_f3d_flags>
0

> <s_user_duplicate_titles>
441562

> <s_m_subgroup_title>
dock_pv

> <s_m_subgroupid>
dock_pv1

> <b_m_subgroup_collapsed>
0

$$$$
631889
                    3D
 Schrodinger Suite 2021-1.
 39 41  0  0  1  0            999 V2000
   -3.3623   30.6703   10.2630 C   0  0  0  0  0  0
   -2.3000   29.6362   10.5526 C   0  0  0  0  0  0
   -1.0195   29.5855   10.0201 C   0  0  0  0  0  0
   -0.2281   28.1515   10.6439 S   0  0  0  0  0  0
   -1.6536   27.7873   11.5538 C   0  0  0  0  0  0
   -2.6182   28.6530   11.3760 N   0  0  0  0  0  0
   -1.7891   26.5831   12.4557 C   0  0  0  0  0  0
   -0.3518   30.5196    9.0731 C   0  0  0  0  0  0
   -0.6901   31.8749    8.9699 C   0  0  0  0  0  0
    0.0835   32.6519    8.1085 C   0  0  0  0  0  0
    1.1107   32.1341    7.3760 N   0  0  0  0  0  0
    1.3610   30.8077    7.5384 C   0  0  0  0  0  0
    0.6583   29.9844    8.3498 N   0  0  0  0  0  0
    2.4580   30.2791    6.8481 N   0  0  0  0  0  0
    3.2451   29.1395    7.0896 C   0  0  0  0  0  0
    4.0350   28.6520    6.0471 C   0  0  0  0  0  0
    4.8580   27.5479    6.2468 C   0  0  0  0  0  0
    4.8869   26.9151    7.4943 C   0  0  0  0  0  0
    4.0818   27.3968    8.5268 C   0  0  0  0  0  0
    3.2910   28.5199    8.3398 C   0  0  0  0  0  0
    5.7066   25.8116    7.7760 N   0  0  0  0  0  0
    6.7754   25.4239    6.8639 C   0  0  0  0  0  0
   -3.4310   30.9068    9.2010 H   0  0  0  0  0  0
   -4.3420   30.3471   10.5761 H   0  0  0  0  0  0
   -3.1701   31.5994   10.7996 H   0  0  0  0  0  0
   -2.6971   26.6197   13.0595 H   0  0  0  0  0  0
   -0.9503   26.5060   13.1478 H   0  0  0  0  0  0
   -1.8239   25.6571   11.8815 H   0  0  0  0  0  0
   -1.4688   32.3299    9.5587 H   0  0  0  0  0  0
   -0.1066   33.7099    8.0056 H   0  0  0  0  0  0
    2.9734   30.9713    6.3159 H   0  0  0  0  0  0
    4.0302   29.1404    5.0837 H   0  0  0  0  0  0
    5.4737   27.2049    5.4294 H   0  0  0  0  0  0
    4.0580   26.9165    9.4903 H   0  0  0  0  0  0
    2.7211   28.8879    9.1778 H   0  0  0  0  0  0
    5.8624   25.6516    8.7663 H   0  0  0  0  0  0
    7.2977   24.5491    7.2511 H   0  0  0  0  0  0
    6.3804   25.1653    5.8806 H   0  0  0  0  0  0
    7.5017   26.2302    6.7485 H   0  0  0  0  0  0
  1  2  1  0  0  0
  1 23  1  0  0  0
  1 24  1  0  0  0
  1 25  1  0  0  0
  2  6  1  0  0  0
  2  3  2  0  0  0
  3  4  1  0  0  0
  3  8  1  0  0  0
  4  5  1  0  0  0
  5  6  2  0  0  0
  5  7  1  0  0  0
  7 26  1  0  0  0
  7 27  1  0  0  0
  7 28  1  0  0  0
  8 13  1  0  0  0
  8  9  2  0  0  0
  9 10  1  0  0  0
  9 29  1  0  0  0
 10 11  2  0  0  0
 10 30  1  0  0  0
 11 12  1  0  0  0
 12 13  2  0  0  0
 12 14  1  0  0  0
 14 15  1  0  0  0
 14 31  1  0  0  0
 15 20  1  0  0  0
 15 16  2  0  0  0
 16 17  1  0  0  0
 16 32  1  0  0  0
 17 18  2  0  0  0
 17 33  1  0  0  0
 18 19  1  0  0  0
 18 21  1  0  0  0
 19 20  2  0  0  0
 19 34  1  0  0  0
 20 35  1  0  0  0
 21 22  1  0  0  0
 21 36  1  0  0  0
 22 37  1  0  0  0
 22 38  1  0  0  0
 22 39  1  0  0  0
M  END
> <s_m_entry_id>
34732

> <s_m_entry_name>
ligand_docking-pose.229

> <s_m_Source_Path>
/home/csk/Desktop/cluster/DUD-E-result/cdk2

> <s_m_Source_File>
ligand_docking-pose.sdf

> <i_m_Source_File_Index>
229

> <i_lp_mmshare_version>
53161

> <r_lp_tautomer_probability>
0.999999987636

> <s_lp_Force_Field>
OPLS_2005

> <r_lp_Energy>
5.540203

> <b_lp_Chiralities_Consistent>
1

> <s_lp_Variant>
631889-1

> <s_i_glide_gridfile>
glide-grid_1h00

> <i_i_glide_lignum>
829

> <i_i_glide_rotatable_bonds>
4

> <r_i_docking_score>
-7.61110698442798

> <r_i_glide_ligand_efficiency>
-0.34595940838309

> <r_i_glide_ligand_efficiency_sa>
-0.969391868100876

> <r_i_glide_ligand_efficiency_ln>
-1.8604321688669

> <r_i_glide_gscore>
-7.61110698442798

> <r_i_glide_lipo>
-2.37043095612542

> <r_i_glide_hbond>
-0.334325076359856

> <r_i_glide_metal>
0

> <r_i_glide_rewards>
-2.96908187315774

> <r_i_glide_evdw>
-33.4541244506836

> <r_i_glide_ecoul>
-5.5884690284729

> <r_i_glide_erotb>
0.57370749802016

> <r_i_glide_esite>
0

> <r_i_glide_emodel>
-54.9428950308284

> <r_i_glide_energy>
-39.0425934791565

> <r_i_glide_einternal>
3.51434302330017

> <i_i_glide_confnum>
5

> <i_i_glide_posenum>
154

> <r_i_glide_eff_state_penalty>
0

> <i_f3d_flags>
0

> <s_user_duplicate_titles>
631889

> <s_m_subgroup_title>
dock_pv

> <s_m_subgroupid>
dock_pv1

> <b_m_subgroup_collapsed>
0

$$$$
248192
                    3D
 Schrodinger Suite 2021-1.
 55 59  0  0  1  0            999 V2000
    7.3034   25.7079    5.3559 C   0  0  0  0  0  0
    6.7972   25.9075    6.6713 O   0  0  0  0  0  0
    5.7607   26.8031    6.8551 C   0  0  0  0  0  0
    5.4037   27.0757    8.1722 C   0  0  0  0  0  0
    4.3931   27.9838    8.4693 C   0  0  0  0  0  0
    3.7448   28.6510    7.4341 C   0  0  0  0  0  0
    4.0806   28.3732    6.1053 C   0  0  0  0  0  0
    5.0761   27.4484    5.8153 C   0  0  0  0  0  0
    2.6437   29.5999    7.7103 C   0  0  0  0  0  0
    1.5539   29.5645    8.5657 C   0  0  0  0  0  0
    0.7664   30.6494    8.2000 C   0  0  0  0  0  0
    1.3172   31.3938    7.2710 N   0  0  0  0  0  0
    2.4470   30.7376    6.9787 N   0  0  0  0  0  0
   -0.4810   30.6337    8.9652 C   0  0  0  0  0  0
   -1.6004   31.4618    8.9763 C   0  0  0  0  0  0
   -2.6825   31.1312    9.7898 C   0  0  0  0  0  0
   -2.6442   29.9764   10.5752 C   0  0  0  0  0  0
   -1.5169   29.1373   10.5768 C   0  0  0  0  0  0
   -0.4187   29.4985    9.7783 C   0  0  0  0  0  0
    0.8928   28.8092    9.6063 C   0  0  0  0  0  0
    1.2849   27.7970   10.1827 O   0  0  0  0  0  0
   -1.4380   27.9568   11.3423 N   0  0  0  0  0  0
   -2.4185   27.2196   11.9091 C   0  0  0  0  0  0
   -3.6227   27.4511   11.7773 O   0  0  0  0  0  0
   -2.0067   25.9979   12.7607 C   0  0  0  0  0  0
   -0.8533   25.2666   12.1916 N   0  0  0  0  0  0
    0.4451   25.7546   12.6901 C   0  0  0  0  0  0
    1.6309   25.0170   12.0298 C   0  0  0  0  0  0
    1.5268   23.4923   12.1762 C   0  0  0  0  0  0
    0.1466   23.0242   11.7028 C   0  0  0  0  0  0
   -0.9967   23.8127   12.3738 C   0  0  0  0  0  0
    3.1164   31.0754    6.2935 H   0  0  0  0  0  0
    8.1572   25.0320    5.3972 H   0  0  0  0  0  0
    6.5550   25.2554    4.7085 H   0  0  0  0  0  0
    7.6430   26.6451    4.9096 H   0  0  0  0  0  0
    5.9341   26.5845    8.9732 H   0  0  0  0  0  0
    4.1129   28.1641    9.4959 H   0  0  0  0  0  0
    3.5689   28.8685    5.2931 H   0  0  0  0  0  0
    5.3230   27.2616    4.7806 H   0  0  0  0  0  0
   -1.6439   32.3474    8.3569 H   0  0  0  0  0  0
   -3.5551   31.7664    9.8123 H   0  0  0  0  0  0
   -3.5063   29.7521   11.1792 H   0  0  0  0  0  0
   -0.5162   27.5396   11.3711 H   0  0  0  0  0  0
   -2.8822   25.3526   12.8316 H   0  0  0  0  0  0
   -1.8105   26.3328   13.7803 H   0  0  0  0  0  0
    0.4580   25.6433   13.7757 H   0  0  0  0  0  0
    0.5468   26.8214   12.5076 H   0  0  0  0  0  0
    2.5682   25.3679   12.4643 H   0  0  0  0  0  0
    1.6923   25.2986   10.9765 H   0  0  0  0  0  0
    2.3110   22.9963   11.6046 H   0  0  0  0  0  0
    1.6662   23.2010   13.2184 H   0  0  0  0  0  0
    0.0642   23.1044   10.6188 H   0  0  0  0  0  0
    0.0286   21.9620   11.9227 H   0  0  0  0  0  0
   -1.0614   23.5789   13.4380 H   0  0  0  0  0  0
   -1.9408   23.4982   11.9320 H   0  0  0  0  0  0
  1  2  1  0  0  0
  1 33  1  0  0  0
  1 34  1  0  0  0
  1 35  1  0  0  0
  2  3  1  0  0  0
  3  8  1  0  0  0
  3  4  2  0  0  0
  4  5  1  0  0  0
  4 36  1  0  0  0
  5  6  2  0  0  0
  5 37  1  0  0  0
  6  7  1  0  0  0
  6  9  1  0  0  0
  7  8  2  0  0  0
  7 38  1  0  0  0
  8 39  1  0  0  0
  9 13  1  0  0  0
  9 10  2  0  0  0
 10 20  1  0  0  0
 10 11  1  0  0  0
 11 12  2  0  0  0
 11 14  1  0  0  0
 12 13  1  0  0  0
 13 32  1  0  0  0
 14 19  2  0  0  0
 14 15  1  0  0  0
 15 16  2  0  0  0
 15 40  1  0  0  0
 16 17  1  0  0  0
 16 41  1  0  0  0
 17 18  2  0  0  0
 17 42  1  0  0  0
 18 19  1  0  0  0
 18 22  1  0  0  0
 19 20  1  0  0  0
 20 21  2  0  0  0
 22 23  1  0  0  0
 22 43  1  0  0  0
 23 24  2  0  0  0
 23 25  1  0  0  0
 25 26  1  0  0  0
 25 44  1  0  0  0
 25 45  1  0  0  0
 26 31  1  0  0  0
 26 27  1  0  0  0
 27 28  1  0  0  0
 27 46  1  0  0  0
 27 47  1  0  0  0
 28 29  1  0  0  0
 28 48  1  0  0  0
 28 49  1  0  0  0
 29 30  1  0  0  0
 29 50  1  0  0  0
 29 51  1  0  0  0
 30 31  1  0  0  0
 30 52  1  0  0  0
 30 53  1  0  0  0
 31 54  1  0  0  0
 31 55  1  0  0  0
M  END
> <s_m_entry_id>
34733

> <s_m_entry_name>
ligand_docking-pose.230

> <s_m_Source_Path>
/home/csk/Desktop/cluster/DUD-E-result/cdk2

> <s_m_Source_File>
ligand_docking-pose.sdf

> <i_m_Source_File_Index>
230

> <i_lp_mmshare_version>
53161

> <r_lp_tautomer_probability>
1

> <s_lp_Force_Field>
OPLS_2005

> <r_lp_Energy>
70.809883

> <b_lp_Chiralities_Consistent>
1

> <s_lp_Variant>
248192-1

> <s_i_glide_gridfile>
glide-grid_1h00

> <i_i_glide_lignum>
1623

> <i_i_glide_rotatable_bonds>
6

> <r_i_docking_score>
-7.5975942185071

> <r_i_glide_ligand_efficiency>
-0.245083684467971

> <r_i_glide_ligand_efficiency_sa>
-0.769901143723204

> <r_i_glide_ligand_efficiency_ln>
-1.71349033457333

> <r_i_glide_gscore>
-7.5975942185071

> <r_i_glide_lipo>
-3.0574515873903

> <r_i_glide_hbond>
-0.289363239458723

> <r_i_glide_metal>
0

> <r_i_glide_rewards>
-1.91002066464253

> <r_i_glide_evdw>
-40.0339622497559

> <r_i_glide_ecoul>
-5.29780101776123

> <r_i_glide_erotb>
0.455609538136435

> <r_i_glide_esite>
0

> <r_i_glide_emodel>
-64.0425679968262

> <r_i_glide_energy>
-45.3317632675171

> <r_i_glide_einternal>
7.06672096252441

> <i_i_glide_confnum>
1

> <i_i_glide_posenum>
228

> <r_i_glide_eff_state_penalty>
0

> <i_f3d_flags>
0

> <s_user_duplicate_titles>
248192

> <s_m_subgroup_title>
dock_pv

> <s_m_subgroupid>
dock_pv1

> <b_m_subgroup_collapsed>
0

$$$$
316966
                    3D
 Schrodinger Suite 2021-1.
 48 51  0  0  1  0            999 V2000
   -1.9766   32.5894   10.2258 C   0  0  0  0  0  0
   -2.0182   31.5444    9.1011 C   0  0  0  0  0  0
   -1.1648   30.3327    9.4209 C   0  0  0  0  0  0
    0.1560   29.9837    8.9824 C   0  0  0  0  0  0
    0.4848   28.8237    9.7325 C   0  0  0  0  0  0
    1.6698   28.1945    9.7011 N   0  0  0  0  0  0
    2.5620   28.7749    8.8477 C   0  0  0  0  0  0
    2.3528   29.8519    8.0479 N   0  0  0  0  0  0
    1.1498   30.4733    8.1086 C   0  0  0  0  0  0
    0.8580   31.5961    7.3863 O   0  0  0  0  0  0
    3.9793   28.2130    8.8365 C   0  0  0  0  0  0
    4.2929   27.2074    7.7437 C   0  0  0  0  0  0
    4.8517   27.6215    6.5317 C   0  0  0  0  0  0
    5.1382   26.6852    5.5364 C   0  0  0  0  0  0
    4.8828   25.3170    5.7383 C   0  0  0  0  0  0
    4.3475   24.9094    6.9721 C   0  0  0  0  0  0
    4.0635   25.8462    7.9641 C   0  0  0  0  0  0
    4.0581   23.5904    7.2196 O   0  0  0  0  0  0
    5.1164   24.3438    4.7809 O   0  0  0  0  0  0
    5.5876   24.7254    3.4919 C   0  0  0  0  0  0
   -0.6385   28.5283   10.4917 N   0  0  0  0  0  0
   -1.6093   29.4407   10.2728 N   0  0  0  0  0  0
   -0.8465   27.5054   11.4441 C   0  0  0  0  0  0
   -0.9089   27.8241   12.8121 C   0  0  0  0  0  0
   -1.1198   26.8144   13.7527 C   0  0  0  0  0  0
   -1.2788   25.4921   13.3484 C   0  0  0  0  0  0
   -1.2508   25.1766   11.9928 C   0  0  0  0  0  0
   -1.0552   26.1757   11.0390 C   0  0  0  0  0  0
   -1.1419   25.7281    9.3756 Cl  0  0  0  0  0  0
   -1.5340   24.2533   14.5240 Cl  0  0  0  0  0  0
   -0.7425   29.4522   13.3710 Cl  0  0  0  0  0  0
   -2.5924   33.4535    9.9803 H   0  0  0  0  0  0
   -2.3514   32.1761   11.1630 H   0  0  0  0  0  0
   -0.9601   32.9447   10.4013 H   0  0  0  0  0  0
   -1.7082   32.0189    8.1754 H   0  0  0  0  0  0
   -3.0542   31.2452    8.9331 H   0  0  0  0  0  0
    0.0033   31.9623    7.6141 H   0  0  0  0  0  0
    4.6993   29.0328    8.8066 H   0  0  0  0  0  0
    4.1549   27.7066    9.7763 H   0  0  0  0  0  0
    5.0541   28.6694    6.3516 H   0  0  0  0  0  0
    5.5605   27.0457    4.6104 H   0  0  0  0  0  0
    3.6538   25.5206    8.9097 H   0  0  0  0  0  0
    3.1098   23.4540    7.3737 H   0  0  0  0  0  0
    5.6819   23.8357    2.8701 H   0  0  0  0  0  0
    4.8945   25.4026    2.9879 H   0  0  0  0  0  0
    6.5704   25.1931    3.5469 H   0  0  0  0  0  0
   -1.1682   27.0524   14.8030 H   0  0  0  0  0  0
   -1.4073   24.1562   11.6766 H   0  0  0  0  0  0
  1  2  1  0  0  0
  1 32  1  0  0  0
  1 33  1  0  0  0
  1 34  1  0  0  0
  2  3  1  0  0  0
  2 35  1  0  0  0
  2 36  1  0  0  0
  3 22  2  0  0  0
  3  4  1  0  0  0
  4  9  2  0  0  0
  4  5  1  0  0  0
  5  6  2  0  0  0
  5 21  1  0  0  0
  6  7  1  0  0  0
  7  8  2  0  0  0
  7 11  1  0  0  0
  8  9  1  0  0  0
  9 10  1  0  0  0
 10 37  1  0  0  0
 11 12  1  0  0  0
 11 38  1  0  0  0
 11 39  1  0  0  0
 12 17  1  0  0  0
 12 13  2  0  0  0
 13 14  1  0  0  0
 13 40  1  0  0  0
 14 15  2  0  0  0
 14 41  1  0  0  0
 15 16  1  0  0  0
 15 19  1  0  0  0
 16 17  2  0  0  0
 16 18  1  0  0  0
 17 42  1  0  0  0
 18 43  1  0  0  0
 19 20  1  0  0  0
 20 44  1  0  0  0
 20 45  1  0  0  0
 20 46  1  0  0  0
 21 22  1  0  0  0
 21 23  1  0  0  0
 23 28  1  0  0  0
 23 24  2  0  0  0
 24 25  1  0  0  0
 24 31  1  0  0  0
 25 26  2  0  0  0
 25 47  1  0  0  0
 26 27  1  0  0  0
 26 30  1  0  0  0
 27 28  2  0  0  0
 27 48  1  0  0  0
 28 29  1  0  0  0
M  END
> <s_m_entry_id>
34735

> <s_m_entry_name>
ligand_docking-pose.232

> <s_m_Source_Path>
/home/csk/Desktop/cluster/DUD-E-result/cdk2

> <s_m_Source_File>
ligand_docking-pose.sdf

> <i_m_Source_File_Index>
232

> <i_lp_mmshare_version>
53161

> <r_lp_tautomer_probability>
1

> <s_lp_Force_Field>
OPLS_2005

> <r_lp_Energy>
9.777637

> <b_lp_Chiralities_Consistent>
1

> <s_lp_Variant>
316966-1

> <s_i_glide_gridfile>
glide-grid_1h00

> <i_i_glide_lignum>
952

> <i_i_glide_rotatable_bonds>
7

> <r_i_docking_score>
-7.59067417577131

> <r_i_glide_ligand_efficiency>
-0.244860457282946

> <r_i_glide_ligand_efficiency_sa>
-0.76919990216388

> <r_i_glide_ligand_efficiency_ln>
-1.71192965286256

> <r_i_glide_gscore>
-7.59067417577131

> <r_i_glide_lipo>
-3.50638850957782

> <r_i_glide_hbond>
0

> <r_i_glide_metal>
0

> <r_i_glide_rewards>
-1.24008624427237

> <r_i_glide_evdw>
-45.9420356750488

> <r_i_glide_ecoul>
-5.40910005569458

> <r_i_glide_erotb>
0.264267370185506

> <r_i_glide_esite>
0

> <r_i_glide_emodel>
-70.2019634209272

> <r_i_glide_energy>
-51.3511357307434

> <r_i_glide_einternal>
5.54749059677124

> <i_i_glide_confnum>
1

> <i_i_glide_posenum>
37

> <r_i_glide_eff_state_penalty>
0

> <i_f3d_flags>
0

> <s_user_duplicate_titles>
316966

> <s_m_subgroup_title>
dock_pv

> <s_m_subgroupid>
dock_pv1

> <b_m_subgroup_collapsed>
0

$$$$
250355
                    3D
 Schrodinger Suite 2021-1.
 58 62  0  0  1  0            999 V2000
    0.8605   31.8812    7.3760 C   0  0  0  0  0  0
    1.9457   31.2113    7.0695 N   0  0  0  0  0  0
    1.9155   30.1372    7.9218 C   0  0  0  0  0  0
    2.8455   29.1226    8.2284 C   0  0  0  0  0  0
    2.5536   28.2070    9.1900 N   0  0  0  0  0  0
    1.3362   28.2525    9.7766 C   0  0  0  0  0  0
    0.3608   29.1712    9.5451 N   0  0  0  0  0  0
    0.6990   30.1020    8.6474 C   0  0  0  0  0  0
    0.0190   31.2467    8.2688 N   0  0  0  0  0  0
   -1.2481   31.7887    8.7776 C   0  0  0  0  0  0
   -2.4355   30.8068    8.7739 C   0  0  0  0  0  0
   -3.3341   31.1871    9.9599 C   0  0  0  0  0  0
   -2.6219   32.3429   10.6680 C   0  0  0  0  0  0
   -1.1597   32.2172   10.2398 C   0  0  0  0  0  0
    1.0970   27.2036   10.6694 N   0  0  0  0  0  0
   -0.2025   26.9852   11.2977 C   0  0  2  0  0  0
   -0.3400   27.8519   12.5667 C   0  0  0  0  0  0
   -1.6924   27.5881   13.2483 C   0  0  0  0  0  0
   -1.9119   26.0944   13.5765 C   0  0  2  0  0  0
   -1.6994   25.2223   12.3197 C   0  0  0  0  0  0
   -0.3434   25.4896   11.6395 C   0  0  0  0  0  0
   -3.1943   25.8519   14.2079 N   0  0  0  0  0  0
    4.0771   29.0523    7.5635 N   0  0  0  0  0  0
    5.0828   28.0494    7.8880 C   0  0  0  0  0  0
    4.9710   26.7716    7.0420 C   0  0  0  0  0  0
    5.6596   25.5178    7.5219 C   0  0  0  0  0  0
    4.1409   25.6069    7.5286 C   0  0  0  0  0  0
    0.5908   32.8507    6.9828 H   0  0  0  0  0  0
   -1.4962   32.6658    8.1771 H   0  0  0  0  0  0
   -2.9832   30.7996    7.8313 H   0  0  0  0  0  0
   -2.0813   29.8037    8.9792 H   0  0  0  0  0  0
   -4.3401   31.4531    9.6408 H   0  0  0  0  0  0
   -3.4378   30.3347   10.6350 H   0  0  0  0  0  0
   -3.0274   33.2990   10.3383 H   0  0  0  0  0  0
   -2.7408   32.3034   11.7506 H   0  0  0  0  0  0
   -0.6883   31.4361   10.8375 H   0  0  0  0  0  0
   -0.5934   33.1334   10.3870 H   0  0  0  0  0  0
    1.9031   26.7096   11.0208 H   0  0  0  0  0  0
   -0.9842   27.2798   10.5950 H   0  0  0  0  0  0
    0.4575   27.6341   13.2737 H   0  0  0  0  0  0
   -0.2541   28.9121   12.3188 H   0  0  0  0  0  0
   -2.4796   27.9390   12.5768 H   0  0  0  0  0  0
   -1.7540   28.1858   14.1567 H   0  0  0  0  0  0
   -1.1336   25.8144   14.2881 H   0  0  0  0  0  0
   -2.4833   25.4516   11.5953 H   0  0  0  0  0  0
   -1.7904   24.1641   12.5711 H   0  0  0  0  0  0
   -0.2655   24.8863   10.7331 H   0  0  0  0  0  0
    0.4678   25.1673   12.2963 H   0  0  0  0  0  0
   -3.3688   26.6156   14.8511 H   0  0  0  0  0  0
   -3.9055   25.9494   13.4957 H   0  0  0  0  0  0
    4.2471   29.6978    6.8008 H   0  0  0  0  0  0
    5.0523   27.8045    8.9538 H   0  0  0  0  0  0
    6.0550   28.5062    7.7325 H   0  0  0  0  0  0
    4.9963   26.9767    5.9701 H   0  0  0  0  0  0
    6.1952   25.5484    8.4720 H   0  0  0  0  0  0
    6.1575   24.8909    6.7821 H   0  0  0  0  0  0
    3.5715   25.0329    6.7983 H   0  0  0  0  0  0
    3.6178   25.7008    8.4806 H   0  0  0  0  0  0
  1  9  1  0  0  0
  1  2  2  0  0  0
  1 28  1  0  0  0
  2  3  1  0  0  0
  3  8  2  0  0  0
  3  4  1  0  0  0
  4  5  2  0  0  0
  4 23  1  0  0  0
  5  6  1  0  0  0
  6  7  2  0  0  0
  6 15  1  0  0  0
  7  8  1  0  0  0
  8  9  1  0  0  0
  9 10  1  0  0  0
 10 14  1  0  0  0
 10 11  1  0  0  0
 10 29  1  0  0  0
 11 12  1  0  0  0
 11 30  1  0  0  0
 11 31  1  0  0  0
 12 13  1  0  0  0
 12 32  1  0  0  0
 12 33  1  0  0  0
 13 14  1  0  0  0
 13 34  1  0  0  0
 13 35  1  0  0  0
 14 36  1  0  0  0
 14 37  1  0  0  0
 15 16  1  0  0  0
 15 38  1  0  0  0
 16 21  1  0  0  0
 16 17  1  0  0  0
 16 39  1  0  0  0
 17 18  1  0  0  0
 17 40  1  0  0  0
 17 41  1  0  0  0
 18 19  1  0  0  0
 18 42  1  0  0  0
 18 43  1  0  0  0
 19 20  1  0  0  0
 19 22  1  0  0  0
 19 44  1  0  0  0
 20 21  1  0  0  0
 20 45  1  0  0  0
 20 46  1  0  0  0
 21 47  1  0  0  0
 21 48  1  0  0  0
 22 49  1  0  0  0
 22 50  1  0  0  0
 23 24  1  0  0  0
 23 51  1  0  0  0
 24 25  1  0  0  0
 24 52  1  0  0  0
 24 53  1  0  0  0
 25 27  1  0  0  0
 25 26  1  0  0  0
 25 54  1  0  0  0
 26 27  1  0  0  0
 26 55  1  0  0  0
 26 56  1  0  0  0
 27 57  1  0  0  0
 27 58  1  0  0  0
M  END
> <s_m_entry_id>
34740

> <s_m_entry_name>
ligand_docking-pose.237

> <s_m_Source_Path>
/home/csk/Desktop/cluster/DUD-E-result/cdk2

> <s_m_Source_File>
ligand_docking-pose.sdf

> <i_m_Source_File_Index>
237

> <i_lp_mmshare_version>
53161

> <r_lp_tautomer_probability>
1

> <s_lp_Force_Field>
OPLS_2005

> <r_lp_Energy>
43.39568

> <b_lp_Chiralities_Consistent>
1

> <s_lp_Variant>
250355-2

> <s_i_glide_gridfile>
glide-grid_1h00

> <i_i_glide_lignum>
624

> <i_i_glide_rotatable_bonds>
6

> <r_i_docking_score>
-7.56796287781467

> <r_i_glide_ligand_efficiency>
-0.280294921400543

> <r_i_glide_ligand_efficiency_sa>
-0.840884763277824

> <r_i_glide_ligand_efficiency_ln>
-1.7616969903361

> <r_i_glide_gscore>
-7.56796287781467

> <r_i_glide_lipo>
-2.45910136909334

> <r_i_glide_hbond>
-0.32

> <r_i_glide_metal>
0

> <r_i_glide_rewards>
-3.11173381946001

> <r_i_glide_evdw>
-38.061393737793

> <r_i_glide_ecoul>
-4.13451719284058

> <r_i_glide_erotb>
0.847329855435267

> <r_i_glide_esite>
-0.00121027888085775

> <r_i_glide_emodel>
-59.1621187216542

> <r_i_glide_energy>
-42.1959109306335

> <r_i_glide_einternal>
2.25175023078918

> <i_i_glide_confnum>
10

> <i_i_glide_posenum>
219

> <r_i_glide_eff_state_penalty>
0

> <i_f3d_flags>
0

> <s_user_duplicate_titles>
250355

> <s_m_subgroup_title>
dock_pv

> <s_m_subgroupid>
dock_pv1

> <b_m_subgroup_collapsed>
0

$$$$
440916
                    3D
 Schrodinger Suite 2021-1.
 34 36  0  0  1  0            999 V2000
   -2.3901   31.2038   10.1756 C   0  0  0  0  0  0
   -1.7493   32.0565    9.2778 C   0  0  0  0  0  0
   -0.5617   31.6332    8.6838 C   0  0  0  0  0  0
    0.0017   30.3988    8.9627 C   0  0  0  0  0  0
   -0.6476   29.5424    9.8670 C   0  0  0  0  0  0
   -1.8408   29.9537   10.4707 C   0  0  0  0  0  0
    0.1156   27.6521   10.3554 I   0  0  0  0  0  0
    1.2331   30.3203    8.1823 C   0  0  0  0  0  0
    2.1292   29.4075    8.2143 N   0  0  0  0  0  0
    3.2577   29.4519    7.3758 N   0  0  0  0  0  0
    4.0581   28.3498    7.0844 C   0  0  0  0  0  0
    4.4749   27.4754    8.0889 C   0  0  0  0  0  0
    5.3202   26.4164    7.7769 C   0  0  0  0  0  0
    5.7321   26.2195    6.4610 C   0  0  0  0  0  0
    5.2756   27.0612    5.4452 C   0  0  0  0  0  0
    4.4570   28.1406    5.7641 C   0  0  0  0  0  0
    6.9043   24.9221    6.1039 S   0  0  0  0  0  0
    6.5757   23.7889    6.9750 O   0  0  0  0  0  0
    6.9944   24.7701    4.6493 O   0  0  0  0  0  0
    8.4286   25.5605    6.6563 N   0  0  0  0  0  0
    1.2553   31.5454    7.3758 C   0  0  0  0  0  0
    2.0577   31.8519    6.5028 O   0  0  0  0  0  0
    0.2300   32.2983    7.7822 N   0  0  0  0  0  0
   -3.3086   31.5130   10.6543 H   0  0  0  0  0  0
   -2.1765   33.0243    9.0585 H   0  0  0  0  0  0
   -2.3429   29.3080   11.1774 H   0  0  0  0  0  0
    3.2331   30.2236    6.7131 H   0  0  0  0  0  0
    4.1732   27.6310    9.1151 H   0  0  0  0  0  0
    5.6698   25.7695    8.5696 H   0  0  0  0  0  0
    5.5963   26.9171    4.4230 H   0  0  0  0  0  0
    4.1407   28.8178    4.9841 H   0  0  0  0  0  0
    8.9866   24.8755    7.1708 H   0  0  0  0  0  0
    8.9605   26.0315    5.9202 H   0  0  0  0  0  0
    0.0509   33.2243    7.4181 H   0  0  0  0  0  0
  1  6  1  0  0  0
  1  2  2  0  0  0
  1 24  1  0  0  0
  2  3  1  0  0  0
  2 25  1  0  0  0
  3 23  1  0  0  0
  3  4  2  0  0  0
  4  5  1  0  0  0
  4  8  1  0  0  0
  5  6  2  0  0  0
  5  7  1  0  0  0
  6 26  1  0  0  0
  8  9  2  0  0  0
  8 21  1  0  0  0
  9 10  1  0  0  0
 10 11  1  0  0  0
 10 27  1  0  0  0
 11 16  1  0  0  0
 11 12  2  0  0  0
 12 13  1  0  0  0
 12 28  1  0  0  0
 13 14  2  0  0  0
 13 29  1  0  0  0
 14 15  1  0  0  0
 14 17  1  0  0  0
 15 16  2  0  0  0
 15 30  1  0  0  0
 16 31  1  0  0  0
 17 18  2  0  0  0
 17 19  2  0  0  0
 17 20  1  0  0  0
 20 32  1  0  0  0
 20 33  1  0  0  0
 21 22  2  0  0  0
 21 23  1  0  0  0
 23 34  1  0  0  0
M  END
> <s_m_entry_id>
34742

> <s_m_entry_name>
ligand_docking-pose.239

> <s_m_Source_Path>
/home/csk/Desktop/cluster/DUD-E-result/cdk2

> <s_m_Source_File>
ligand_docking-pose.sdf

> <i_m_Source_File_Index>
239

> <i_lp_mmshare_version>
53161

> <r_lp_tautomer_probability>
1

> <s_lp_Force_Field>
OPLS_2005

> <r_lp_Energy>
44.074568

> <b_lp_Chiralities_Consistent>
1

> <s_lp_Variant>
440916-1

> <s_i_glide_gridfile>
glide-grid_1h00

> <i_i_glide_lignum>
34

> <i_i_glide_rotatable_bonds>
3

> <r_i_docking_score>
-7.5646694732636

> <r_i_glide_ligand_efficiency>
-0.328898672750591

> <r_i_glide_ligand_efficiency_sa>
-0.935344074174824

> <r_i_glide_ligand_efficiency_ln>
-1.82920567126558

> <r_i_glide_gscore>
-7.5646694732636

> <r_i_glide_lipo>
-2.11347437760787

> <r_i_glide_hbond>
-0.544160219431822

> <r_i_glide_metal>
0

> <r_i_glide_rewards>
-2.17018190799597

> <r_i_glide_evdw>
-36.8149108886719

> <r_i_glide_ecoul>
-6.89072513580322

> <r_i_glide_erotb>
0.143040073090667

> <r_i_glide_esite>
-0.00553872651452876

> <r_i_glide_emodel>
-61.7715825253998

> <r_i_glide_energy>
-43.7056360244751

> <r_i_glide_einternal>
3.04919910430908

> <i_i_glide_confnum>
1

> <i_i_glide_posenum>
99

> <r_i_glide_eff_state_penalty>
0

> <i_f3d_flags>
0

> <s_user_duplicate_titles>
440916

> <s_m_subgroup_title>
dock_pv

> <s_m_subgroupid>
dock_pv1

> <b_m_subgroup_collapsed>
0

$$$$
494698
                    3D
 Schrodinger Suite 2021-1.
 49 51  0  0  1  0            999 V2000
   -0.4684   25.8638   13.3372 C   0  0  0  0  0  0
   -1.6122   26.3361   12.4103 C   0  0  0  0  0  0
   -1.5553   25.5211   11.0994 C   0  0  0  0  0  0
   -2.9631   26.1032   13.1191 C   0  0  0  0  0  0
   -1.4481   27.8169   12.0881 C   0  0  0  0  0  0
   -0.5211   28.7927   12.4037 C   0  0  0  0  0  0
   -0.8118   29.9409   11.8287 N   0  0  0  0  0  0
   -1.8429   29.6645   11.0638 C   0  0  0  0  0  0
   -2.3240   28.4034   11.2317 O   0  0  0  0  0  0
   -2.4360   30.5079    9.9457 C   0  0  0  0  0  0
   -1.3015   31.5905    8.9746 S   0  0  0  0  0  0
    0.1342   30.6144    8.5792 C   0  0  0  0  0  0
    0.5793   29.4357    9.1621 C   0  0  0  0  0  0
    1.7971   29.0521    8.9060 N   0  0  0  0  0  0
    2.3412   29.7260    7.9374 C   0  0  0  0  0  0
    1.3482   31.0520    7.3762 S   0  0  0  0  0  0
    3.5547   29.3910    7.3774 N   0  0  0  0  0  0
    4.0285   28.0208    7.0982 C   0  0  2  0  0  0
    3.9217   27.0673    8.3291 C   0  0  0  0  0  0
    4.5073   25.6613    8.0630 C   0  0  0  0  0  0
    5.9571   25.6951    7.5522 C   0  0  1  0  0  0
    6.0519   26.6389    6.3357 C   0  0  0  0  0  0
    5.4781   28.0592    6.6108 C   0  0  0  0  0  0
    6.8584   26.0828    8.5759 O   0  0  0  0  0  0
   -0.5548   24.8034   13.5810 H   0  0  0  0  0  0
   -0.4570   26.4189   14.2759 H   0  0  0  0  0  0
    0.5101   26.0129   12.8746 H   0  0  0  0  0  0
   -2.3614   25.7978   10.4191 H   0  0  0  0  0  0
   -0.6210   25.6912   10.5622 H   0  0  0  0  0  0
   -1.6371   24.4483   11.2828 H   0  0  0  0  0  0
   -3.8008   26.4372   12.5057 H   0  0  0  0  0  0
   -3.1235   25.0495   13.3512 H   0  0  0  0  0  0
   -3.0222   26.6520   14.0605 H   0  0  0  0  0  0
    0.3748   28.6526   12.9789 H   0  0  0  0  0  0
   -2.9793   29.8809    9.2384 H   0  0  0  0  0  0
   -3.1927   31.1647   10.3774 H   0  0  0  0  0  0
    0.0643   28.8026    9.8521 H   0  0  0  0  0  0
    4.0058   30.0766    6.7778 H   0  0  0  0  0  0
    3.4332   27.6731    6.2586 H   0  0  0  0  0  0
    4.4057   27.5143    9.2004 H   0  0  0  0  0  0
    2.8856   26.8929    8.6053 H   0  0  0  0  0  0
    3.8826   25.1446    7.3335 H   0  0  0  0  0  0
    4.4423   25.0631    8.9731 H   0  0  0  0  0  0
    6.2489   24.6864    7.2552 H   0  0  0  0  0  0
    5.5135   26.1977    5.4962 H   0  0  0  0  0  0
    7.0954   26.6739    6.0104 H   0  0  0  0  0  0
    5.5380   28.6565    5.7003 H   0  0  0  0  0  0
    6.0579   28.5736    7.3720 H   0  0  0  0  0  0
    6.4569   25.8630    9.4367 H   0  0  0  0  0  0
  1  2  1  0  0  0
  1 25  1  0  0  0
  1 26  1  0  0  0
  1 27  1  0  0  0
  2  3  1  0  0  0
  2  4  1  0  0  0
  2  5  1  0  0  0
  3 28  1  0  0  0
  3 29  1  0  0  0
  3 30  1  0  0  0
  4 31  1  0  0  0
  4 32  1  0  0  0
  4 33  1  0  0  0
  5  9  1  0  0  0
  5  6  2  0  0  0
  6  7  1  0  0  0
  6 34  1  0  0  0
  7  8  2  0  0  0
  8  9  1  0  0  0
  8 10  1  0  0  0
 10 11  1  0  0  0
 10 35  1  0  0  0
 10 36  1  0  0  0
 11 12  1  0  0  0
 12 16  1  0  0  0
 12 13  2  0  0  0
 13 14  1  0  0  0
 13 37  1  0  0  0
 14 15  2  0  0  0
 15 16  1  0  0  0
 15 17  1  0  0  0
 17 18  1  0  0  0
 17 38  1  0  0  0
 18 23  1  0  0  0
 18 19  1  0  0  0
 18 39  1  0  0  0
 19 20  1  0  0  0
 19 40  1  0  0  0
 19 41  1  0  0  0
 20 21  1  0  0  0
 20 42  1  0  0  0
 20 43  1  0  0  0
 21 22  1  0  0  0
 21 24  1  0  0  0
 21 44  1  0  0  0
 22 23  1  0  0  0
 22 45  1  0  0  0
 22 46  1  0  0  0
 23 47  1  0  0  0
 23 48  1  0  0  0
 24 49  1  0  0  0
M  END
> <s_m_entry_id>
34744

> <s_m_entry_name>
ligand_docking-pose.241

> <s_m_Source_Path>
/home/csk/Desktop/cluster/DUD-E-result/cdk2

> <s_m_Source_File>
ligand_docking-pose.sdf

> <i_m_Source_File_Index>
241

> <i_lp_mmshare_version>
53161

> <r_lp_tautomer_probability>
1

> <s_lp_Force_Field>
OPLS_2005

> <r_lp_Energy>
4.32747

> <b_lp_Chiralities_Consistent>
1

> <s_lp_Variant>
494698-1

> <s_i_glide_gridfile>
glide-grid_1h00

> <i_i_glide_lignum>
1133

> <i_i_glide_rotatable_bonds>
7

> <r_i_docking_score>
-7.55581168125487

> <r_i_glide_ligand_efficiency>
-0.314825486718953

> <r_i_glide_ligand_efficiency_sa>
-0.908113844922449

> <r_i_glide_ligand_efficiency_ln>
-1.80845244893018

> <r_i_glide_gscore>
-7.55581168125487

> <r_i_glide_lipo>
-2.79742068884508

> <r_i_glide_hbond>
-0.456

> <r_i_glide_metal>
0

> <r_i_glide_rewards>
-2.03342641687448

> <r_i_glide_evdw>
-34.2898788452148

> <r_i_glide_ecoul>
-8.44916439056396

> <r_i_glide_erotb>
0.712904025310031

> <r_i_glide_esite>
0

> <r_i_glide_emodel>
-58.0664775422679

> <r_i_glide_energy>
-42.7390432357788

> <r_i_glide_einternal>
9.07013988494873

> <i_i_glide_confnum>
8

> <i_i_glide_posenum>
68

> <r_i_glide_eff_state_penalty>
0

> <i_f3d_flags>
0

> <s_user_duplicate_titles>
494698

> <s_m_subgroup_title>
dock_pv

> <s_m_subgroupid>
dock_pv1

> <b_m_subgroup_collapsed>
0

$$$$
612900
                    3D
 Schrodinger Suite 2021-1.
 50 53  0  0  1  0            999 V2000
    2.0846   23.3683    9.7792 C   0  0  0  0  0  0
    1.2666   24.2436   10.6038 N   0  0  0  0  0  0
    0.9220   25.5311   10.2885 C   0  0  0  0  0  0
    0.1273   26.1159   11.2522 C   0  0  0  0  0  0
   -0.0243   25.0812   12.2656 C   0  0  0  0  0  0
    0.6569   23.9080   11.7942 C   0  0  0  0  0  0
    0.6495   22.6956   12.4982 C   0  0  0  0  0  0
   -0.0518   22.6637   13.7011 C   0  0  0  0  0  0
   -0.6917   23.7886   14.2057 C   0  0  0  0  0  0
   -0.6672   24.9974   13.5175 C   0  0  0  0  0  0
   -1.3506   23.7059   15.3818 F   0  0  0  0  0  0
   -0.4515   27.4855   11.1945 C   0  0  0  0  0  0
   -0.0865   28.6237   10.5459 C   0  0  0  0  0  0
   -1.0422   29.6509   10.8948 C   0  0  0  0  0  0
   -1.0745   30.8388   10.5765 O   0  0  0  0  0  0
   -1.9423   29.0535   11.6662 N   0  0  0  0  0  0
   -1.7354   27.7476   11.8011 C   0  0  0  0  0  0
   -2.5276   26.9724   12.3309 O   0  0  0  0  0  0
    1.0620   28.9160    9.6175 C   0  0  0  0  0  0
    0.9077   29.8525    8.5760 C   0  0  0  0  0  0
    1.9251   30.1178    7.6632 C   0  0  0  0  0  0
    3.1053   29.3899    7.7216 C   0  0  0  0  0  0
    3.2887   28.4354    8.7221 C   0  0  0  0  0  0
    2.2965   28.2518    9.6945 C   0  0  0  0  0  0
    4.4171   27.6081    8.7556 N   0  0  0  0  0  0
    5.2670   27.3775    7.5822 C   0  0  0  0  0  0
    6.1493   26.1073    7.7026 C   0  0  2  0  0  0
    6.7793   25.6381    6.3687 C   0  0  0  0  0  0
    8.0273   26.2519    6.1160 O   0  0  0  0  0  0
    5.3345   25.0520    8.1759 O   0  0  0  0  0  0
    2.8584   22.9157   10.3943 H   0  0  0  0  0  0
    1.4642   22.5737    9.3682 H   0  0  0  0  0  0
    2.5599   23.9337    8.9763 H   0  0  0  0  0  0
    1.3000   25.9448    9.3762 H   0  0  0  0  0  0
    1.1487   21.8120   12.1264 H   0  0  0  0  0  0
   -0.0983   21.7407   14.2612 H   0  0  0  0  0  0
   -1.1638   25.8506   13.9491 H   0  0  0  0  0  0
   -2.7441   29.5330   12.0571 H   0  0  0  0  0  0
   -0.0182   30.3897    8.4405 H   0  0  0  0  0  0
    1.7805   30.8480    6.8809 H   0  0  0  0  0  0
    3.8664   29.5614    6.9764 H   0  0  0  0  0  0
    2.4795   27.5565   10.4995 H   0  0  0  0  0  0
    4.7058   27.2066    9.6455 H   0  0  0  0  0  0
    5.8906   28.2560    7.4147 H   0  0  0  0  0  0
    4.6339   27.2924    6.6976 H   0  0  0  0  0  0
    6.9362   26.2729    8.4413 H   0  0  0  0  0  0
    6.0961   25.7778    5.5294 H   0  0  0  0  0  0
    6.9744   24.5642    6.4030 H   0  0  0  0  0  0
    7.8926   27.1545    5.7832 H   0  0  0  0  0  0
    5.0531   25.3077    9.0639 H   0  0  0  0  0  0
  1  2  1  0  0  0
  1 31  1  0  0  0
  1 32  1  0  0  0
  1 33  1  0  0  0
  2  6  1  0  0  0
  2  3  1  0  0  0
  3  4  2  0  0  0
  3 34  1  0  0  0
  4  5  1  0  0  0
  4 12  1  0  0  0
  5 10  2  0  0  0
  5  6  1  0  0  0
  6  7  2  0  0  0
  7  8  1  0  0  0
  7 35  1  0  0  0
  8  9  2  0  0  0
  8 36  1  0  0  0
  9 10  1  0  0  0
  9 11  1  0  0  0
 10 37  1  0  0  0
 12 17  1  0  0  0
 12 13  2  0  0  0
 13 14  1  0  0  0
 13 19  1  0  0  0
 14 15  2  0  0  0
 14 16  1  0  0  0
 16 17  1  0  0  0
 16 38  1  0  0  0
 17 18  2  0  0  0
 19 24  1  0  0  0
 19 20  2  0  0  0
 20 21  1  0  0  0
 20 39  1  0  0  0
 21 22  2  0  0  0
 21 40  1  0  0  0
 22 23  1  0  0  0
 22 41  1  0  0  0
 23 24  2  0  0  0
 23 25  1  0  0  0
 24 42  1  0  0  0
 25 26  1  0  0  0
 25 43  1  0  0  0
 26 27  1  0  0  0
 26 44  1  0  0  0
 26 45  1  0  0  0
 27 28  1  0  0  0
 27 30  1  0  0  0
 27 46  1  0  0  0
 28 29  1  0  0  0
 28 47  1  0  0  0
 28 48  1  0  0  0
 29 49  1  0  0  0
 30 50  1  0  0  0
M  END
> <s_m_entry_id>
34749

> <s_m_entry_name>
ligand_docking-pose.246

> <s_m_Source_Path>
/home/csk/Desktop/cluster/DUD-E-result/cdk2

> <s_m_Source_File>
ligand_docking-pose.sdf

> <i_m_Source_File_Index>
246

> <i_lp_mmshare_version>
53161

> <r_lp_tautomer_probability>
1

> <s_lp_Force_Field>
OPLS_2005

> <r_lp_Energy>
28.951007

> <b_lp_Chiralities_Consistent>
1

> <s_lp_Variant>
612900-1

> <s_i_glide_gridfile>
glide-grid_1h00

> <i_i_glide_lignum>
1474

> <i_i_glide_rotatable_bonds>
8

> <r_i_docking_score>
-7.52796785776171

> <r_i_glide_ligand_efficiency>
-0.25093226192539

> <r_i_glide_ligand_efficiency_sa>
-0.779704880163124

> <r_i_glide_ligand_efficiency_ln>
-1.71043632106286

> <r_i_glide_gscore>
-7.52796785776171

> <r_i_glide_lipo>
-2.77092267234725

> <r_i_glide_hbond>
-0.748034009231156

> <r_i_glide_metal>
0

> <r_i_glide_rewards>
-1.11554864057745

> <r_i_glide_evdw>
-39.3379859924316

> <r_i_glide_ecoul>
-10.2505741119385

> <r_i_glide_erotb>
0.704840487001342

> <r_i_glide_esite>
-0.0938176061948365

> <r_i_glide_emodel>
-69.8584356172119

> <r_i_glide_energy>
-49.5885601043701

> <r_i_glide_einternal>
8.76131439208984

> <i_i_glide_confnum>
42

> <i_i_glide_posenum>
59

> <r_i_glide_eff_state_penalty>
0

> <i_f3d_flags>
0

> <s_user_duplicate_titles>
612900

> <s_m_subgroup_title>
dock_pv

> <s_m_subgroupid>
dock_pv1

> <b_m_subgroup_collapsed>
0

$$$$
287500
                    3D
 Schrodinger Suite 2021-1.
 44 46  0  0  1  0            999 V2000
    4.9936   27.7632    8.8733 C   0  0  0  0  0  0
    5.2887   28.0684    7.4070 C   0  0  2  0  0  0
    4.0419   28.1875    6.5120 C   0  0  1  0  0  0
    2.9645   29.0519    7.0497 C   0  0  0  0  0  0
    2.0636   29.6769    7.5921 C   0  0  0  0  0  0
    0.9623   30.3982    8.2258 C   0  0  0  0  0  0
    0.6821   31.6971    7.7759 C   0  0  0  0  0  0
   -0.3420   32.4523    8.3538 C   0  0  0  0  0  0
   -1.1016   31.9241    9.3959 C   0  0  0  0  0  0
   -0.7806   30.6559    9.8741 C   0  0  0  0  0  0
    0.2256   29.8865    9.3165 C   0  0  0  0  0  0
    0.2647   28.6461   10.1102 C   0  0  0  0  0  0
    1.0309   27.5382    9.9605 C   0  0  0  0  0  0
    1.0587   26.2852   10.6979 C   0  0  0  0  0  0
    0.0712   25.3908   11.1164 C   0  0  0  0  0  0
    0.7046   24.3281   11.7771 C   0  0  0  0  0  0
    2.0587   24.5873   11.7759 C   0  0  0  0  0  0
    2.2635   25.7591   11.0959 N   0  0  0  0  0  0
   -1.2745   25.5318   10.9174 O   0  0  0  0  0  0
   -2.0299   25.3661   12.1135 C   0  0  0  0  0  0
   -0.6811   28.8414   11.2046 C   0  0  0  0  0  0
   -0.8986   28.1467   12.1927 O   0  0  0  0  0  0
   -1.3089   29.9966   10.9537 N   0  0  0  0  0  0
    1.4241   32.2521    6.7899 F   0  0  0  0  0  0
    4.3968   28.6521    5.1896 N   0  0  0  0  0  0
    6.0582   26.9851    6.9297 O   0  0  0  0  0  0
    5.8744   28.9864    7.3697 H   0  0  0  0  0  0
    3.6580   27.1799    6.3897 H   0  0  0  0  0  0
    3.1654   26.2002   10.9582 H   0  0  0  0  0  0
    4.5608   28.6262    9.3760 H   0  0  0  0  0  0
    5.9177   27.4890    9.3760 H   0  0  0  0  0  0
    4.3027   26.9261    8.9754 H   0  0  0  0  0  0
   -0.5381   33.4521    7.9925 H   0  0  0  0  0  0
   -1.8839   32.5170    9.8478 H   0  0  0  0  0  0
    1.7510   27.5327    9.1595 H   0  0  0  0  0  0
    0.2154   23.4763   12.2241 H   0  0  0  0  0  0
    2.8824   24.0514   12.2126 H   0  0  0  0  0  0
   -2.9946   25.8594   12.0008 H   0  0  0  0  0  0
   -2.2038   24.3099   12.3185 H   0  0  0  0  0  0
   -1.5529   25.8010   12.9943 H   0  0  0  0  0  0
   -2.0325   30.3604   11.5596 H   0  0  0  0  0  0
    3.5835   28.6065    4.5955 H   0  0  0  0  0  0
    4.6395   29.6354    5.2697 H   0  0  0  0  0  0
    6.3224   27.2079    6.0296 H   0  0  0  0  0  0
  1  2  1  0  0  0
  1 30  1  0  0  0
  1 31  1  0  0  0
  1 32  1  0  0  0
  2 27  1  0  0  0
  2  3  1  0  0  0
  2 26  1  0  0  0
  3 28  1  0  0  0
  3  4  1  0  0  0
  3 25  1  0  0  0
  4  5  3  0  0  0
  5  6  1  0  0  0
  6 11  1  0  0  0
  6  7  2  0  0  0
  7  8  1  0  0  0
  7 24  1  0  0  0
  8  9  2  0  0  0
  8 33  1  0  0  0
  9 10  1  0  0  0
  9 34  1  0  0  0
 10 23  1  0  0  0
 10 11  2  0  0  0
 11 12  1  0  0  0
 12 13  2  0  0  0
 12 21  1  0  0  0
 13 14  1  0  0  0
 13 35  1  0  0  0
 14 18  1  0  0  0
 14 15  2  0  0  0
 15 16  1  0  0  0
 15 19  1  0  0  0
 16 17  2  0  0  0
 16 36  1  0  0  0
 17 18  1  0  0  0
 17 37  1  0  0  0
 18 29  1  0  0  0
 19 20  1  0  0  0
 20 38  1  0  0  0
 20 39  1  0  0  0
 20 40  1  0  0  0
 21 22  2  0  0  0
 21 23  1  0  0  0
 23 41  1  0  0  0
 25 42  1  0  0  0
 25 43  1  0  0  0
 26 44  1  0  0  0
M  END
> <s_m_entry_id>
34751

> <s_m_entry_name>
ligand_docking-pose.248

> <s_m_Source_Path>
/home/csk/Desktop/cluster/DUD-E-result/cdk2

> <s_m_Source_File>
ligand_docking-pose.sdf

> <i_m_Source_File_Index>
248

> <i_lp_mmshare_version>
53161

> <r_lp_tautomer_probability>
1

> <s_lp_Force_Field>
OPLS_2005

> <r_lp_Energy>
44.031491

> <b_lp_Chiralities_Consistent>
1

> <s_lp_Variant>
287500-1

> <s_i_glide_gridfile>
glide-grid_1h00

> <i_i_glide_lignum>
1311

> <i_i_glide_rotatable_bonds>
6

> <r_i_docking_score>
-7.52105355835949

> <r_i_glide_ligand_efficiency>
-0.289271290706134

> <r_i_glide_ligand_efficiency_sa>
-0.856965060489357

> <r_i_glide_ligand_efficiency_ln>
-1.76629474959112

> <r_i_glide_gscore>
-7.52105355835949

> <r_i_glide_lipo>
-3.05131307532898

> <r_i_glide_hbond>
-0.437236452984922

> <r_i_glide_metal>
0

> <r_i_glide_rewards>
-2.06906936756164

> <r_i_glide_evdw>
-34.5894088745117

> <r_i_glide_ecoul>
-5.24791097640991

> <r_i_glide_erotb>
0.605614543634378

> <r_i_glide_esite>
-0.0523921159312533

> <r_i_glide_emodel>
-53.2869760077139

> <r_i_glide_energy>
-39.8373198509216

> <r_i_glide_einternal>
3.62126326560974

> <i_i_glide_confnum>
5

> <i_i_glide_posenum>
374

> <r_i_glide_eff_state_penalty>
0

> <i_f3d_flags>
0

> <s_user_duplicate_titles>
287500

> <s_m_subgroup_title>
dock_pv

> <s_m_subgroupid>
dock_pv1

> <b_m_subgroup_collapsed>
0

$$$$
301094
                    3D
 Schrodinger Suite 2021-1.
 35 38  0  0  1  0            999 V2000
   -0.2981   22.1473   12.0798 C   0  0  0  0  0  0
    0.7015   23.1599   12.1415 O   0  0  0  0  0  0
    0.4231   24.4162   11.6386 C   0  0  0  0  0  0
    1.4450   25.3575   11.7277 C   0  0  0  0  0  0
    1.2579   26.6545   11.2611 C   0  0  0  0  0  0
    0.0514   27.0282   10.6815 C   0  0  0  0  0  0
   -0.9814   26.0864   10.5788 C   0  0  0  0  0  0
   -0.7991   24.7930   11.0628 C   0  0  0  0  0  0
   -0.1086   28.3271   10.1442 N   0  0  0  0  0  0
    0.7223   29.1116    9.3519 C   0  0  0  0  0  0
   -0.0566   30.2122    8.9253 C   0  0  0  0  0  0
    0.4579   31.0951    7.9562 C   0  0  0  0  0  0
    1.7160   30.8963    7.3767 C   0  0  0  0  0  0
    2.5026   29.8525    7.8727 C   0  0  0  0  0  0
    2.0483   28.9477    8.8488 C   0  0  0  0  0  0
    3.1182   28.0071    9.0088 C   0  0  0  0  0  0
    4.1459   28.3480    8.2739 N   0  0  0  0  0  0
    3.7897   29.4519    7.5921 N   0  0  0  0  0  0
   -1.2913   30.1002    9.6502 C   0  0  0  0  0  0
   -1.2835   28.9723   10.3272 N   0  0  0  0  0  0
   -2.4518   30.9508    9.6153 C   0  0  0  0  0  0
   -3.6007   30.5477    9.7760 O   0  0  0  0  0  0
   -2.1366   32.2542    9.3838 O   0  0  0  0  0  0
    4.4390   29.9116    6.9622 H   0  0  0  0  0  0
    0.0820   21.2363   12.5425 H   0  0  0  0  0  0
   -1.2010   22.4370   12.6180 H   0  0  0  0  0  0
   -0.5572   21.9074   11.0482 H   0  0  0  0  0  0
    2.3904   25.0897   12.1751 H   0  0  0  0  0  0
    2.0518   27.3773   11.3759 H   0  0  0  0  0  0
   -1.9264   26.3454   10.1246 H   0  0  0  0  0  0
   -1.6180   24.0977   10.9793 H   0  0  0  0  0  0
   -0.1349   31.9357    7.6297 H   0  0  0  0  0  0
    2.0901   31.5695    6.6211 H   0  0  0  0  0  0
    3.1870   27.1151    9.6105 H   0  0  0  0  0  0
   -2.9325   32.7903    9.4134 H   0  0  0  0  0  0
  1  2  1  0  0  0
  1 25  1  0  0  0
  1 26  1  0  0  0
  1 27  1  0  0  0
  2  3  1  0  0  0
  3  8  1  0  0  0
  3  4  2  0  0  0
  4  5  1  0  0  0
  4 28  1  0  0  0
  5  6  2  0  0  0
  5 29  1  0  0  0
  6  7  1  0  0  0
  6  9  1  0  0  0
  7  8  2  0  0  0
  7 30  1  0  0  0
  8 31  1  0  0  0
  9 20  1  0  0  0
  9 10  1  0  0  0
 10 15  2  0  0  0
 10 11  1  0  0  0
 11 12  2  0  0  0
 11 19  1  0  0  0
 12 13  1  0  0  0
 12 32  1  0  0  0
 13 14  2  0  0  0
 13 33  1  0  0  0
 14 18  1  0  0  0
 14 15  1  0  0  0
 15 16  1  0  0  0
 16 17  2  0  0  0
 16 34  1  0  0  0
 17 18  1  0  0  0
 18 24  1  0  0  0
 19 20  2  0  0  0
 19 21  1  0  0  0
 21 22  2  0  0  0
 21 23  1  0  0  0
 23 35  1  0  0  0
M  END
> <s_m_entry_id>
34754

> <s_m_entry_name>
ligand_docking-pose.251

> <s_m_Source_Path>
/home/csk/Desktop/cluster/DUD-E-result/cdk2

> <s_m_Source_File>
ligand_docking-pose.sdf

> <i_m_Source_File_Index>
251

> <i_lp_mmshare_version>
53161

> <r_lp_tautomer_probability>
1

> <s_lp_Force_Field>
OPLS_2005

> <r_lp_Energy>
64.505151

> <b_lp_Chiralities_Consistent>
1

> <s_lp_Variant>
301094-1

> <s_i_glide_gridfile>
glide-grid_1h00

> <i_i_glide_lignum>
1700

> <i_i_glide_rotatable_bonds>
4

> <r_i_docking_score>
-7.51815720512186

> <r_i_glide_ligand_efficiency>
-0.32687640022269

> <r_i_glide_ligand_efficiency_sa>
-0.929593000114474

> <r_i_glide_ligand_efficiency_ln>
-1.81795858307898

> <r_i_glide_gscore>
-7.51815720512186

> <r_i_glide_lipo>
-2.51238806317258

> <r_i_glide_hbond>
-0.272331852125156

> <r_i_glide_metal>
0

> <r_i_glide_rewards>
-2.6640891782314

> <r_i_glide_evdw>
-37.1109886169434

> <r_i_glide_ecoul>
-4.02053737640381

> <r_i_glide_erotb>
0.389281925715012

> <r_i_glide_esite>
0

> <r_i_glide_emodel>
-59.4962196518949

> <r_i_glide_energy>
-41.1315259933472

> <r_i_glide_einternal>
4.97507858276367

> <i_i_glide_confnum>
2

> <i_i_glide_posenum>
150

> <r_i_glide_eff_state_penalty>
0

> <i_f3d_flags>
0

> <s_user_duplicate_titles>
301094

> <s_m_subgroup_title>
dock_pv

> <s_m_subgroupid>
dock_pv1

> <b_m_subgroup_collapsed>
0

$$$$
307132
                    3D
 Schrodinger Suite 2021-1.
 37 39  0  0  1  0            999 V2000
    2.3288   27.3618   10.1840 C   0  0  0  0  0  0
    2.4352   28.4097    9.0947 C   0  0  0  0  0  0
    3.5059   28.5235    8.2090 C   0  0  0  0  0  0
    3.2634   29.5839    7.3998 N   0  0  0  0  0  0
    2.0821   30.1800    7.7174 C   0  0  0  0  0  0
    1.5026   29.4521    8.7704 C   0  0  0  0  0  0
    0.1366   29.7096    9.3789 C   0  0  0  0  0  0
   -0.7212   30.7428    8.9626 C   0  0  0  0  0  0
   -1.9568   30.8657    9.5950 C   0  0  0  0  0  0
   -2.3510   30.0220   10.5759 N   0  0  0  0  0  0
   -1.4834   29.0428   10.9218 C   0  0  0  0  0  0
   -0.2568   28.8532   10.3627 N   0  0  0  0  0  0
   -1.9114   28.2091   11.9597 N   0  0  0  0  0  0
   -1.4305   26.9664   12.3936 C   0  0  0  0  0  0
   -1.5432   26.6524   13.7482 C   0  0  0  0  0  0
   -1.0919   25.4224   14.2183 C   0  0  0  0  0  0
   -0.5352   24.5050   13.3304 C   0  0  0  0  0  0
   -0.4322   24.8043   11.9738 C   0  0  0  0  0  0
   -0.8868   26.0339   11.5035 C   0  0  0  0  0  0
   -0.0931   23.3136   13.7914 F   0  0  0  0  0  0
    1.6584   31.3649    6.8881 C   0  0  0  0  0  0
    4.7043   27.7279    7.9942 C   0  0  0  0  0  0
    5.6546   27.0938    7.8121 N   0  0  0  0  0  0
    3.8957   29.9266    6.6847 H   0  0  0  0  0  0
    1.5340   26.6474    9.9752 H   0  0  0  0  0  0
    2.0840   27.8140   11.1454 H   0  0  0  0  0  0
    3.2558   26.8071   10.3380 H   0  0  0  0  0  0
   -0.4814   31.4371    8.1807 H   0  0  0  0  0  0
   -2.6528   31.6451    9.3192 H   0  0  0  0  0  0
   -2.7276   28.5553   12.4509 H   0  0  0  0  0  0
   -1.9776   27.3666   14.4340 H   0  0  0  0  0  0
   -1.1723   25.1782   15.2652 H   0  0  0  0  0  0
   -0.0038   24.0859   11.2912 H   0  0  0  0  0  0
   -0.8212   26.2571   10.4491 H   0  0  0  0  0  0
    1.3374   32.2204    7.4809 H   0  0  0  0  0  0
    2.4572   31.7312    6.2432 H   0  0  0  0  0  0
    0.8583   31.0520    6.2268 H   0  0  0  0  0  0
  1  2  1  0  0  0
  1 25  1  0  0  0
  1 26  1  0  0  0
  1 27  1  0  0  0
  2  6  1  0  0  0
  2  3  2  0  0  0
  3  4  1  0  0  0
  3 22  1  0  0  0
  4 24  1  0  0  0
  4  5  1  0  0  0
  5  6  2  0  0  0
  5 21  1  0  0  0
  6  7  1  0  0  0
  7 12  1  0  0  0
  7  8  2  0  0  0
  8  9  1  0  0  0
  8 28  1  0  0  0
  9 10  2  0  0  0
  9 29  1  0  0  0
 10 11  1  0  0  0
 11 12  2  0  0  0
 11 13  1  0  0  0
 13 14  1  0  0  0
 13 30  1  0  0  0
 14 19  1  0  0  0
 14 15  2  0  0  0
 15 16  1  0  0  0
 15 31  1  0  0  0
 16 17  2  0  0  0
 16 32  1  0  0  0
 17 18  1  0  0  0
 17 20  1  0  0  0
 18 19  2  0  0  0
 18 33  1  0  0  0
 19 34  1  0  0  0
 21 35  1  0  0  0
 21 36  1  0  0  0
 21 37  1  0  0  0
 22 23  3  0  0  0
M  END
> <s_m_entry_id>
34755

> <s_m_entry_name>
ligand_docking-pose.252

> <s_m_Source_Path>
/home/csk/Desktop/cluster/DUD-E-result/cdk2

> <s_m_Source_File>
ligand_docking-pose.sdf

> <i_m_Source_File_Index>
252

> <i_lp_mmshare_version>
53161

> <r_lp_tautomer_probability>
0.999999987636

> <s_lp_Force_Field>
OPLS_2005

> <r_lp_Energy>
5.165122

> <b_lp_Chiralities_Consistent>
1

> <s_lp_Variant>
307132-1

> <s_i_glide_gridfile>
glide-grid_1h00

> <i_i_glide_lignum>
812

> <i_i_glide_rotatable_bonds>
3

> <r_i_docking_score>
-7.51580607277877

> <r_i_glide_ligand_efficiency>
-0.326774177077338

> <r_i_glide_ligand_efficiency_sa>
-0.929302291087136

> <r_i_glide_ligand_efficiency_ln>
-1.81739005795953

> <r_i_glide_gscore>
-7.51580607277877

> <r_i_glide_lipo>
-2.50540534282602

> <r_i_glide_hbond>
-0.345217427612837

> <r_i_glide_metal>
0

> <r_i_glide_rewards>
-2.79097304375864

> <r_i_glide_evdw>
-38.2681198120117

> <r_i_glide_ecoul>
-3.48785519599915

> <r_i_glide_erotb>
0.587149201159387

> <r_i_glide_esite>
-0.0247751897402072

> <r_i_glide_emodel>
-60.8658828919757

> <r_i_glide_energy>
-41.7559750080109

> <r_i_glide_einternal>
0.856422662734985

> <i_i_glide_confnum>
4

> <i_i_glide_posenum>
224

> <r_i_glide_eff_state_penalty>
0

> <i_f3d_flags>
0

> <s_user_duplicate_titles>
307132

> <s_m_subgroup_title>
dock_pv

> <s_m_subgroupid>
dock_pv1

> <b_m_subgroup_collapsed>
0

$$$$
574880
                    3D
 Schrodinger Suite 2021-1.
 57 60  0  0  1  0            999 V2000
   -2.0589   26.1975   14.3496 C   0  0  0  0  0  0
   -1.2603   25.6111   13.1859 C   0  0  0  0  0  0
   -0.6341   24.3704   13.3548 C   0  0  0  0  0  0
    0.1107   23.8065   12.3198 C   0  0  0  0  0  0
    0.2277   24.4745   11.1032 C   0  0  0  0  0  0
   -0.4074   25.7005   10.9193 C   0  0  0  0  0  0
   -1.1454   26.2868   11.9559 C   0  0  0  0  0  0
   -1.8000   27.5171   11.7762 N   0  0  0  0  0  0
   -1.5409   28.6209   10.9588 C   0  0  0  0  0  0
   -2.5025   29.5644   10.9752 N   0  0  0  0  0  0
   -2.2654   30.6975   10.2727 C   0  0  0  0  0  0
   -1.0902   30.9068    9.5467 C   0  0  0  0  0  0
   -0.1492   29.8518    9.5453 C   0  0  0  0  0  0
   -0.3786   28.7150   10.2653 N   0  0  0  0  0  0
    1.1548   29.8119    8.7949 C   0  0  0  0  0  0
    2.1785   28.8488    8.9759 C   0  0  0  0  0  0
    3.1862   29.0355    8.0324 C   0  0  0  0  0  0
    2.8561   30.1907    7.3761 N   0  0  0  0  0  0
    1.6273   30.6448    7.7760 C   0  0  0  0  0  0
    4.3655   28.2693    7.7194 C   0  0  0  0  0  0
    5.2465   28.7319    7.0052 O   0  0  0  0  0  0
    4.3660   27.0036    8.1761 N   0  0  0  0  0  0
    5.2684   25.9061    7.7708 C   0  0  2  0  0  0
    6.7809   26.2519    7.7219 C   0  0  0  0  0  0
    7.5766   25.1347    7.3758 O   0  0  0  0  0  0
    4.8047   25.1980    6.4942 C   0  0  0  0  0  0
    4.7911   25.8754    5.2703 C   0  0  0  0  0  0
    4.4142   25.2085    4.1095 C   0  0  0  0  0  0
    4.0579   23.8647    4.1711 C   0  0  0  0  0  0
    4.0778   23.1766    5.3793 C   0  0  0  0  0  0
    4.4583   23.8432    6.5403 C   0  0  0  0  0  0
   -0.8871   32.2424    8.8499 C   0  0  0  0  0  0
    3.4460   30.6242    6.6679 H   0  0  0  0  0  0
    5.1739   25.1860    8.5825 H   0  0  0  0  0  0
   -2.2328   25.4697   15.1400 H   0  0  0  0  0  0
   -1.5412   27.0597   14.7676 H   0  0  0  0  0  0
   -3.0366   26.5444   14.0128 H   0  0  0  0  0  0
   -0.7142   23.8407   14.2925 H   0  0  0  0  0  0
    0.5969   22.8531   12.4609 H   0  0  0  0  0  0
    0.8040   24.0420   10.2984 H   0  0  0  0  0  0
   -0.3247   26.1870    9.9597 H   0  0  0  0  0  0
   -2.6134   27.6545   12.3587 H   0  0  0  0  0  0
   -3.0370   31.4538   10.3332 H   0  0  0  0  0  0
    2.1444   28.0435    9.6958 H   0  0  0  0  0  0
    1.2097   31.5206    7.3069 H   0  0  0  0  0  0
    3.6266   26.7461    8.8105 H   0  0  0  0  0  0
    6.9771   27.0035    6.9605 H   0  0  0  0  0  0
    7.1138   26.6520    8.6802 H   0  0  0  0  0  0
    7.4267   24.9345    6.4473 H   0  0  0  0  0  0
    5.0837   26.9132    5.2091 H   0  0  0  0  0  0
    4.4030   25.7272    3.1609 H   0  0  0  0  0  0
    3.7649   23.3560    3.2627 H   0  0  0  0  0  0
    3.7978   22.1349    5.4150 H   0  0  0  0  0  0
    4.4729   23.3024    7.4756 H   0  0  0  0  0  0
   -1.6719   32.9597    9.0913 H   0  0  0  0  0  0
    0.0580   32.6964    9.1385 H   0  0  0  0  0  0
   -0.8727   32.1035    7.7762 H   0  0  0  0  0  0
  1  2  1  0  0  0
  1 35  1  0  0  0
  1 36  1  0  0  0
  1 37  1  0  0  0
  2  7  1  0  0  0
  2  3  2  0  0  0
  3  4  1  0  0  0
  3 38  1  0  0  0
  4  5  2  0  0  0
  4 39  1  0  0  0
  5  6  1  0  0  0
  5 40  1  0  0  0
  6  7  2  0  0  0
  6 41  1  0  0  0
  7  8  1  0  0  0
  8  9  1  0  0  0
  8 42  1  0  0  0
  9 14  1  0  0  0
  9 10  2  0  0  0
 10 11  1  0  0  0
 11 12  2  0  0  0
 11 43  1  0  0  0
 12 13  1  0  0  0
 12 32  1  0  0  0
 13 14  2  0  0  0
 13 15  1  0  0  0
 15 19  2  0  0  0
 15 16  1  0  0  0
 16 17  2  0  0  0
 16 44  1  0  0  0
 17 18  1  0  0  0
 17 20  1  0  0  0
 18 33  1  0  0  0
 18 19  1  0  0  0
 19 45  1  0  0  0
 20 21  2  0  0  0
 20 22  1  0  0  0
 22 23  1  0  0  0
 22 46  1  0  0  0
 23 34  1  0  0  0
 23 24  1  0  0  0
 23 26  1  0  0  0
 24 25  1  0  0  0
 24 47  1  0  0  0
 24 48  1  0  0  0
 25 49  1  0  0  0
 26 31  1  0  0  0
 26 27  2  0  0  0
 27 28  1  0  0  0
 27 50  1  0  0  0
 28 29  2  0  0  0
 28 51  1  0  0  0
 29 30  1  0  0  0
 29 52  1  0  0  0
 30 31  2  0  0  0
 30 53  1  0  0  0
 31 54  1  0  0  0
 32 55  1  0  0  0
 32 56  1  0  0  0
 32 57  1  0  0  0
M  END
> <s_m_entry_id>
34757

> <s_m_entry_name>
ligand_docking-pose.254

> <s_m_Source_Path>
/home/csk/Desktop/cluster/DUD-E-result/cdk2

> <s_m_Source_File>
ligand_docking-pose.sdf

> <i_m_Source_File_Index>
254

> <i_lp_mmshare_version>
53161

> <r_lp_tautomer_probability>
0.999999987636

> <s_lp_Force_Field>
OPLS_2005

> <r_lp_Energy>
10.899892

> <b_lp_Chiralities_Consistent>
1

> <s_lp_Variant>
574880-1

> <s_i_glide_gridfile>
glide-grid_1h00

> <i_i_glide_lignum>
732

> <i_i_glide_rotatable_bonds>
9

> <r_i_docking_score>
-7.50505004769885

> <r_i_glide_ligand_efficiency>
-0.234532813990589

> <r_i_glide_ligand_efficiency_sa>
-0.744595270439256

> <r_i_glide_ligand_efficiency_ln>
-1.68058528561746

> <r_i_glide_gscore>
-7.50505004769885

> <r_i_glide_lipo>
-3.10070928921355

> <r_i_glide_hbond>
-0.32

> <r_i_glide_metal>
0

> <r_i_glide_rewards>
-2.00039051247807

> <r_i_glide_evdw>
-45.8776512145996

> <r_i_glide_ecoul>
-3.67056155204773

> <r_i_glide_erotb>
0.760516547529911

> <r_i_glide_esite>
0

> <r_i_glide_emodel>
-67.9502717086824

> <r_i_glide_energy>
-49.5482127666473

> <r_i_glide_einternal>
6.40992307662964

> <i_i_glide_confnum>
24

> <i_i_glide_posenum>
97

> <r_i_glide_eff_state_penalty>
0

> <i_f3d_flags>
0

> <s_user_duplicate_titles>
574880

> <s_m_subgroup_title>
dock_pv

> <s_m_subgroupid>
dock_pv1

> <b_m_subgroup_collapsed>
0

$$$$
35498
                    3D
 Schrodinger Suite 2021-1.
 52 56  0  0  1  0            999 V2000
    7.3582   25.5047    4.8374 C   0  0  0  0  0  0
    6.9391   25.6647    6.1882 O   0  0  0  0  0  0
    5.9549   26.5881    6.4769 C   0  0  0  0  0  0
    5.2579   27.3320    5.5147 C   0  0  0  0  0  0
    4.2915   28.2533    5.9059 C   0  0  0  0  0  0
    3.9942   28.4348    7.2601 C   0  0  0  0  0  0
    4.6874   27.6964    8.2180 C   0  0  0  0  0  0
    5.6570   26.7788    7.8230 C   0  0  0  0  0  0
    2.8578   29.3183    7.6603 C   0  0  0  0  0  0
    1.8880   29.2034    8.6458 C   0  0  0  0  0  0
    0.9704   30.2163    8.3961 C   0  0  0  0  0  0
    1.3167   30.9802    7.3849 N   0  0  0  0  0  0
    2.4578   30.4283    6.9626 N   0  0  0  0  0  0
   -0.1445   30.1310    9.3384 C   0  0  0  0  0  0
   -1.2816   30.9116    9.5344 C   0  0  0  0  0  0
   -2.1655   30.5814   10.5620 C   0  0  0  0  0  0
   -1.9281   29.4621   11.3621 C   0  0  0  0  0  0
   -0.8122   28.6550   11.1426 C   0  0  0  0  0  0
    0.1137   29.0156   10.1438 C   0  0  0  0  0  0
    1.4340   28.4070    9.7760 C   0  0  0  0  0  0
    2.0008   27.4449   10.2898 O   0  0  0  0  0  0
   -0.6804   27.5458   11.9844 N   0  0  0  0  0  0
   -0.5407   26.2718   11.5712 C   0  0  0  0  0  0
   -0.7006   25.9054   10.4022 O   0  0  0  0  0  0
   -0.1423   25.2798   12.6733 C   0  0  0  0  0  0
   -0.0680   23.8180   12.2403 C   0  0  0  0  0  0
    0.9471   23.3947   11.3770 C   0  0  0  0  0  0
    1.0080   22.0625   10.9757 C   0  0  0  0  0  0
    0.0473   21.1615   11.4260 C   0  0  0  0  0  0
   -0.9539   21.5730   12.3004 C   0  0  0  0  0  0
   -1.0122   22.9025   12.7105 C   0  0  0  0  0  0
    0.0582   19.8450   10.9809 N   0  0  0  0  0  0
    3.0010   30.8284    6.2074 H   0  0  0  0  0  0
    8.1667   24.7755    4.7931 H   0  0  0  0  0  0
    6.5469   25.1376    4.2059 H   0  0  0  0  0  0
    7.7349   26.4394    4.4205 H   0  0  0  0  0  0
    5.4563   27.2116    4.4618 H   0  0  0  0  0  0
    3.7527   28.8026    5.1494 H   0  0  0  0  0  0
    4.4585   27.8034    9.2690 H   0  0  0  0  0  0
    6.1754   26.2029    8.5760 H   0  0  0  0  0  0
   -1.4760   31.7766    8.9148 H   0  0  0  0  0  0
   -3.0424   31.1902   10.7396 H   0  0  0  0  0  0
   -2.6349   29.2128   12.1416 H   0  0  0  0  0  0
   -0.8949   27.6989   12.9608 H   0  0  0  0  0  0
   -0.8010   25.4005   13.5346 H   0  0  0  0  0  0
    0.8582   25.5808   12.9780 H   0  0  0  0  0  0
    1.6736   24.1025   11.0023 H   0  0  0  0  0  0
    1.7776   21.7435   10.2899 H   0  0  0  0  0  0
   -1.6944   20.8651   12.6491 H   0  0  0  0  0  0
   -1.8008   23.2188   13.3781 H   0  0  0  0  0  0
    0.8484   19.5032   10.4571 H   0  0  0  0  0  0
   -0.5595   19.1817   11.4551 H   0  0  0  0  0  0
  1  2  1  0  0  0
  1 34  1  0  0  0
  1 35  1  0  0  0
  1 36  1  0  0  0
  2  3  1  0  0  0
  3  8  1  0  0  0
  3  4  2  0  0  0
  4  5  1  0  0  0
  4 37  1  0  0  0
  5  6  2  0  0  0
  5 38  1  0  0  0
  6  7  1  0  0  0
  6  9  1  0  0  0
  7  8  2  0  0  0
  7 39  1  0  0  0
  8 40  1  0  0  0
  9 13  1  0  0  0
  9 10  2  0  0  0
 10 20  1  0  0  0
 10 11  1  0  0  0
 11 12  2  0  0  0
 11 14  1  0  0  0
 12 13  1  0  0  0
 13 33  1  0  0  0
 14 19  2  0  0  0
 14 15  1  0  0  0
 15 16  2  0  0  0
 15 41  1  0  0  0
 16 17  1  0  0  0
 16 42  1  0  0  0
 17 18  2  0  0  0
 17 43  1  0  0  0
 18 19  1  0  0  0
 18 22  1  0  0  0
 19 20  1  0  0  0
 20 21  2  0  0  0
 22 23  1  0  0  0
 22 44  1  0  0  0
 23 24  2  0  0  0
 23 25  1  0  0  0
 25 26  1  0  0  0
 25 45  1  0  0  0
 25 46  1  0  0  0
 26 31  1  0  0  0
 26 27  2  0  0  0
 27 28  1  0  0  0
 27 47  1  0  0  0
 28 29  2  0  0  0
 28 48  1  0  0  0
 29 30  1  0  0  0
 29 32  1  0  0  0
 30 31  2  0  0  0
 30 49  1  0  0  0
 31 50  1  0  0  0
 32 51  1  0  0  0
 32 52  1  0  0  0
M  END
> <s_m_entry_id>
34759

> <s_m_entry_name>
ligand_docking-pose.256

> <s_m_Source_Path>
/home/csk/Desktop/cluster/DUD-E-result/cdk2

> <s_m_Source_File>
ligand_docking-pose.sdf

> <i_m_Source_File_Index>
256

> <i_lp_mmshare_version>
53161

> <r_lp_tautomer_probability>
1

> <s_lp_Force_Field>
OPLS_2005

> <r_lp_Energy>
66.352214

> <b_lp_Chiralities_Consistent>
1

> <s_lp_Variant>
35498-1

> <s_i_glide_gridfile>
glide-grid_1h00

> <i_i_glide_lignum>
1622

> <i_i_glide_rotatable_bonds>
6

> <r_i_docking_score>
-7.50166330417709

> <r_i_glide_ligand_efficiency>
-0.234426978255534

> <r_i_glide_ligand_efficiency_sa>
-0.74425926292532

> <r_i_glide_ligand_efficiency_ln>
-1.6798269014238

> <r_i_glide_gscore>
-7.50166330417709

> <r_i_glide_lipo>
-2.72091237074916

> <r_i_glide_hbond>
-0.37395056549913

> <r_i_glide_metal>
0

> <r_i_glide_rewards>
-1.46561298490226

> <r_i_glide_evdw>
-44.1842002868652

> <r_i_glide_ecoul>
-7.91146993637085

> <r_i_glide_erotb>
0.550304487563507

> <r_i_glide_esite>
-0.0955613657911566

> <r_i_glide_emodel>
-67.9876804141803

> <r_i_glide_energy>
-52.0956702232361

> <r_i_glide_einternal>
11.9085111618042

> <i_i_glide_confnum>
1

> <i_i_glide_posenum>
158

> <r_i_glide_eff_state_penalty>
0

> <i_f3d_flags>
0

> <s_user_duplicate_titles>
35498

> <s_m_subgroup_title>
dock_pv

> <s_m_subgroupid>
dock_pv1

> <b_m_subgroup_collapsed>
0

$$$$
312711
                    3D
 Schrodinger Suite 2021-1.
 46 49  0  0  1  0            999 V2000
   -1.5594   24.7751   13.2052 C   0  0  0  0  0  0
   -2.3454   25.9221   12.9032 O   0  0  0  0  0  0
   -1.8399   26.8745   12.0418 C   0  0  0  0  0  0
   -0.5543   26.8346   11.4861 C   0  0  0  0  0  0
   -0.1435   27.8436   10.6170 C   0  0  0  0  0  0
   -1.0196   28.9022   10.3309 C   0  0  0  0  0  0
   -1.0519   30.0874    9.5357 C   0  0  0  0  0  0
   -2.3314   30.5945    9.7796 C   0  0  0  0  0  0
   -3.0662   29.8537   10.5759 N   0  0  0  0  0  0
   -2.2673   28.8412   10.9735 N   0  0  0  0  0  0
   -2.7250   27.8674   11.7770 N   0  0  0  0  0  0
   -0.0015   30.6723    8.6482 C   0  0  0  0  0  0
   -0.0978   31.9858    8.1810 C   0  0  0  0  0  0
    0.9368   32.4487    7.3758 C   0  0  0  0  0  0
    1.9822   31.6668    6.9956 N   0  0  0  0  0  0
    2.0505   30.4366    7.5741 C   0  0  0  0  0  0
    1.0809   29.8993    8.3685 N   0  0  0  0  0  0
    3.2579   29.7480    7.3735 N   0  0  0  0  0  0
    3.6618   28.4532    7.7363 C   0  0  0  0  0  0
    4.4616   27.7086    6.8656 C   0  0  0  0  0  0
    4.6669   26.3350    7.0903 C   0  0  0  0  0  0
    4.0345   25.7274    8.1757 C   0  0  0  0  0  0
    3.2581   26.4756    9.0747 C   0  0  0  0  0  0
    3.1821   27.8518    8.8969 C   0  0  0  0  0  0
    2.5435   25.9539   10.1359 O   0  0  0  0  0  0
    2.3278   24.5519   10.1993 C   0  0  0  0  0  0
    5.3988   25.4961    6.2745 O   0  0  0  0  0  0
    6.0983   26.0325    5.1589 C   0  0  0  0  0  0
   -2.1229   24.1193   13.8686 H   0  0  0  0  0  0
   -1.3198   24.2058   12.3053 H   0  0  0  0  0  0
   -0.6340   25.0473   13.7158 H   0  0  0  0  0  0
    0.1339   26.0340   11.7066 H   0  0  0  0  0  0
    0.8256   27.7926   10.1644 H   0  0  0  0  0  0
   -2.7438   31.4952    9.3486 H   0  0  0  0  0  0
   -0.9278   32.6285    8.4322 H   0  0  0  0  0  0
    0.9103   33.4514    6.9761 H   0  0  0  0  0  0
    3.9152   30.2817    6.8071 H   0  0  0  0  0  0
    4.8672   28.1902    5.9891 H   0  0  0  0  0  0
    4.1499   24.6626    8.2969 H   0  0  0  0  0  0
    2.6603   28.4472    9.6237 H   0  0  0  0  0  0
    1.8081   24.3117   11.1260 H   0  0  0  0  0  0
    1.7006   24.2158    9.3750 H   0  0  0  0  0  0
    3.2579   23.9878   10.1920 H   0  0  0  0  0  0
    6.5187   25.2137    4.5755 H   0  0  0  0  0  0
    6.9297   26.6521    5.4902 H   0  0  0  0  0  0
    5.4514   26.6051    4.4930 H   0  0  0  0  0  0
  1  2  1  0  0  0
  1 29  1  0  0  0
  1 30  1  0  0  0
  1 31  1  0  0  0
  2  3  1  0  0  0
  3 11  2  0  0  0
  3  4  1  0  0  0
  4  5  2  0  0  0
  4 32  1  0  0  0
  5  6  1  0  0  0
  5 33  1  0  0  0
  6 10  1  0  0  0
  6  7  2  0  0  0
  7  8  1  0  0  0
  7 12  1  0  0  0
  8  9  2  0  0  0
  8 34  1  0  0  0
  9 10  1  0  0  0
 10 11  1  0  0  0
 12 17  1  0  0  0
 12 13  2  0  0  0
 13 14  1  0  0  0
 13 35  1  0  0  0
 14 15  2  0  0  0
 14 36  1  0  0  0
 15 16  1  0  0  0
 16 17  2  0  0  0
 16 18  1  0  0  0
 18 19  1  0  0  0
 18 37  1  0  0  0
 19 24  1  0  0  0
 19 20  2  0  0  0
 20 21  1  0  0  0
 20 38  1  0  0  0
 21 22  2  0  0  0
 21 27  1  0  0  0
 22 23  1  0  0  0
 22 39  1  0  0  0
 23 24  2  0  0  0
 23 25  1  0  0  0
 24 40  1  0  0  0
 25 26  1  0  0  0
 26 41  1  0  0  0
 26 42  1  0  0  0
 26 43  1  0  0  0
 27 28  1  0  0  0
 28 44  1  0  0  0
 28 45  1  0  0  0
 28 46  1  0  0  0
M  END
> <s_m_entry_id>
34761

> <s_m_entry_name>
ligand_docking-pose.258

> <s_m_Source_Path>
/home/csk/Desktop/cluster/DUD-E-result/cdk2

> <s_m_Source_File>
ligand_docking-pose.sdf

> <i_m_Source_File_Index>
258

> <i_lp_mmshare_version>
53161

> <r_lp_tautomer_probability>
0.999999987636

> <s_lp_Force_Field>
OPLS_2005

> <r_lp_Energy>
24.245895

> <b_lp_Chiralities_Consistent>
1

> <s_lp_Variant>
312711-1

> <s_i_glide_gridfile>
glide-grid_1h00

> <i_i_glide_lignum>
1609

> <i_i_glide_rotatable_bonds>
6

> <r_i_docking_score>
-7.49802536243326

> <r_i_glide_ligand_efficiency>
-0.267786620086902

> <r_i_glide_ligand_efficiency_sa>
-0.813157896468542

> <r_i_glide_ligand_efficiency_ln>
-1.73076440524042

> <r_i_glide_gscore>
-7.49802536243326

> <r_i_glide_lipo>
-2.71333737217833

> <r_i_glide_hbond>
-0.548814234181755

> <r_i_glide_metal>
0

> <r_i_glide_rewards>
-2.30780321814625

> <r_i_glide_evdw>
-33.8742523193359

> <r_i_glide_ecoul>
-3.38056468963623

> <r_i_glide_erotb>
0.284233128214384

> <r_i_glide_esite>
-0.0115063467290806

> <r_i_glide_emodel>
-41.98110790104

> <r_i_glide_energy>
-37.2548170089722

> <r_i_glide_einternal>
8.71466159820557

> <i_i_glide_confnum>
1

> <i_i_glide_posenum>
1

> <r_i_glide_eff_state_penalty>
0

> <i_f3d_flags>
0

> <s_user_duplicate_titles>
312711

> <s_m_subgroup_title>
dock_pv

> <s_m_subgroupid>
dock_pv1

> <b_m_subgroup_collapsed>
0

$$$$
316418
                    3D
 Schrodinger Suite 2021-1.
 47 50  0  0  1  0            999 V2000
   -1.8511   32.4931   10.1750 C   0  0  0  0  0  0
   -1.8027   31.4611    9.0379 C   0  0  0  0  0  0
   -1.0247   30.2185    9.4216 C   0  0  0  0  0  0
    0.2915   29.8143    9.0325 C   0  0  0  0  0  0
    0.5611   28.6519    9.7983 C   0  0  0  0  0  0
    1.7207   27.9720    9.7953 N   0  0  0  0  0  0
    2.6573   28.5189    8.9707 C   0  0  0  0  0  0
    2.5038   29.6070    8.1758 N   0  0  0  0  0  0
    1.3174   30.2520    8.1760 C   0  0  0  0  0  0
    1.0776   31.3290    7.3762 O   0  0  0  0  0  0
    4.0211   27.8331    8.8848 C   0  0  0  0  0  0
    4.4015   27.3052    7.4893 C   0  0  0  0  0  0
    4.6401   28.2386    6.4720 C   0  0  0  0  0  0
    4.8580   27.8298    5.1600 C   0  0  0  0  0  0
    4.9034   26.4749    4.8530 C   0  0  0  0  0  0
    4.7176   25.5305    5.8593 C   0  0  0  0  0  0
    4.4579   25.9264    7.1811 C   0  0  0  0  0  0
    4.1824   24.8749    8.2580 C   0  0  0  0  0  0
    4.0580   23.5379    7.8051 O   0  0  0  0  0  0
   -0.5896   28.4154   10.5376 N   0  0  0  0  0  0
   -1.5273   29.3544   10.2696 N   0  0  0  0  0  0
   -0.8554   27.4209   11.5067 C   0  0  0  0  0  0
   -1.0825   27.7987   12.8440 C   0  0  0  0  0  0
   -1.3523   26.8258   13.8056 C   0  0  0  0  0  0
   -1.3851   25.4786   13.4600 C   0  0  0  0  0  0
   -1.1677   25.0985   12.1379 C   0  0  0  0  0  0
   -0.9178   26.0592   11.1565 C   0  0  0  0  0  0
   -0.7449   25.5101    9.5266 Cl  0  0  0  0  0  0
   -1.7106   24.2868   14.6654 Cl  0  0  0  0  0  0
   -1.0205   29.4523   13.3563 Cl  0  0  0  0  0  0
   -2.3440   33.4092    9.8507 H   0  0  0  0  0  0
   -2.3936   32.1064   11.0388 H   0  0  0  0  0  0
   -0.8474   32.7640   10.5055 H   0  0  0  0  0  0
   -1.3514   31.9386    8.1738 H   0  0  0  0  0  0
   -2.8190   31.2034    8.7367 H   0  0  0  0  0  0
    1.8516   31.4751    6.8294 H   0  0  0  0  0  0
    4.7794   28.5574    9.1848 H   0  0  0  0  0  0
    4.0580   27.0522    9.6391 H   0  0  0  0  0  0
    4.6223   29.2970    6.6876 H   0  0  0  0  0  0
    5.0241   28.5672    4.3887 H   0  0  0  0  0  0
    5.0892   26.1526    3.8379 H   0  0  0  0  0  0
    4.7614   24.4841    5.5939 H   0  0  0  0  0  0
    4.9949   24.9230    8.9757 H   0  0  0  0  0  0
    3.2604   25.1187    8.7884 H   0  0  0  0  0  0
    3.1917   23.4520    7.3768 H   0  0  0  0  0  0
   -1.5400   27.1231   14.8258 H   0  0  0  0  0  0
   -1.2164   24.0546   11.8667 H   0  0  0  0  0  0
  1  2  1  0  0  0
  1 31  1  0  0  0
  1 32  1  0  0  0
  1 33  1  0  0  0
  2  3  1  0  0  0
  2 34  1  0  0  0
  2 35  1  0  0  0
  3 21  2  0  0  0
  3  4  1  0  0  0
  4  9  2  0  0  0
  4  5  1  0  0  0
  5  6  2  0  0  0
  5 20  1  0  0  0
  6  7  1  0  0  0
  7  8  2  0  0  0
  7 11  1  0  0  0
  8  9  1  0  0  0
  9 10  1  0  0  0
 10 36  1  0  0  0
 11 12  1  0  0  0
 11 37  1  0  0  0
 11 38  1  0  0  0
 12 17  1  0  0  0
 12 13  2  0  0  0
 13 14  1  0  0  0
 13 39  1  0  0  0
 14 15  2  0  0  0
 14 40  1  0  0  0
 15 16  1  0  0  0
 15 41  1  0  0  0
 16 17  2  0  0  0
 16 42  1  0  0  0
 17 18  1  0  0  0
 18 19  1  0  0  0
 18 43  1  0  0  0
 18 44  1  0  0  0
 19 45  1  0  0  0
 20 21  1  0  0  0
 20 22  1  0  0  0
 22 27  1  0  0  0
 22 23  2  0  0  0
 23 24  1  0  0  0
 23 30  1  0  0  0
 24 25  2  0  0  0
 24 46  1  0  0  0
 25 26  1  0  0  0
 25 29  1  0  0  0
 26 27  2  0  0  0
 26 47  1  0  0  0
 27 28  1  0  0  0
M  END
> <s_m_entry_id>
34763

> <s_m_entry_name>
ligand_docking-pose.260

> <s_m_Source_Path>
/home/csk/Desktop/cluster/DUD-E-result/cdk2

> <s_m_Source_File>
ligand_docking-pose.sdf

> <i_m_Source_File_Index>
260

> <i_lp_mmshare_version>
53161

> <r_lp_tautomer_probability>
1

> <s_lp_Force_Field>
OPLS_2005

> <r_lp_Energy>
7.617929

> <b_lp_Chiralities_Consistent>
1

> <s_lp_Variant>
316418-1

> <s_i_glide_gridfile>
glide-grid_1h00

> <i_i_glide_lignum>
933

> <i_i_glide_rotatable_bonds>
7

> <r_i_docking_score>
-7.49100084819372

> <r_i_glide_ligand_efficiency>
-0.249700028273124

> <r_i_glide_ligand_efficiency_sa>
-0.775876043708213

> <r_i_glide_ligand_efficiency_ln>
-1.70203701370118

> <r_i_glide_gscore>
-7.49100084819372

> <r_i_glide_lipo>
-3.11839517555286

> <r_i_glide_hbond>
-0.32

> <r_i_glide_metal>
0

> <r_i_glide_rewards>
-1.33919594389545

> <r_i_glide_evdw>
-47.1362609863281

> <r_i_glide_ecoul>
-4.87636518478394

> <r_i_glide_erotb>
0.374858098288581

> <r_i_glide_esite>
0

> <r_i_glide_emodel>
-72.5926941132832

> <r_i_glide_energy>
-52.0126261711121

> <r_i_glide_einternal>
4.01131248474121

> <i_i_glide_confnum>
40

> <i_i_glide_posenum>
260

> <r_i_glide_eff_state_penalty>
0

> <i_f3d_flags>
0

> <s_user_duplicate_titles>
316418

> <s_m_subgroup_title>
dock_pv

> <s_m_subgroupid>
dock_pv1

> <b_m_subgroup_collapsed>
0

$$$$
311348
                    3D
 Schrodinger Suite 2021-1.
 29 30  0  0  1  0            999 V2000
   -2.2995   30.1806   10.4732 C   0  0  0  0  0  0
   -2.1290   31.6153    9.3713 S   0  0  0  0  0  0
   -0.5425   31.3267    8.6481 C   0  0  0  0  0  0
    0.1985   32.2223    7.8793 C   0  0  0  0  0  0
    1.3340   31.7889    7.3727 N   0  0  0  0  0  0
    1.6241   30.5786    7.7760 C   0  0  0  0  0  0
    0.3816   29.8520    8.7720 S   0  0  0  0  0  0
    2.8566   30.0087    7.4679 N   0  0  0  0  0  0
    3.4526   28.9547    8.0670 C   0  0  0  0  0  0
    2.9639   28.2873    8.9793 O   0  0  0  0  0  0
    4.8504   28.5936    7.5527 C   0  0  0  0  0  0
    4.8058   27.3142    6.7279 C   0  0  0  0  0  0
    4.9113   26.0737    7.3627 C   0  0  0  0  0  0
    4.7949   24.9017    6.6196 C   0  0  0  0  0  0
    4.5698   24.9739    5.2454 C   0  0  0  0  0  0
    4.4614   26.2074    4.6058 C   0  0  0  0  0  0
    4.5787   27.3799    5.3489 C   0  0  0  0  0  0
   -3.2649   30.2133   10.9749 H   0  0  0  0  0  0
   -1.5191   30.1747   11.2327 H   0  0  0  0  0  0
   -2.2526   29.2495    9.9108 H   0  0  0  0  0  0
   -0.1130   33.2320    7.6476 H   0  0  0  0  0  0
    3.4289   30.5306    6.8101 H   0  0  0  0  0  0
    5.2643   29.4071    6.9544 H   0  0  0  0  0  0
    5.5103   28.4690    8.4131 H   0  0  0  0  0  0
    5.0679   26.0201    8.4321 H   0  0  0  0  0  0
    4.8724   23.9408    7.1088 H   0  0  0  0  0  0
    4.4748   24.0637    4.6698 H   0  0  0  0  0  0
    4.2832   26.2511    3.5400 H   0  0  0  0  0  0
    4.4886   28.3377    4.8542 H   0  0  0  0  0  0
  1  2  1  0  0  0
  1 18  1  0  0  0
  1 19  1  0  0  0
  1 20  1  0  0  0
  2  3  1  0  0  0
  3  7  1  0  0  0
  3  4  2  0  0  0
  4  5  1  0  0  0
  4 21  1  0  0  0
  5  6  2  0  0  0
  6  7  1  0  0  0
  6  8  1  0  0  0
  8  9  1  0  0  0
  8 22  1  0  0  0
  9 10  2  0  0  0
  9 11  1  0  0  0
 11 12  1  0  0  0
 11 23  1  0  0  0
 11 24  1  0  0  0
 12 17  1  0  0  0
 12 13  2  0  0  0
 13 14  1  0  0  0
 13 25  1  0  0  0
 14 15  2  0  0  0
 14 26  1  0  0  0
 15 16  1  0  0  0
 15 27  1  0  0  0
 16 17  2  0  0  0
 16 28  1  0  0  0
 17 29  1  0  0  0
M  END
> <s_m_entry_id>
34767

> <s_m_entry_name>
ligand_docking-pose.264

> <s_m_Source_Path>
/home/csk/Desktop/cluster/DUD-E-result/cdk2

> <s_m_Source_File>
ligand_docking-pose.sdf

> <i_m_Source_File_Index>
264

> <i_lp_mmshare_version>
53161

> <r_lp_tautomer_probability>
0.999000488399163

> <s_lp_Force_Field>
OPLS_2005

> <r_lp_Energy>
7.718262

> <b_lp_Chiralities_Consistent>
1

> <s_lp_Variant>
311348-1

> <s_i_glide_gridfile>
glide-grid_1h00

> <i_i_glide_lignum>
1751

> <i_i_glide_rotatable_bonds>
5

> <r_i_docking_score>
-7.46556924991396

> <r_i_glide_ligand_efficiency>
-0.43915113234788

> <r_i_glide_ligand_efficiency_sa>
-1.12918122105642

> <r_i_glide_ligand_efficiency_ln>
-1.94760076724925

> <r_i_glide_gscore>
-7.46556924991396

> <r_i_glide_lipo>
-2.46456357131345

> <r_i_glide_hbond>
-0.32

> <r_i_glide_metal>
0

> <r_i_glide_rewards>
-3.12160533066561

> <r_i_glide_evdw>
-31.4748973846436

> <r_i_glide_ecoul>
-4.99118089675903

> <r_i_glide_erotb>
0.763021655811133

> <r_i_glide_esite>
0

> <r_i_glide_emodel>
-53.219314482432

> <r_i_glide_energy>
-36.4660782814026

> <r_i_glide_einternal>
1.45725214481354

> <i_i_glide_confnum>
4

> <i_i_glide_posenum>
129

> <r_i_glide_eff_state_penalty>
0

> <i_f3d_flags>
0

> <s_user_duplicate_titles>
311348

> <s_m_subgroup_title>
dock_pv

> <s_m_subgroupid>
dock_pv1

> <b_m_subgroup_collapsed>
0

$$$$
300759
                    3D
 Schrodinger Suite 2021-1.
 59 63  0  0  1  0            999 V2000
   10.0288   26.2615    3.3883 C   0  0  0  0  0  0
    8.9156   25.7592    2.7204 C   0  0  0  0  0  0
    7.8369   25.2732    3.4525 C   0  0  0  0  0  0
    7.8887   25.2963    4.8493 C   0  0  0  0  0  0
    9.0073   25.8028    5.5156 C   0  0  0  0  0  0
   10.0824   26.2885    4.7801 C   0  0  0  0  0  0
    6.5026   24.6949    5.7959 S   0  0  0  0  0  0
    7.0433   24.0181    6.9791 O   0  0  0  0  0  0
    5.5952   23.9924    4.8828 O   0  0  0  0  0  0
    5.6544   26.1691    6.3357 C   0  0  0  0  0  0
    5.4894   26.4432    7.6952 C   0  0  0  0  0  0
    4.7426   27.5505    8.0850 C   0  0  0  0  0  0
    4.1518   28.3676    7.1190 C   0  0  0  0  0  0
    4.4005   28.1426    5.7661 C   0  0  0  0  0  0
    5.1398   27.0341    5.3705 C   0  0  0  0  0  0
    3.2626   29.4003    7.4292 N   0  0  0  0  0  0
    2.1642   29.4527    8.3021 C   0  0  0  0  0  0
    1.8914   28.4984    9.2831 C   0  0  0  0  0  0
    0.7424   28.6234   10.0531 C   0  0  0  0  0  0
   -0.1683   29.6200    9.8779 N   0  0  0  0  0  0
    0.1163   30.5583    8.9738 C   0  0  0  0  0  0
    1.2695   30.4895    8.1759 N   0  0  0  0  0  0
    1.3993   31.5853    7.3759 N   0  0  0  0  0  0
    0.4432   32.3972    7.7759 C   0  0  0  0  0  0
   -0.4615   31.8030    8.6445 C   0  0  0  0  0  0
   -2.0464   32.4931    9.4456 Br  0  0  0  0  0  0
    0.5629   27.6878   11.0789 N   0  0  0  0  0  0
   -0.6303   27.6662   11.9208 C   0  0  2  0  0  0
   -0.2916   27.0516   13.2863 C   0  0  0  0  0  0
   -1.5420   26.9096   14.1813 C   0  0  0  0  0  0
   -2.6750   26.1229   13.4963 C   0  0  1  0  0  0
   -2.9613   26.7740   12.1193 C   0  0  0  0  0  0
   -1.7088   26.8308   11.2250 C   0  0  0  0  0  0
   -2.3418   24.7134   13.3763 N   0  0  0  0  0  0
   10.8574   26.6370    2.8130 H   0  0  0  0  0  0
    8.8958   25.7475    1.6407 H   0  0  0  0  0  0
    6.9727   24.8837    2.9349 H   0  0  0  0  0  0
    9.0420   25.8243    6.5948 H   0  0  0  0  0  0
   10.9522   26.6846    5.2824 H   0  0  0  0  0  0
    5.9067   25.7930    8.4512 H   0  0  0  0  0  0
    4.6165   27.7464    9.1398 H   0  0  0  0  0  0
    3.9726   28.7884    5.0116 H   0  0  0  0  0  0
    5.2871   26.8315    4.3193 H   0  0  0  0  0  0
    3.3024   30.1855    6.7891 H   0  0  0  0  0  0
    2.5444   27.6584    9.4519 H   0  0  0  0  0  0
    0.3497   33.3959    7.3733 H   0  0  0  0  0  0
    1.1701   26.8845   11.0958 H   0  0  0  0  0  0
   -1.0026   28.6855   12.0561 H   0  0  0  0  0  0
    0.4513   27.6769   13.7769 H   0  0  0  0  0  0
    0.1734   26.0730   13.1593 H   0  0  0  0  0  0
   -1.2645   26.4256   15.1187 H   0  0  0  0  0  0
   -1.9338   27.8863   14.4704 H   0  0  0  0  0  0
   -3.5784   26.2532   14.0930 H   0  0  0  0  0  0
   -3.7600   26.2523   11.5976 H   0  0  0  0  0  0
   -3.3484   27.7850   12.2569 H   0  0  0  0  0  0
   -1.3525   25.8225   11.0108 H   0  0  0  0  0  0
   -1.9417   27.2798   10.2621 H   0  0  0  0  0  0
   -2.3426   24.2731   14.2841 H   0  0  0  0  0  0
   -3.0585   24.2623   12.8209 H   0  0  0  0  0  0
  1  6  1  0  0  0
  1  2  2  0  0  0
  1 35  1  0  0  0
  2  3  1  0  0  0
  2 36  1  0  0  0
  3  4  2  0  0  0
  3 37  1  0  0  0
  4  5  1  0  0  0
  4  7  1  0  0  0
  5  6  2  0  0  0
  5 38  1  0  0  0
  6 39  1  0  0  0
  7  8  2  0  0  0
  7  9  2  0  0  0
  7 10  1  0  0  0
 10 15  1  0  0  0
 10 11  2  0  0  0
 11 12  1  0  0  0
 11 40  1  0  0  0
 12 13  2  0  0  0
 12 41  1  0  0  0
 13 14  1  0  0  0
 13 16  1  0  0  0
 14 15  2  0  0  0
 14 42  1  0  0  0
 15 43  1  0  0  0
 16 17  1  0  0  0
 16 44  1  0  0  0
 17 22  1  0  0  0
 17 18  2  0  0  0
 18 19  1  0  0  0
 18 45  1  0  0  0
 19 20  2  0  0  0
 19 27  1  0  0  0
 20 21  1  0  0  0
 21 25  2  0  0  0
 21 22  1  0  0  0
 22 23  1  0  0  0
 23 24  2  0  0  0
 24 25  1  0  0  0
 24 46  1  0  0  0
 25 26  1  0  0  0
 27 28  1  0  0  0
 27 47  1  0  0  0
 28 33  1  0  0  0
 28 29  1  0  0  0
 28 48  1  0  0  0
 29 30  1  0  0  0
 29 49  1  0  0  0
 29 50  1  0  0  0
 30 31  1  0  0  0
 30 51  1  0  0  0
 30 52  1  0  0  0
 31 32  1  0  0  0
 31 34  1  0  0  0
 31 53  1  0  0  0
 32 33  1  0  0  0
 32 54  1  0  0  0
 32 55  1  0  0  0
 33 56  1  0  0  0
 33 57  1  0  0  0
 34 58  1  0  0  0
 34 59  1  0  0  0
M  END
> <s_m_entry_id>
34768

> <s_m_entry_name>
ligand_docking-pose.265

> <s_m_Source_Path>
/home/csk/Desktop/cluster/DUD-E-result/cdk2

> <s_m_Source_File>
ligand_docking-pose.sdf

> <i_m_Source_File_Index>
265

> <i_lp_mmshare_version>
53161

> <r_lp_tautomer_probability>
1

> <s_lp_Force_Field>
OPLS_2005

> <r_lp_Energy>
33.172905

> <b_lp_Chiralities_Consistent>
1

> <s_lp_Variant>
300759-1

> <s_i_glide_gridfile>
glide-grid_1h00

> <i_i_glide_lignum>
557

> <i_i_glide_rotatable_bonds>
6

> <r_i_docking_score>
-7.4645594674181

> <r_i_glide_ligand_efficiency>
-0.219545866688768

> <r_i_glide_ligand_efficiency_sa>
-0.711243379810591

> <r_i_glide_ligand_efficiency_ln>
-1.64913056015376

> <r_i_glide_gscore>
-7.4645594674181

> <r_i_glide_lipo>
-2.95414142570661

> <r_i_glide_hbond>
-0.522857068878338

> <r_i_glide_metal>
0

> <r_i_glide_rewards>
-1.14325399843167

> <r_i_glide_evdw>
-44.7713470458984

> <r_i_glide_ecoul>
-6.82181787490845

> <r_i_glide_erotb>
0.423228607687317

> <r_i_glide_esite>
-0.0056955485576111

> <r_i_glide_emodel>
-70.8073720674784

> <r_i_glide_energy>
-51.5931649208069

> <r_i_glide_einternal>
7.162513256073

> <i_i_glide_confnum>
32

> <i_i_glide_posenum>
284

> <r_i_glide_eff_state_penalty>
0

> <i_f3d_flags>
0

> <s_user_duplicate_titles>
300759

> <s_m_subgroup_title>
dock_pv

> <s_m_subgroupid>
dock_pv1

> <b_m_subgroup_collapsed>
0

$$$$
319947
                    3D
 Schrodinger Suite 2021-1.
 56 60  0  0  1  0            999 V2000
    3.8154   27.8529    8.2858 C   0  0  0  0  0  0
    4.5277   26.6804    8.0396 C   0  0  0  0  0  0
    5.0438   26.4203    6.7645 C   0  0  0  0  0  0
    4.8802   27.3608    5.7495 C   0  0  0  0  0  0
    4.1748   28.5313    5.9909 C   0  0  0  0  0  0
    3.6184   28.7646    7.2466 C   0  0  0  0  0  0
    2.8569   29.9285    7.3761 N   0  0  0  0  0  0
    1.6663   30.2235    8.0407 C   0  0  0  0  0  0
    1.0809   31.3740    7.6305 N   0  0  0  0  0  0
   -0.1145   31.6794    8.1850 C   0  0  0  0  0  0
   -0.7410   30.8316    9.0980 C   0  0  0  0  0  0
   -2.0427   31.1084    9.6912 C   0  0  0  0  0  0
   -2.5716   30.2290   10.5592 C   0  0  0  0  0  0
   -1.9376   28.9872   10.9737 C   0  0  0  0  0  0
   -2.5220   28.2520   11.7669 O   0  0  0  0  0  0
   -0.7190   28.7258   10.3782 N   0  0  0  0  0  0
   -0.0842   29.6403    9.4596 C   0  0  0  0  0  0
    1.1526   29.3583    8.9589 N   0  0  0  0  0  0
   -0.0645   27.3897   10.6094 C   0  0  0  0  0  0
    0.0582   26.8997   12.0677 C   0  0  0  0  0  0
   -0.8981   25.7065   12.2490 C   0  0  0  0  0  0
   -1.5745   25.4648   10.8934 C   0  0  0  0  0  0
   -0.7420   26.2230    9.8618 C   0  0  0  0  0  0
    5.7569   25.2708    6.4793 N   0  0  0  0  0  0
    5.0982   23.9756    6.7143 C   0  0  0  0  0  0
    5.8144   22.8203    5.9843 C   0  0  0  0  0  0
    7.3014   22.7385    6.3570 C   0  0  0  0  0  0
    7.9557   24.1192    6.2069 C   0  0  0  0  0  0
    7.1554   25.2220    6.9326 C   0  0  0  0  0  0
    3.4120   28.0364    9.2704 H   0  0  0  0  0  0
    4.6647   25.9674    8.8378 H   0  0  0  0  0  0
    5.3025   27.1836    4.7708 H   0  0  0  0  0  0
    4.0497   29.2465    5.1909 H   0  0  0  0  0  0
    3.1436   30.6557    6.7344 H   0  0  0  0  0  0
   -0.5669   32.6106    7.8753 H   0  0  0  0  0  0
   -2.5873   32.0086    9.4381 H   0  0  0  0  0  0
   -3.5428   30.4420   10.9759 H   0  0  0  0  0  0
    0.9565   27.4509   10.2378 H   0  0  0  0  0  0
   -0.0689   27.6883   12.8108 H   0  0  0  0  0  0
    1.0710   26.5161   12.1946 H   0  0  0  0  0  0
   -1.6415   25.9126   13.0203 H   0  0  0  0  0  0
   -0.3469   24.8199   12.5659 H   0  0  0  0  0  0
   -2.5945   25.8511   10.9065 H   0  0  0  0  0  0
   -1.6471   24.4029   10.6567 H   0  0  0  0  0  0
    0.0318   25.5355    9.5149 H   0  0  0  0  0  0
   -1.2972   26.5334    8.9762 H   0  0  0  0  0  0
    5.0310   23.7779    7.7827 H   0  0  0  0  0  0
    4.0734   24.0329    6.3419 H   0  0  0  0  0  0
    5.3266   21.8791    6.2387 H   0  0  0  0  0  0
    5.6798   22.9291    4.9070 H   0  0  0  0  0  0
    7.8113   22.0049    5.7298 H   0  0  0  0  0  0
    7.4034   22.3932    7.3864 H   0  0  0  0  0  0
    8.0789   24.3853    5.1564 H   0  0  0  0  0  0
    8.9654   24.0843    6.6141 H   0  0  0  0  0  0
    7.6273   26.1848    6.7204 H   0  0  0  0  0  0
    7.1852   25.0848    8.0165 H   0  0  0  0  0  0
  1  6  1  0  0  0
  1  2  2  0  0  0
  1 30  1  0  0  0
  2  3  1  0  0  0
  2 31  1  0  0  0
  3  4  2  0  0  0
  3 24  1  0  0  0
  4  5  1  0  0  0
  4 32  1  0  0  0
  5  6  2  0  0  0
  5 33  1  0  0  0
  6  7  1  0  0  0
  7  8  1  0  0  0
  7 34  1  0  0  0
  8 18  1  0  0  0
  8  9  2  0  0  0
  9 10  1  0  0  0
 10 11  2  0  0  0
 10 35  1  0  0  0
 11 17  1  0  0  0
 11 12  1  0  0  0
 12 13  2  0  0  0
 12 36  1  0  0  0
 13 14  1  0  0  0
 13 37  1  0  0  0
 14 15  2  0  0  0
 14 16  1  0  0  0
 16 17  1  0  0  0
 16 19  1  0  0  0
 17 18  2  0  0  0
 19 23  1  0  0  0
 19 20  1  0  0  0
 19 38  1  0  0  0
 20 21  1  0  0  0
 20 39  1  0  0  0
 20 40  1  0  0  0
 21 22  1  0  0  0
 21 41  1  0  0  0
 21 42  1  0  0  0
 22 23  1  0  0  0
 22 43  1  0  0  0
 22 44  1  0  0  0
 23 45  1  0  0  0
 23 46  1  0  0  0
 24 29  1  0  0  0
 24 25  1  0  0  0
 25 26  1  0  0  0
 25 47  1  0  0  0
 25 48  1  0  0  0
 26 27  1  0  0  0
 26 49  1  0  0  0
 26 50  1  0  0  0
 27 28  1  0  0  0
 27 51  1  0  0  0
 27 52  1  0  0  0
 28 29  1  0  0  0
 28 53  1  0  0  0
 28 54  1  0  0  0
 29 55  1  0  0  0
 29 56  1  0  0  0
M  END
> <s_m_entry_id>
34770

> <s_m_entry_name>
ligand_docking-pose.267

> <s_m_Source_Path>
/home/csk/Desktop/cluster/DUD-E-result/cdk2

> <s_m_Source_File>
ligand_docking-pose.sdf

> <i_m_Source_File_Index>
267

> <i_lp_mmshare_version>
53161

> <r_lp_tautomer_probability>
1

> <s_lp_Force_Field>
OPLS_2005

> <r_lp_Energy>
52.667917

> <b_lp_Chiralities_Consistent>
1

> <s_lp_Variant>
319947-1

> <s_i_glide_gridfile>
glide-grid_1h00

> <i_i_glide_lignum>
432

> <i_i_glide_rotatable_bonds>
4

> <r_i_docking_score>
-7.45777375027772

> <r_i_glide_ligand_efficiency>
-0.257164612078542

> <r_i_glide_ligand_efficiency_sa>
-0.790091163773055

> <r_i_glide_ligand_efficiency_ln>
-1.70764107598839

> <r_i_glide_gscore>
-7.45777375027772

> <r_i_glide_lipo>
-2.57249675273472

> <r_i_glide_hbond>
-0.268617511643732

> <r_i_glide_metal>
0

> <r_i_glide_rewards>
-2.58099608328326

> <r_i_glide_evdw>
-41.5325813293457

> <r_i_glide_ecoul>
-3.15368890762329

> <r_i_glide_erotb>
0.514018999994776

> <r_i_glide_esite>
0

> <r_i_glide_emodel>
-62.8452051069353

> <r_i_glide_energy>
-44.686270236969

> <r_i_glide_einternal>
3.18879795074463

> <i_i_glide_confnum>
163

> <i_i_glide_posenum>
368

> <r_i_glide_eff_state_penalty>
0

> <i_f3d_flags>
0

> <s_user_duplicate_titles>
319947

> <s_m_subgroup_title>
dock_pv

> <s_m_subgroupid>
dock_pv1

> <b_m_subgroup_collapsed>
0

$$$$
301136
                    3D
 Schrodinger Suite 2021-1.
 32 35  0  0  1  0            999 V2000
    0.0869   25.2398   11.7031 C   0  0  0  0  0  0
    0.0933   26.4018   10.9318 C   0  0  0  0  0  0
   -0.3336   27.6179   11.4801 C   0  0  0  0  0  0
   -0.7515   27.6584   12.8193 C   0  0  0  0  0  0
   -0.7562   26.4939   13.5886 C   0  0  0  0  0  0
   -0.3420   25.2859   13.0294 C   0  0  0  0  0  0
   -1.1635   26.5321   14.8780 F   0  0  0  0  0  0
   -0.3369   28.7895   10.6891 N   0  0  0  0  0  0
    0.5258   29.2271    9.6953 C   0  0  0  0  0  0
   -0.0946   30.3143    9.0555 C   0  0  0  0  0  0
    0.5348   30.9140    7.9444 C   0  0  0  0  0  0
    1.7897   30.4840    7.4905 C   0  0  0  0  0  0
    2.4200   29.4513    8.1907 C   0  0  0  0  0  0
    1.8105   28.7996    9.2805 C   0  0  0  0  0  0
    2.7513   27.8283    9.7318 C   0  0  0  0  0  0
    3.8202   27.8531    8.9755 N   0  0  0  0  0  0
    3.6417   28.8228    8.0535 N   0  0  0  0  0  0
   -1.2936   30.5528    9.8145 C   0  0  0  0  0  0
   -1.4071   29.6160   10.7376 N   0  0  0  0  0  0
   -2.2744   31.5893    9.6016 C   0  0  0  0  0  0
   -2.2837   32.2518    8.5760 O   0  0  0  0  0  0
   -3.1422   31.8505   10.5759 N   0  0  0  0  0  0
    4.3613   29.0188    7.3718 H   0  0  0  0  0  0
    0.4093   24.3047   11.2697 H   0  0  0  0  0  0
    0.4079   26.3450    9.8995 H   0  0  0  0  0  0
   -1.0834   28.5844   13.2677 H   0  0  0  0  0  0
   -0.3497   24.3874   13.6274 H   0  0  0  0  0  0
    0.0608   31.7463    7.4452 H   0  0  0  0  0  0
    2.2679   30.9655    6.6498 H   0  0  0  0  0  0
    2.6850   27.1489   10.5692 H   0  0  0  0  0  0
   -3.1837   31.3254   11.4492 H   0  0  0  0  0  0
   -3.7973   32.6046   10.4349 H   0  0  0  0  0  0
  1  6  1  0  0  0
  1  2  2  0  0  0
  1 24  1  0  0  0
  2  3  1  0  0  0
  2 25  1  0  0  0
  3  4  2  0  0  0
  3  8  1  0  0  0
  4  5  1  0  0  0
  4 26  1  0  0  0
  5  6  2  0  0  0
  5  7  1  0  0  0
  6 27  1  0  0  0
  8 19  1  0  0  0
  8  9  1  0  0  0
  9 14  2  0  0  0
  9 10  1  0  0  0
 10 11  2  0  0  0
 10 18  1  0  0  0
 11 12  1  0  0  0
 11 28  1  0  0  0
 12 13  2  0  0  0
 12 29  1  0  0  0
 13 17  1  0  0  0
 13 14  1  0  0  0
 14 15  1  0  0  0
 15 16  2  0  0  0
 15 30  1  0  0  0
 16 17  1  0  0  0
 17 23  1  0  0  0
 18 19  2  0  0  0
 18 20  1  0  0  0
 20 21  2  0  0  0
 20 22  1  0  0  0
 22 31  1  0  0  0
 22 32  1  0  0  0
M  END
> <s_m_entry_id>
34772

> <s_m_entry_name>
ligand_docking-pose.269

> <s_m_Source_Path>
/home/csk/Desktop/cluster/DUD-E-result/cdk2

> <s_m_Source_File>
ligand_docking-pose.sdf

> <i_m_Source_File_Index>
269

> <i_lp_mmshare_version>
53161

> <r_lp_tautomer_probability>
1

> <s_lp_Force_Field>
OPLS_2005

> <r_lp_Energy>
58.819013

> <b_lp_Chiralities_Consistent>
1

> <s_lp_Variant>
301136-1

> <s_i_glide_gridfile>
glide-grid_1h00

> <i_i_glide_lignum>
383

> <i_i_glide_rotatable_bonds>
2

> <r_i_docking_score>
-7.44938551917155

> <r_i_glide_ligand_efficiency>
-0.338608432689616

> <r_i_glide_ligand_efficiency_sa>
-0.948794145110294

> <r_i_glide_ligand_efficiency_ln>
-1.82090154382446

> <r_i_glide_gscore>
-7.44938551917155

> <r_i_glide_lipo>
-2.51066748403723

> <r_i_glide_hbond>
-0.156660385477345

> <r_i_glide_metal>
0

> <r_i_glide_rewards>
-2.38639966378599

> <r_i_glide_evdw>
-36.134838104248

> <r_i_glide_ecoul>
-4.84227848052979

> <r_i_glide_erotb>
0.209918065462502

> <r_i_glide_esite>
-0.0724923740416173

> <r_i_glide_emodel>
-58.1797842152641

> <r_i_glide_energy>
-40.9771165847778

> <r_i_glide_einternal>
1.02185690402985

> <i_i_glide_confnum>
1

> <i_i_glide_posenum>
387

> <r_i_glide_eff_state_penalty>
0

> <i_f3d_flags>
0

> <s_user_duplicate_titles>
301136

> <s_m_subgroup_title>
dock_pv

> <s_m_subgroupid>
dock_pv1

> <b_m_subgroup_collapsed>
0

$$$$
548739
                    3D
 Schrodinger Suite 2021-1.
 48 51  0  0  1  0            999 V2000
    3.9126   27.8584    4.4838 C   0  0  0  0  0  0
    3.3773   28.6506    5.5526 O   0  0  0  0  0  0
    3.9672   28.4110    6.7696 C   0  0  0  0  0  0
    5.2467   27.8544    6.9760 C   0  0  0  0  0  0
    5.3859   27.5809    8.3114 C   0  0  0  0  0  0
    4.2603   28.0256    8.9372 N   0  0  0  0  0  0
    3.3627   28.5364    8.0349 C   0  0  0  0  0  0
    2.0525   28.8838    8.5762 C   0  0  0  0  0  0
    1.1354   29.8672    8.3984 C   0  0  0  0  0  0
   -0.1717   30.0543    9.0669 C   0  0  0  0  0  0
   -0.6309   31.2910    8.6652 C   0  0  0  0  0  0
   -1.8349   31.8253    9.1183 C   0  0  0  0  0  0
   -2.6210   31.0648    9.9822 C   0  0  0  0  0  0
   -2.1940   29.7985   10.3878 C   0  0  0  0  0  0
   -0.9555   29.2938    9.9581 C   0  0  0  0  0  0
   -0.5459   27.9818   10.4370 C   0  0  0  0  0  0
   -0.2031   26.9046   10.8972 C   0  0  0  0  0  0
    0.2806   25.6396   11.4768 C   0  0  0  0  0  0
   -0.7500   24.5067   11.2674 C   0  0  0  0  0  0
   -0.1808   23.1352   11.6954 C   0  0  0  0  0  0
    1.0578   22.8356   10.9760 N   0  0  2  0  0  0
    2.0899   23.8408   11.2130 C   0  0  0  0  0  0
    1.6200   25.2504   10.8108 C   0  0  0  0  0  0
    0.4579   25.8545   12.8614 O   0  0  0  0  0  0
   -3.0036   29.0520   11.1794 F   0  0  0  0  0  0
    0.2643   31.8223    7.7765 N   0  0  0  0  0  0
    1.2563   30.9796    7.4685 C   0  0  0  0  0  0
    2.0580   31.1926    6.5750 O   0  0  0  0  0  0
    4.0899   27.9286    9.9287 H   0  0  0  0  0  0
    3.2591   27.8520    3.6123 H   0  0  0  0  0  0
    4.8809   28.2486    4.1674 H   0  0  0  0  0  0
    4.0364   26.8108    4.7668 H   0  0  0  0  0  0
    5.9732   27.6171    6.2129 H   0  0  0  0  0  0
    6.1733   27.1101    8.8818 H   0  0  0  0  0  0
    1.7829   28.1497    9.3154 H   0  0  0  0  0  0
   -2.1762   32.7989    8.7992 H   0  0  0  0  0  0
   -3.5662   31.4493   10.3385 H   0  0  0  0  0  0
   -1.0865   24.4527   10.2305 H   0  0  0  0  0  0
   -1.6543   24.7115   11.8439 H   0  0  0  0  0  0
   -0.9039   22.3421   11.5055 H   0  0  0  0  0  0
    0.0240   23.1246   12.7679 H   0  0  0  0  0  0
    0.8584   22.8443    9.9846 H   0  0  0  0  0  0
    2.9463   23.5726   10.5979 H   0  0  0  0  0  0
    2.3997   23.8135   12.2593 H   0  0  0  0  0  0
    2.3978   25.9684   11.0804 H   0  0  0  0  0  0
    1.5671   25.2968    9.7203 H   0  0  0  0  0  0
    1.1483   26.5196   12.9760 H   0  0  0  0  0  0
    0.1417   32.7081    7.3085 H   0  0  0  0  0  0
  1  2  1  0  0  0
  1 30  1  0  0  0
  1 31  1  0  0  0
  1 32  1  0  0  0
  2  3  1  0  0  0
  3  7  2  0  0  0
  3  4  1  0  0  0
  4  5  2  0  0  0
  4 33  1  0  0  0
  5  6  1  0  0  0
  5 34  1  0  0  0
  6 29  1  0  0  0
  6  7  1  0  0  0
  7  8  1  0  0  0
  8  9  2  0  0  0
  8 35  1  0  0  0
  9 27  1  0  0  0
  9 10  1  0  0  0
 10 15  2  0  0  0
 10 11  1  0  0  0
 11 12  2  0  0  0
 11 26  1  0  0  0
 12 13  1  0  0  0
 12 36  1  0  0  0
 13 14  2  0  0  0
 13 37  1  0  0  0
 14 15  1  0  0  0
 14 25  1  0  0  0
 15 16  1  0  0  0
 16 17  3  0  0  0
 17 18  1  0  0  0
 18 23  1  0  0  0
 18 19  1  0  0  0
 18 24  1  0  0  0
 19 20  1  0  0  0
 19 38  1  0  0  0
 19 39  1  0  0  0
 20 21  1  0  0  0
 20 40  1  0  0  0
 20 41  1  0  0  0
 21 22  1  0  0  0
 21 42  1  0  0  0
 22 23  1  0  0  0
 22 43  1  0  0  0
 22 44  1  0  0  0
 23 45  1  0  0  0
 23 46  1  0  0  0
 24 47  1  0  0  0
 26 27  1  0  0  0
 26 48  1  0  0  0
 27 28  2  0  0  0
M  END
> <s_m_entry_id>
34773

> <s_m_entry_name>
ligand_docking-pose.270

> <s_m_Source_Path>
/home/csk/Desktop/cluster/DUD-E-result/cdk2

> <s_m_Source_File>
ligand_docking-pose.sdf

> <i_m_Source_File_Index>
270

> <i_lp_mmshare_version>
53161

> <r_lp_tautomer_probability>
1

> <s_lp_Force_Field>
OPLS_2005

> <r_lp_Energy>
43.071875

> <b_lp_Chiralities_Consistent>
1

> <s_lp_Variant>
548739-1

> <s_i_glide_gridfile>
glide-grid_1h00

> <i_i_glide_lignum>
1719

> <i_i_glide_rotatable_bonds>
5

> <r_i_docking_score>
-7.44501578494376

> <r_i_glide_ligand_efficiency>
-0.265893420890848

> <r_i_glide_ligand_efficiency_sa>
-0.807409028674627

> <r_i_glide_ligand_efficiency_ln>
-1.71852823832702

> <r_i_glide_gscore>
-7.44501578494376

> <r_i_glide_lipo>
-3.40224063392722

> <r_i_glide_hbond>
-0.381699176232272

> <r_i_glide_metal>
0

> <r_i_glide_rewards>
-1.55627445379362

> <r_i_glide_evdw>
-36.3415374755859

> <r_i_glide_ecoul>
-4.18506765365601

> <r_i_glide_erotb>
0.400313420575935

> <r_i_glide_esite>
-0.0602779197388837

> <r_i_glide_emodel>
-49.2977842245461

> <r_i_glide_energy>
-40.5266051292419

> <r_i_glide_einternal>
4.16230583190918

> <i_i_glide_confnum>
8

> <i_i_glide_posenum>
227

> <r_i_glide_eff_state_penalty>
0

> <i_f3d_flags>
0

> <s_user_duplicate_titles>
548739

> <s_m_subgroup_title>
dock_pv

> <s_m_subgroupid>
dock_pv1

> <b_m_subgroup_collapsed>
0

$$$$
96567
                    3D
 Schrodinger Suite 2021-1.
 36 41  0  0  1  0            999 V2000
   -0.4676   31.6145    8.5756 C   0  0  0  0  0  0
   -1.6428   32.0898    9.1484 C   0  0  0  0  0  0
   -2.3468   31.3520   10.0963 C   0  0  0  0  0  0
   -1.8082   30.1133   10.4677 C   0  0  0  0  0  0
   -0.5965   29.6091    9.9040 C   0  0  0  0  0  0
    0.0583   30.3731    8.9265 C   0  0  0  0  0  0
   -0.3159   28.3693   10.5273 C   0  0  0  0  0  0
    0.7293   27.4223   10.4986 C   0  0  0  0  0  0
    0.6555   26.2429   11.2298 C   0  0  0  0  0  0
   -0.4842   25.9442   12.0254 C   0  0  0  0  0  0
   -1.0026   24.8479   12.7797 C   0  0  0  0  0  0
   -2.0724   25.3701   13.5850 C   0  0  0  0  0  0
   -2.7096   24.6130   14.5754 C   0  0  0  0  0  0
   -2.3141   23.2847   14.7100 C   0  0  0  0  0  0
   -1.3670   22.7168   13.8663 C   0  0  0  0  0  0
   -0.7245   23.4645   12.8812 C   0  0  0  0  0  0
    0.3246   22.5076   11.6126 Br  0  0  0  0  0  0
   -2.3408   26.6517   13.1523 N   0  0  0  0  0  0
   -1.4434   26.9685   12.1636 C   0  0  0  0  0  0
   -1.3837   28.1292   11.4059 C   0  0  0  0  0  0
   -2.2631   29.1832   11.3764 N   0  0  0  0  0  0
    1.9785   25.5689   11.0713 C   0  0  0  0  0  0
    2.4318   24.5823   11.6486 O   0  0  0  0  0  0
    2.6634   26.3164   10.1902 N   0  0  0  0  0  0
    2.0500   27.4456    9.8096 C   0  0  0  0  0  0
    2.5312   28.2981    9.0680 O   0  0  0  0  0  0
   -3.0650   27.2663   13.5054 H   0  0  0  0  0  0
   -3.0852   29.2963   11.9607 H   0  0  0  0  0  0
    0.0456   32.2207    7.8415 H   0  0  0  0  0  0
   -2.0207   33.0549    8.8434 H   0  0  0  0  0  0
   -3.2638   31.7286   10.5310 H   0  0  0  0  0  0
    0.9722   30.0355    8.4651 H   0  0  0  0  0  0
   -3.5038   25.0235   15.1838 H   0  0  0  0  0  0
   -2.8006   22.6560   15.4416 H   0  0  0  0  0  0
   -1.1598   21.6587   13.9451 H   0  0  0  0  0  0
    3.6245   26.1171    9.9527 H   0  0  0  0  0  0
  1  6  1  0  0  0
  1  2  2  0  0  0
  1 29  1  0  0  0
  2  3  1  0  0  0
  2 30  1  0  0  0
  3  4  2  0  0  0
  3 31  1  0  0  0
  4 21  1  0  0  0
  4  5  1  0  0  0
  5  6  2  0  0  0
  5  7  1  0  0  0
  6 32  1  0  0  0
  7 20  2  0  0  0
  7  8  1  0  0  0
  8 25  1  0  0  0
  8  9  2  0  0  0
  9 10  1  0  0  0
  9 22  1  0  0  0
 10 19  2  0  0  0
 10 11  1  0  0  0
 11 16  2  0  0  0
 11 12  1  0  0  0
 12 13  2  0  0  0
 12 18  1  0  0  0
 13 14  1  0  0  0
 13 33  1  0  0  0
 14 15  2  0  0  0
 14 34  1  0  0  0
 15 16  1  0  0  0
 15 35  1  0  0  0
 16 17  1  0  0  0
 18 27  1  0  0  0
 18 19  1  0  0  0
 19 20  1  0  0  0
 20 21  1  0  0  0
 21 28  1  0  0  0
 22 23  2  0  0  0
 22 24  1  0  0  0
 24 25  1  0  0  0
 24 36  1  0  0  0
 25 26  2  0  0  0
M  END
> <s_m_entry_id>
34774

> <s_m_entry_name>
ligand_docking-pose.271

> <s_m_Source_Path>
/home/csk/Desktop/cluster/DUD-E-result/cdk2

> <s_m_Source_File>
ligand_docking-pose.sdf

> <i_m_Source_File_Index>
271

> <i_lp_mmshare_version>
53161

> <r_lp_tautomer_probability>
1

> <s_lp_Force_Field>
OPLS_2005

> <r_lp_Energy>
86.259758

> <b_lp_Chiralities_Consistent>
1

> <s_lp_Variant>
96567-1

> <s_i_glide_gridfile>
glide-grid_1h00

> <i_i_glide_lignum>
107

> <i_i_glide_rotatable_bonds>
0

> <r_i_docking_score>
-7.44246712824709

> <r_i_glide_ligand_efficiency>
-0.286248735701811

> <r_i_glide_ligand_efficiency_sa>
-0.848010753182229

> <r_i_glide_ligand_efficiency_ln>
-1.74783898434234

> <r_i_glide_gscore>
-7.44246712824709

> <r_i_glide_lipo>
-2.19449275534013

> <r_i_glide_hbond>
-0.281900398125581

> <r_i_glide_metal>
0

> <r_i_glide_rewards>
-1.93013052322786

> <r_i_glide_evdw>
-39.174503326416

> <r_i_glide_ecoul>
-6.24788379669189

> <r_i_glide_erotb>
0

> <r_i_glide_esite>
-0.140035715728928

> <r_i_glide_emodel>
-67.1530613144377

> <r_i_glide_energy>
-45.4223871231079

> <r_i_glide_einternal>
0

> <i_i_glide_confnum>
1

> <i_i_glide_posenum>
192

> <r_i_glide_eff_state_penalty>
0

> <i_f3d_flags>
0

> <s_user_duplicate_titles>
96567

> <s_m_subgroup_title>
dock_pv

> <s_m_subgroupid>
dock_pv1

> <b_m_subgroup_collapsed>
0

$$$$
320962
                    3D
 Schrodinger Suite 2021-1.
 50 53  0  0  1  0            999 V2000
    3.9498   23.1451    4.3758 C   0  0  0  0  0  0
    4.6781   22.4904    5.5753 C   0  0  2  0  0  0
    4.4093   20.9988    5.6308 C   0  0  0  0  0  0
    4.3680   20.6867    7.0976 C   0  0  0  0  0  0
    4.0747   22.0074    7.7973 C   0  0  0  0  0  0
    3.7252   22.0628    8.9759 O   0  0  0  0  0  0
    4.3026   23.0252    6.9092 N   0  0  0  0  0  0
    4.3798   24.4133    7.2608 C   0  0  0  0  0  0
    3.7024   24.9659    8.3664 C   0  0  0  0  0  0
    3.6580   26.3446    8.5712 C   0  0  0  0  0  0
    4.2250   27.2060    7.6202 C   0  0  0  0  0  0
    5.0126   26.6609    6.6029 C   0  0  0  0  0  0
    5.1045   25.2853    6.4387 C   0  0  0  0  0  0
    4.0368   28.7335    7.6155 C   0  0  2  0  0  0
    5.1743   29.4090    8.3505 C   0  0  0  0  0  0
    2.6910   29.3124    8.0901 C   0  0  0  0  0  0
    2.1017   28.8491    9.0680 O   0  0  0  0  0  0
    2.2613   30.3724    7.3758 N   0  0  0  0  0  0
    1.1725   31.1479    7.7004 C   0  0  0  0  0  0
    0.0046   30.7945    8.3929 C   0  0  0  0  0  0
   -0.7109   31.9637    8.5761 C   0  0  0  0  0  0
    0.0600   32.9110    7.9499 N   0  0  0  0  0  0
    1.1645   32.4197    7.3747 N   0  0  0  0  0  0
   -2.0128   32.2695    9.2754 C   0  0  0  0  0  0
   -3.0737   31.1945    9.3878 C   0  0  0  0  0  0
   -2.3081   31.6436   10.6141 C   0  0  0  0  0  0
   -0.1791   33.8924    7.8656 H   0  0  0  0  0  0
    4.2243   22.6459    3.4463 H   0  0  0  0  0  0
    2.8677   23.0451    4.4698 H   0  0  0  0  0  0
    4.1823   24.1973    4.2295 H   0  0  0  0  0  0
    5.7534   22.6438    5.4684 H   0  0  0  0  0  0
    5.1413   20.4172    5.0695 H   0  0  0  0  0  0
    3.4307   20.7694    5.2038 H   0  0  0  0  0  0
    5.3409   20.3397    7.4482 H   0  0  0  0  0  0
    3.6286   19.9243    7.3467 H   0  0  0  0  0  0
    3.1351   24.3551    9.0491 H   0  0  0  0  0  0
    3.1094   26.7179    9.4209 H   0  0  0  0  0  0
    5.5246   27.3043    5.9007 H   0  0  0  0  0  0
    5.7048   24.9190    5.6212 H   0  0  0  0  0  0
    4.1339   29.0360    6.5689 H   0  0  0  0  0  0
    5.2583   29.0491    9.3750 H   0  0  0  0  0  0
    6.0581   29.1322    7.8031 H   0  0  0  0  0  0
    5.1123   30.4986    8.3572 H   0  0  0  0  0  0
    2.9121   30.7612    6.7065 H   0  0  0  0  0  0
   -0.2580   29.8150    8.7640 H   0  0  0  0  0  0
   -2.3423   33.3005    9.1597 H   0  0  0  0  0  0
   -2.8686   30.2056    8.9805 H   0  0  0  0  0  0
   -4.1286   31.4519    9.3070 H   0  0  0  0  0  0
   -2.8122   32.2524   11.3664 H   0  0  0  0  0  0
   -1.5757   30.9661   11.0550 H   0  0  0  0  0  0
  1  2  1  0  0  0
  1 28  1  0  0  0
  1 29  1  0  0  0
  1 30  1  0  0  0
  2  7  1  0  0  0
  2  3  1  0  0  0
  2 31  1  0  0  0
  3  4  1  0  0  0
  3 32  1  0  0  0
  3 33  1  0  0  0
  4  5  1  0  0  0
  4 34  1  0  0  0
  4 35  1  0  0  0
  5  6  2  0  0  0
  5  7  1  0  0  0
  7  8  1  0  0  0
  8 13  1  0  0  0
  8  9  2  0  0  0
  9 10  1  0  0  0
  9 36  1  0  0  0
 10 11  2  0  0  0
 10 37  1  0  0  0
 11 12  1  0  0  0
 11 14  1  0  0  0
 12 13  2  0  0  0
 12 38  1  0  0  0
 13 39  1  0  0  0
 14 15  1  0  0  0
 14 16  1  0  0  0
 14 40  1  0  0  0
 15 41  1  0  0  0
 15 42  1  0  0  0
 15 43  1  0  0  0
 16 17  2  0  0  0
 16 18  1  0  0  0
 18 19  1  0  0  0
 18 44  1  0  0  0
 19 23  2  0  0  0
 19 20  1  0  0  0
 20 21  2  0  0  0
 20 45  1  0  0  0
 21 22  1  0  0  0
 21 24  1  0  0  0
 22 27  1  0  0  0
 22 23  1  0  0  0
 24 26  1  0  0  0
 24 25  1  0  0  0
 24 46  1  0  0  0
 25 26  1  0  0  0
 25 47  1  0  0  0
 25 48  1  0  0  0
 26 49  1  0  0  0
 26 50  1  0  0  0
M  END
> <s_m_entry_id>
34775

> <s_m_entry_name>
ligand_docking-pose.272

> <s_m_Source_Path>
/home/csk/Desktop/cluster/DUD-E-result/cdk2

> <s_m_Source_File>
ligand_docking-pose.sdf

> <i_m_Source_File_Index>
272

> <i_lp_mmshare_version>
53161

> <r_lp_tautomer_probability>
0.5

> <s_lp_Force_Field>
OPLS_2005

> <r_lp_Energy>
38.439429

> <b_lp_Chiralities_Consistent>
1

> <s_lp_Variant>
320962-1

> <s_i_glide_gridfile>
glide-grid_1h00

> <i_i_glide_lignum>
758

> <i_i_glide_rotatable_bonds>
6

> <r_i_docking_score>
-7.44070520472242

> <r_i_glide_ligand_efficiency>
-0.286180969412401

> <r_i_glide_ligand_efficiency_sa>
-0.847809995816499

> <r_i_glide_ligand_efficiency_ln>
-1.74742520238391

> <r_i_glide_gscore>
-7.44070520472242

> <r_i_glide_lipo>
-2.3420640398259

> <r_i_glide_hbond>
-0.577452249863117

> <r_i_glide_metal>
0

> <r_i_glide_rewards>
-2.49012853659156

> <r_i_glide_evdw>
-29.7819633483887

> <r_i_glide_ecoul>
-7.48087453842163

> <r_i_glide_erotb>
0.645343231523187

> <r_i_glide_esite>
-0.0651742617823542

> <r_i_glide_emodel>
-47.9092441553755

> <r_i_glide_energy>
-37.2628378868103

> <r_i_glide_einternal>
7.79094934463501

> <i_i_glide_confnum>
23

> <i_i_glide_posenum>
106

> <r_i_glide_eff_state_penalty>
0

> <i_f3d_flags>
0

> <s_user_duplicate_titles>
320962

> <s_m_subgroup_title>
dock_pv

> <s_m_subgroupid>
dock_pv1

> <b_m_subgroup_collapsed>
0

$$$$
235680
                    3D
 Schrodinger Suite 2021-1.
 40 42  0  0  1  0            999 V2000
   -1.3888   27.1977   13.1434 C   0  0  0  0  0  0
   -0.3650   28.2389   12.6656 C   0  0  0  0  0  0
    0.2104   27.9677   11.2606 C   0  0  0  0  0  0
   -0.7994   28.0997   10.0985 C   0  0  0  0  0  0
   -1.2673   29.4914    9.8671 N   0  0  0  0  0  0
   -2.4896   29.8520   10.3798 C   0  0  0  0  0  0
   -3.2455   29.0817   10.9760 O   0  0  0  0  0  0
   -2.8413   31.2534   10.1760 C   0  0  0  0  0  0
   -2.0470   32.1544    9.5634 C   0  0  0  0  0  0
   -0.7878   31.7154    8.9660 C   0  0  0  0  0  0
   -0.4284   30.3674    9.1136 C   0  0  0  0  0  0
    0.6469   29.8520    8.4661 N   0  0  0  0  0  0
    1.3477   30.6901    7.6629 C   0  0  0  0  0  0
    1.0668   32.0024    7.4559 N   0  0  0  0  0  0
    0.0178   32.5141    8.1551 C   0  0  0  0  0  0
    2.4580   30.2039    6.9760 N   0  0  0  0  0  0
    3.2533   29.0583    7.1538 C   0  0  0  0  0  0
    4.0539   28.6520    6.0840 C   0  0  0  0  0  0
    4.8580   27.5218    6.1997 C   0  0  0  0  0  0
    4.8580   26.7974    7.3884 C   0  0  0  0  0  0
    4.0683   27.2026    8.4617 C   0  0  0  0  0  0
    3.2870   28.3459    8.3570 C   0  0  0  0  0  0
   -1.7390   27.4358   14.1482 H   0  0  0  0  0  0
   -0.9547   26.1981   13.1700 H   0  0  0  0  0  0
   -2.2666   27.1648   12.4987 H   0  0  0  0  0  0
   -0.8059   29.2356   12.7098 H   0  0  0  0  0  0
    0.4580   28.2520   13.3760 H   0  0  0  0  0  0
    1.0605   28.6272   11.0813 H   0  0  0  0  0  0
    0.6246   26.9587   11.2496 H   0  0  0  0  0  0
   -0.3483   27.7070    9.1867 H   0  0  0  0  0  0
   -1.6396   27.4316   10.2886 H   0  0  0  0  0  0
   -3.7825   31.5859   10.5888 H   0  0  0  0  0  0
   -2.3631   33.1854    9.4832 H   0  0  0  0  0  0
   -0.2206   33.5528    7.9787 H   0  0  0  0  0  0
    2.9381   30.9108    6.4331 H   0  0  0  0  0  0
    4.0580   29.2131    5.1609 H   0  0  0  0  0  0
    5.4821   27.2127    5.3736 H   0  0  0  0  0  0
    5.4747   25.9155    7.4816 H   0  0  0  0  0  0
    4.0580   26.6332    9.3760 H   0  0  0  0  0  0
    2.7080   28.6550    9.2123 H   0  0  0  0  0  0
  1  2  1  0  0  0
  1 23  1  0  0  0
  1 24  1  0  0  0
  1 25  1  0  0  0
  2  3  1  0  0  0
  2 26  1  0  0  0
  2 27  1  0  0  0
  3  4  1  0  0  0
  3 28  1  0  0  0
  3 29  1  0  0  0
  4  5  1  0  0  0
  4 30  1  0  0  0
  4 31  1  0  0  0
  5 11  1  0  0  0
  5  6  1  0  0  0
  6  7  2  0  0  0
  6  8  1  0  0  0
  8  9  2  0  0  0
  8 32  1  0  0  0
  9 10  1  0  0  0
  9 33  1  0  0  0
 10 15  2  0  0  0
 10 11  1  0  0  0
 11 12  2  0  0  0
 12 13  1  0  0  0
 13 14  2  0  0  0
 13 16  1  0  0  0
 14 15  1  0  0  0
 15 34  1  0  0  0
 16 17  1  0  0  0
 16 35  1  0  0  0
 17 22  1  0  0  0
 17 18  2  0  0  0
 18 19  1  0  0  0
 18 36  1  0  0  0
 19 20  2  0  0  0
 19 37  1  0  0  0
 20 21  1  0  0  0
 20 38  1  0  0  0
 21 22  2  0  0  0
 21 39  1  0  0  0
 22 40  1  0  0  0
M  END
> <s_m_entry_id>
34779

> <s_m_entry_name>
ligand_docking-pose.276

> <s_m_Source_Path>
/home/csk/Desktop/cluster/DUD-E-result/cdk2

> <s_m_Source_File>
ligand_docking-pose.sdf

> <i_m_Source_File_Index>
276

> <i_lp_mmshare_version>
53161

> <r_lp_tautomer_probability>
1

> <s_lp_Force_Field>
OPLS_2005

> <r_lp_Energy>
19.729239

> <b_lp_Chiralities_Consistent>
1

> <s_lp_Variant>
235680-1

> <s_i_glide_gridfile>
glide-grid_1h00

> <i_i_glide_lignum>
1173

> <i_i_glide_rotatable_bonds>
5

> <r_i_docking_score>
-7.43182610677871

> <r_i_glide_ligand_efficiency>
-0.337810277580851

> <r_i_glide_ligand_efficiency_sa>
-0.946557683105874

> <r_i_glide_ligand_efficiency_ln>
-1.81660938294052

> <r_i_glide_gscore>
-7.43182610677871

> <r_i_glide_lipo>
-2.2907952473556

> <r_i_glide_hbond>
-0.26337352556112

> <r_i_glide_metal>
0

> <r_i_glide_rewards>
-3.36912361572717

> <r_i_glide_evdw>
-33.9595413208008

> <r_i_glide_ecoul>
-4.36546182632446

> <r_i_glide_erotb>
0.844262621853888

> <r_i_glide_esite>
0

> <r_i_glide_emodel>
-56.4336227557541

> <r_i_glide_energy>
-38.3250031471252

> <r_i_glide_einternal>
0.67956268787384

> <i_i_glide_confnum>
10

> <i_i_glide_posenum>
49

> <r_i_glide_eff_state_penalty>
0

> <i_f3d_flags>
0

> <s_user_duplicate_titles>
235680

> <s_m_subgroup_title>
dock_pv

> <s_m_subgroupid>
dock_pv1

> <b_m_subgroup_collapsed>
0

$$$$
645493
                    3D
 Schrodinger Suite 2021-1.
 49 53  0  0  1  0            999 V2000
   -5.7992   24.6209   18.2791 C   0  0  0  0  0  0
   -5.4856   24.2522   16.8521 C   0  0  0  0  0  0
   -4.7431   24.8480   15.8453 C   0  0  0  0  0  0
   -4.9131   23.9519   14.7889 C   0  0  0  0  0  0
   -5.6392   22.9018   15.0795 N   0  0  0  0  0  0
   -6.0285   23.0931   16.4016 O   0  0  0  0  0  0
   -3.9291   26.1366   15.8860 C   0  0  0  0  0  0
   -2.9171   26.2520   14.8270 N   0  0  0  0  0  0
   -1.9142   25.3845   14.5767 C   0  0  0  0  0  0
   -1.7736   24.3421   15.2221 O   0  0  0  0  0  0
   -0.9802   25.7089   13.4308 C   0  0  0  0  0  0
   -0.2763   24.6606   12.8212 C   0  0  0  0  0  0
    0.5955   24.8719   11.7556 C   0  0  0  0  0  0
    0.7614   26.1723   11.2669 C   0  0  0  0  0  0
    1.5108   26.7469   10.1930 C   0  0  0  0  0  0
    1.2005   28.0936   10.1251 C   0  0  0  0  0  0
    0.4102   28.3835   11.2139 N   0  0  0  0  0  0
    0.0581   27.2365   11.8950 C   0  0  0  0  0  0
   -0.8088   27.0307   12.9760 C   0  0  0  0  0  0
    1.5615   29.0751    9.0945 C   0  0  0  0  0  0
    0.7923   30.1599    8.5762 C   0  0  0  0  0  0
    1.5788   30.6521    7.5415 C   0  0  0  0  0  0
    2.7209   29.9047    7.5392 N   0  0  0  0  0  0
    2.7211   28.9582    8.4753 N   0  0  0  0  0  0
   -0.5310   30.7140    9.0169 C   0  0  0  0  0  0
   -1.5387   29.8912    9.5268 C   0  0  0  0  0  0
   -2.6966   30.4391   10.0680 C   0  0  0  0  0  0
   -2.8560   31.8199   10.0865 C   0  0  0  0  0  0
   -1.8926   32.6513    9.5260 C   0  0  0  0  0  0
   -0.7414   32.0978    8.9765 C   0  0  0  0  0  0
    0.0749   29.3203   11.3863 H   0  0  0  0  0  0
    3.5137   30.0587    6.9263 H   0  0  0  0  0  0
   -5.5425   25.6571   18.4976 H   0  0  0  0  0  0
   -6.8596   24.5026   18.5025 H   0  0  0  0  0  0
   -5.2532   23.9999   18.9884 H   0  0  0  0  0  0
   -4.4755   24.0705   13.8086 H   0  0  0  0  0  0
   -4.5899   27.0003   15.7997 H   0  0  0  0  0  0
   -3.4320   26.2526   16.8508 H   0  0  0  0  0  0
   -2.9363   27.1315   14.3214 H   0  0  0  0  0  0
   -0.4061   23.6468   13.1746 H   0  0  0  0  0  0
    1.1168   24.0447   11.2999 H   0  0  0  0  0  0
    2.1475   26.2306    9.4904 H   0  0  0  0  0  0
   -1.3298   27.8637   13.4265 H   0  0  0  0  0  0
    1.4461   31.4688    6.8483 H   0  0  0  0  0  0
   -1.4312   28.8182    9.5120 H   0  0  0  0  0  0
   -3.4590   29.8012   10.4904 H   0  0  0  0  0  0
   -3.7408   32.2487   10.5346 H   0  0  0  0  0  0
   -2.0255   33.7223    9.5365 H   0  0  0  0  0  0
    0.0180   32.7568    8.5791 H   0  0  0  0  0  0
  1  2  1  0  0  0
  1 33  1  0  0  0
  1 34  1  0  0  0
  1 35  1  0  0  0
  2  6  1  0  0  0
  2  3  2  0  0  0
  3  4  1  0  0  0
  3  7  1  0  0  0
  4  5  2  0  0  0
  4 36  1  0  0  0
  5  6  1  0  0  0
  7  8  1  0  0  0
  7 37  1  0  0  0
  7 38  1  0  0  0
  8  9  1  0  0  0
  8 39  1  0  0  0
  9 10  2  0  0  0
  9 11  1  0  0  0
 11 19  1  0  0  0
 11 12  2  0  0  0
 12 13  1  0  0  0
 12 40  1  0  0  0
 13 14  2  0  0  0
 13 41  1  0  0  0
 14 18  1  0  0  0
 14 15  1  0  0  0
 15 16  2  0  0  0
 15 42  1  0  0  0
 16 17  1  0  0  0
 16 20  1  0  0  0
 17 31  1  0  0  0
 17 18  1  0  0  0
 18 19  2  0  0  0
 19 43  1  0  0  0
 20 24  2  0  0  0
 20 21  1  0  0  0
 21 22  2  0  0  0
 21 25  1  0  0  0
 22 23  1  0  0  0
 22 44  1  0  0  0
 23 32  1  0  0  0
 23 24  1  0  0  0
 25 30  1  0  0  0
 25 26  2  0  0  0
 26 27  1  0  0  0
 26 45  1  0  0  0
 27 28  2  0  0  0
 27 46  1  0  0  0
 28 29  1  0  0  0
 28 47  1  0  0  0
 29 30  2  0  0  0
 29 48  1  0  0  0
 30 49  1  0  0  0
M  END
> <s_m_entry_id>
34783

> <s_m_entry_name>
ligand_docking-pose.280

> <s_m_Source_Path>
/home/csk/Desktop/cluster/DUD-E-result/cdk2

> <s_m_Source_File>
ligand_docking-pose.sdf

> <i_m_Source_File_Index>
280

> <i_lp_mmshare_version>
53161

> <r_lp_tautomer_probability>
0.5

> <s_lp_Force_Field>
OPLS_2005

> <r_lp_Energy>
13.43992

> <b_lp_Chiralities_Consistent>
1

> <s_lp_Variant>
645493-1

> <s_i_glide_gridfile>
glide-grid_1h00

> <i_i_glide_lignum>
783

> <i_i_glide_rotatable_bonds>
6

> <r_i_docking_score>
-7.37437646898644

> <r_i_glide_ligand_efficiency>
-0.245812548966215

> <r_i_glide_ligand_efficiency_sa>
-0.763796741653256

> <r_i_glide_ligand_efficiency_ln>
-1.6755386840209

> <r_i_glide_gscore>
-7.37437646898644

> <r_i_glide_lipo>
-2.69903626983033

> <r_i_glide_hbond>
-0.337905412079588

> <r_i_glide_metal>
0

> <r_i_glide_rewards>
-1.61753423308579

> <r_i_glide_evdw>
-43.2884254455566

> <r_i_glide_ecoul>
-7.37104177474976

> <r_i_glide_erotb>
0.7435773780756

> <r_i_glide_esite>
-0.193400393576044

> <r_i_glide_emodel>
-73.0414976356973

> <r_i_glide_energy>
-50.6594672203064

> <r_i_glide_einternal>
1.49530375003815

> <i_i_glide_confnum>
82

> <i_i_glide_posenum>
383

> <r_i_glide_eff_state_penalty>
0

> <i_f3d_flags>
0

> <s_user_duplicate_titles>
645493

> <s_m_subgroup_title>
dock_pv

> <s_m_subgroupid>
dock_pv1

> <b_m_subgroup_collapsed>
0

$$$$
324637
                    3D
 Schrodinger Suite 2021-1.
 40 43  0  0  1  0            999 V2000
    4.0074   28.6520    6.1228 C   0  0  0  0  0  0
    4.8000   27.5109    6.1773 C   0  0  0  0  0  0
    4.8199   26.7456    7.3385 C   0  0  0  0  0  0
    4.0758   27.1338    8.4533 C   0  0  0  0  0  0
    3.3323   28.3069    8.4150 C   0  0  0  0  0  0
    3.2580   29.0522    7.2328 C   0  0  0  0  0  0
    2.4581   30.2042    7.1097 N   0  0  0  0  0  0
    1.2968   30.6138    7.7768 C   0  0  0  0  0  0
    0.8595   31.8669    7.5091 N   0  0  0  0  0  0
   -0.2478   32.2748    8.1760 C   0  0  0  0  0  0
   -0.9462   31.4462    9.0659 C   0  0  0  0  0  0
   -0.4058   30.1713    9.3026 C   0  0  0  0  0  0
    0.7072   29.7632    8.6509 N   0  0  0  0  0  0
   -1.0080   29.3166   10.2457 N   0  0  0  0  0  0
   -0.7423   28.0388   10.7662 C   0  0  0  0  0  0
    0.2193   27.1683   10.2351 C   0  0  0  0  0  0
    0.4686   25.8998   10.7648 C   0  0  0  0  0  0
   -0.2951   25.5296   11.8717 C   0  0  0  0  0  0
   -1.2763   26.3847   12.4377 C   0  0  0  0  0  0
   -1.5041   27.6484   11.8737 C   0  0  0  0  0  0
   -1.8808   25.7934   13.5184 N   0  0  0  0  0  0
   -1.3072   24.6212   13.6102 C   0  0  0  0  0  0
   -0.3473   24.3988   12.6527 N   0  0  0  0  0  0
   -2.2270   31.9338    9.7287 C   0  0  0  0  0  0
   -2.3416   31.5082   10.9760 F   0  0  0  0  0  0
   -2.2725   33.2618    9.7753 F   0  0  0  0  0  0
   -3.2545   31.4572    9.0271 F   0  0  0  0  0  0
    5.8626   25.1553    7.3781 Br  0  0  0  0  0  0
    0.1900   23.5478   12.5774 H   0  0  0  0  0  0
    3.9860   29.2363    5.2140 H   0  0  0  0  0  0
    5.3854   27.2144    5.3191 H   0  0  0  0  0  0
    4.0603   26.5362    9.3523 H   0  0  0  0  0  0
    2.8057   28.6101    9.3057 H   0  0  0  0  0  0
    2.8846   30.9144    6.5288 H   0  0  0  0  0  0
   -0.5827   33.2791    7.9520 H   0  0  0  0  0  0
   -1.7760   29.7714   10.7195 H   0  0  0  0  0  0
    0.7978   27.4549    9.3761 H   0  0  0  0  0  0
    1.2151   25.2502   10.3323 H   0  0  0  0  0  0
   -2.2484   28.3060   12.3023 H   0  0  0  0  0  0
   -1.5266   23.8569   14.3414 H   0  0  0  0  0  0
  1  6  1  0  0  0
  1  2  2  0  0  0
  1 30  1  0  0  0
  2  3  1  0  0  0
  2 31  1  0  0  0
  3  4  2  0  0  0
  3 28  1  0  0  0
  4  5  1  0  0  0
  4 32  1  0  0  0
  5  6  2  0  0  0
  5 33  1  0  0  0
  6  7  1  0  0  0
  7  8  1  0  0  0
  7 34  1  0  0  0
  8 13  1  0  0  0
  8  9  2  0  0  0
  9 10  1  0  0  0
 10 11  2  0  0  0
 10 35  1  0  0  0
 11 12  1  0  0  0
 11 24  1  0  0  0
 12 13  2  0  0  0
 12 14  1  0  0  0
 14 15  1  0  0  0
 14 36  1  0  0  0
 15 20  1  0  0  0
 15 16  2  0  0  0
 16 17  1  0  0  0
 16 37  1  0  0  0
 17 18  2  0  0  0
 17 38  1  0  0  0
 18 23  1  0  0  0
 18 19  1  0  0  0
 19 20  2  0  0  0
 19 21  1  0  0  0
 20 39  1  0  0  0
 21 22  2  0  0  0
 22 23  1  0  0  0
 22 40  1  0  0  0
 23 29  1  0  0  0
 24 25  1  0  0  0
 24 26  1  0  0  0
 24 27  1  0  0  0
M  END
> <s_m_entry_id>
34786

> <s_m_entry_name>
ligand_docking-pose.283

> <s_m_Source_Path>
/home/csk/Desktop/cluster/DUD-E-result/cdk2

> <s_m_Source_File>
ligand_docking-pose.sdf

> <i_m_Source_File_Index>
283

> <i_lp_mmshare_version>
53161

> <r_lp_tautomer_probability>
0.999999624730965

> <s_lp_Force_Field>
OPLS_2005

> <r_lp_Energy>
10.198144

> <b_lp_Chiralities_Consistent>
1

> <s_lp_Variant>
324637-1

> <s_i_glide_gridfile>
glide-grid_1h00

> <i_i_glide_lignum>
449

> <i_i_glide_rotatable_bonds>
5

> <r_i_docking_score>
-7.363974084002

> <r_i_glide_ligand_efficiency>
-0.262999074428643

> <r_i_glide_ligand_efficiency_sa>
-0.798620088136468

> <r_i_glide_ligand_efficiency_ln>
-1.69982143426192

> <r_i_glide_gscore>
-7.363974084002

> <r_i_glide_lipo>
-2.74507992107958

> <r_i_glide_hbond>
-0.247431318959062

> <r_i_glide_metal>
0

> <r_i_glide_rewards>
-2.15029303107283

> <r_i_glide_evdw>
-41.8089141845703

> <r_i_glide_ecoul>
-3.01484489440918

> <r_i_glide_erotb>
0.397198717810579

> <r_i_glide_esite>
-0.0756960873112048

> <r_i_glide_emodel>
-63.8231608569018

> <r_i_glide_energy>
-44.8237590789795

> <r_i_glide_einternal>
2.00127530097961

> <i_i_glide_confnum>
32

> <i_i_glide_posenum>
395

> <r_i_glide_eff_state_penalty>
0

> <i_f3d_flags>
0

> <s_user_duplicate_titles>
324637

> <s_m_subgroup_title>
dock_pv

> <s_m_subgroupid>
dock_pv1

> <b_m_subgroup_collapsed>
0

$$$$
310884
                    3D
 Schrodinger Suite 2021-1.
 56 60  0  0  1  0            999 V2000
   -0.5130   21.0505   16.0464 C   0  0  0  0  0  0
   -0.5445   21.8613   14.7655 C   0  0  0  0  0  0
   -0.4513   21.2253   13.5252 C   0  0  0  0  0  0
   -0.4982   21.9718   12.3490 C   0  0  0  0  0  0
   -0.6510   23.3561   12.4058 C   0  0  0  0  0  0
   -0.7563   24.0122   13.6441 C   0  0  0  0  0  0
   -0.6906   23.2496   14.8186 C   0  0  0  0  0  0
   -0.9005   25.5125   13.7232 C   0  0  0  0  0  0
   -0.3897   26.1406   14.6570 O   0  0  0  0  0  0
   -1.6317   26.0629   12.7322 N   0  0  0  0  0  0
   -1.7527   27.4493   12.6876 N   0  0  0  0  0  0
   -1.4905   28.0161   11.4915 C   0  0  0  0  0  0
   -1.2638   27.3858   10.4531 O   0  0  0  0  0  0
   -1.5434   29.3590   11.5708 N   0  0  0  0  0  0
   -1.2933   30.2928   10.5484 C   0  0  0  0  0  0
   -2.1372   31.4099   10.5778 C   0  0  0  0  0  0
   -2.0419   32.4312    9.6392 C   0  0  0  0  0  0
   -1.0881   32.3577    8.6355 C   0  0  0  0  0  0
   -0.2154   31.2762    8.6124 C   0  0  0  0  0  0
   -0.2752   30.2524    9.5686 C   0  0  0  0  0  0
    0.9061   29.3404    9.3794 C   0  0  0  0  0  0
    1.2583   28.3860   10.0686 O   0  0  0  0  0  0
    1.5800   29.8498    8.2064 C   0  0  0  0  0  0
    0.9261   30.9808    7.7712 C   0  0  0  0  0  0
    1.5041   31.5259    6.7375 N   0  0  0  0  0  0
    2.4580   30.6529    6.4358 N   0  0  0  0  0  0
    2.6316   29.6381    7.3238 C   0  0  0  0  0  0
    3.7301   28.6425    7.1706 C   0  0  0  0  0  0
    4.2941   28.0303    8.2885 C   0  0  0  0  0  0
    5.3264   27.1128    8.1213 C   0  0  0  0  0  0
    5.8029   26.7749    6.8598 C   0  0  0  0  0  0
    5.2364   27.3847    5.7365 C   0  0  0  0  0  0
    4.2057   28.3084    5.8939 C   0  0  0  0  0  0
    6.8352   25.8584    6.8162 O   0  0  0  0  0  0
    7.4039   25.5156    5.5570 C   0  0  0  0  0  0
    3.1519   30.8702    5.7290 H   0  0  0  0  0  0
   -1.2792   21.4013   16.7370 H   0  0  0  0  0  0
   -0.7140   19.9911   15.8587 H   0  0  0  0  0  0
    0.4571   21.1509   16.5397 H   0  0  0  0  0  0
   -0.3447   20.1501   13.4619 H   0  0  0  0  0  0
   -0.4115   21.4710   11.3965 H   0  0  0  0  0  0
   -0.6723   23.9171   11.4806 H   0  0  0  0  0  0
   -0.7574   23.7388   15.7781 H   0  0  0  0  0  0
   -2.4338   25.5891   12.3407 H   0  0  0  0  0  0
   -2.5611   27.7554   13.2147 H   0  0  0  0  0  0
   -2.1049   29.7187   12.3294 H   0  0  0  0  0  0
   -2.8633   31.5173   11.3677 H   0  0  0  0  0  0
   -2.7018   33.2819    9.7078 H   0  0  0  0  0  0
   -0.9910   33.1661    7.9254 H   0  0  0  0  0  0
    3.9466   28.2690    9.2834 H   0  0  0  0  0  0
    5.7860   26.6536    8.9760 H   0  0  0  0  0  0
    5.5821   27.1641    4.7384 H   0  0  0  0  0  0
    3.7819   28.7651    5.0118 H   0  0  0  0  0  0
    8.2005   24.7879    5.7104 H   0  0  0  0  0  0
    6.6658   25.0638    4.8945 H   0  0  0  0  0  0
    7.8431   26.3836    5.0633 H   0  0  0  0  0  0
  1  2  1  0  0  0
  1 37  1  0  0  0
  1 38  1  0  0  0
  1 39  1  0  0  0
  2  7  1  0  0  0
  2  3  2  0  0  0
  3  4  1  0  0  0
  3 40  1  0  0  0
  4  5  2  0  0  0
  4 41  1  0  0  0
  5  6  1  0  0  0
  5 42  1  0  0  0
  6  7  2  0  0  0
  6  8  1  0  0  0
  7 43  1  0  0  0
  8  9  2  0  0  0
  8 10  1  0  0  0
 10 11  1  0  0  0
 10 44  1  0  0  0
 11 12  1  0  0  0
 11 45  1  0  0  0
 12 13  2  0  0  0
 12 14  1  0  0  0
 14 15  1  0  0  0
 14 46  1  0  0  0
 15 20  1  0  0  0
 15 16  2  0  0  0
 16 17  1  0  0  0
 16 47  1  0  0  0
 17 18  2  0  0  0
 17 48  1  0  0  0
 18 19  1  0  0  0
 18 49  1  0  0  0
 19 24  1  0  0  0
 19 20  2  0  0  0
 20 21  1  0  0  0
 21 22  2  0  0  0
 21 23  1  0  0  0
 23 27  2  0  0  0
 23 24  1  0  0  0
 24 25  2  0  0  0
 25 26  1  0  0  0
 26 36  1  0  0  0
 26 27  1  0  0  0
 27 28  1  0  0  0
 28 33  1  0  0  0
 28 29  2  0  0  0
 29 30  1  0  0  0
 29 50  1  0  0  0
 30 31  2  0  0  0
 30 51  1  0  0  0
 31 32  1  0  0  0
 31 34  1  0  0  0
 32 33  2  0  0  0
 32 52  1  0  0  0
 33 53  1  0  0  0
 34 35  1  0  0  0
 35 54  1  0  0  0
 35 55  1  0  0  0
 35 56  1  0  0  0
M  END
> <s_m_entry_id>
34787

> <s_m_entry_name>
ligand_docking-pose.284

> <s_m_Source_Path>
/home/csk/Desktop/cluster/DUD-E-result/cdk2

> <s_m_Source_File>
ligand_docking-pose.sdf

> <i_m_Source_File_Index>
284

> <i_lp_mmshare_version>
53161

> <r_lp_tautomer_probability>
1

> <s_lp_Force_Field>
OPLS_2005

> <r_lp_Energy>
68.110583

> <b_lp_Chiralities_Consistent>
1

> <s_lp_Variant>
310884-1

> <s_i_glide_gridfile>
glide-grid_1h00

> <i_i_glide_lignum>
719

> <i_i_glide_rotatable_bonds>
8

> <r_i_docking_score>
-7.36187820576966

> <r_i_glide_ligand_efficiency>
-0.210339377307705

> <r_i_glide_ligand_efficiency_sa>
-0.688034050001879

> <r_i_glide_ligand_efficiency_ln>
-1.6160956542501

> <r_i_glide_gscore>
-7.36187820576966

> <r_i_glide_lipo>
-2.99233118632674

> <r_i_glide_hbond>
-0.29452419902304

> <r_i_glide_metal>
0

> <r_i_glide_rewards>
-1.03257001074347

> <r_i_glide_evdw>
-44.2523765563965

> <r_i_glide_ecoul>
-9.47021579742432

> <r_i_glide_erotb>
0.646483192563179

> <r_i_glide_esite>
-0.0557848048061226

> <r_i_glide_emodel>
-71.3388767599549

> <r_i_glide_energy>
-53.7225923538208

> <r_i_glide_einternal>
13.1130361557007

> <i_i_glide_confnum>
27

> <i_i_glide_posenum>
225

> <r_i_glide_eff_state_penalty>
0

> <i_f3d_flags>
0

> <s_user_duplicate_titles>
310884

> <s_m_subgroup_title>
dock_pv

> <s_m_subgroupid>
dock_pv1

> <b_m_subgroup_collapsed>
0

$$$$
96511
                    3D
 Schrodinger Suite 2021-1.
 36 41  0  0  1  0            999 V2000
   -0.3603   31.4878    8.5760 C   0  0  0  0  0  0
   -1.5432   32.0154    9.0865 C   0  0  0  0  0  0
   -2.3020   31.3294   10.0329 C   0  0  0  0  0  0
   -1.8160   30.0911   10.4650 C   0  0  0  0  0  0
   -0.5921   29.5394    9.9796 C   0  0  0  0  0  0
    0.1241   30.2512    9.0004 C   0  0  0  0  0  0
   -0.3743   28.3152   10.6620 C   0  0  0  0  0  0
    0.6380   27.3341   10.7017 C   0  0  0  0  0  0
    0.4957   26.1797   11.4551 C   0  0  0  0  0  0
   -0.6489   25.9672   12.2543 C   0  0  0  0  0  0
   -1.1289   24.9469   13.1130 C   0  0  0  0  0  0
   -0.6467   23.6774   13.4752 C   0  0  0  0  0  0
   -1.3996   22.8929   14.3481 C   0  0  0  0  0  0
   -2.6015   23.3535   14.8782 C   0  0  0  0  0  0
   -3.0976   24.6210   14.5759 C   0  0  0  0  0  0
   -2.3619   25.3995   13.6763 C   0  0  0  0  0  0
   -2.6274   26.6520   13.1548 N   0  0  0  0  0  0
   -1.6241   26.9827   12.2754 C   0  0  0  0  0  0
   -1.4951   28.1222   11.4885 C   0  0  0  0  0  0
   -2.3418   29.1991   11.3761 N   0  0  0  0  0  0
   -3.6115   22.2147   16.0208 Br  0  0  0  0  0  0
    1.7264   25.3660   11.2499 C   0  0  0  0  0  0
    2.0286   24.2691   11.7184 O   0  0  0  0  0  0
    2.4985   26.1045   10.4349 N   0  0  0  0  0  0
    1.9799   27.2862   10.0713 C   0  0  0  0  0  0
    2.5375   28.1251    9.3693 O   0  0  0  0  0  0
   -3.4078   27.2510   13.4022 H   0  0  0  0  0  0
   -3.1785   29.3602   11.9255 H   0  0  0  0  0  0
    0.1925   32.0500    7.8372 H   0  0  0  0  0  0
   -1.8853   32.9775    8.7346 H   0  0  0  0  0  0
   -3.2218   31.7472   10.4200 H   0  0  0  0  0  0
    1.0476   29.8748    8.5923 H   0  0  0  0  0  0
    0.2742   23.2894   13.0709 H   0  0  0  0  0  0
   -1.0513   21.9033   14.6009 H   0  0  0  0  0  0
   -4.0351   24.9632   14.9878 H   0  0  0  0  0  0
    3.4450   25.8502   10.1909 H   0  0  0  0  0  0
  1  6  1  0  0  0
  1  2  2  0  0  0
  1 29  1  0  0  0
  2  3  1  0  0  0
  2 30  1  0  0  0
  3  4  2  0  0  0
  3 31  1  0  0  0
  4 20  1  0  0  0
  4  5  1  0  0  0
  5  6  2  0  0  0
  5  7  1  0  0  0
  6 32  1  0  0  0
  7 19  2  0  0  0
  7  8  1  0  0  0
  8 25  1  0  0  0
  8  9  2  0  0  0
  9 10  1  0  0  0
  9 22  1  0  0  0
 10 18  2  0  0  0
 10 11  1  0  0  0
 11 16  2  0  0  0
 11 12  1  0  0  0
 12 13  2  0  0  0
 12 33  1  0  0  0
 13 14  1  0  0  0
 13 34  1  0  0  0
 14 15  2  0  0  0
 14 21  1  0  0  0
 15 16  1  0  0  0
 15 35  1  0  0  0
 16 17  1  0  0  0
 17 27  1  0  0  0
 17 18  1  0  0  0
 18 19  1  0  0  0
 19 20  1  0  0  0
 20 28  1  0  0  0
 22 23  2  0  0  0
 22 24  1  0  0  0
 24 25  1  0  0  0
 24 36  1  0  0  0
 25 26  2  0  0  0
M  END
> <s_m_entry_id>
34788

> <s_m_entry_name>
ligand_docking-pose.285

> <s_m_Source_Path>
/home/csk/Desktop/cluster/DUD-E-result/cdk2

> <s_m_Source_File>
ligand_docking-pose.sdf

> <i_m_Source_File_Index>
285

> <i_lp_mmshare_version>
53161

> <r_lp_tautomer_probability>
1

> <s_lp_Force_Field>
OPLS_2005

> <r_lp_Energy>
73.748229

> <b_lp_Chiralities_Consistent>
1

> <s_lp_Variant>
96511-1

> <s_i_glide_gridfile>
glide-grid_1h00

> <i_i_glide_lignum>
111

> <i_i_glide_rotatable_bonds>
0

> <r_i_docking_score>
-7.36117377233356

> <r_i_glide_ligand_efficiency>
-0.283122068166675

> <r_i_glide_ligand_efficiency_sa>
-0.838748012912232

> <r_i_glide_ligand_efficiency_ln>
-1.7287475064513

> <r_i_glide_gscore>
-7.36117377233356

> <r_i_glide_lipo>
-2.03886968590566

> <r_i_glide_hbond>
-0.308897646965348

> <r_i_glide_metal>
0

> <r_i_glide_rewards>
-1.85651206193896

> <r_i_glide_evdw>
-39.8657608032227

> <r_i_glide_ecoul>
-6.83844518661499

> <r_i_glide_erotb>
0

> <r_i_glide_esite>
-0.137839559370211

> <r_i_glide_emodel>
-68.4864915781313

> <r_i_glide_energy>
-46.7042059898376

> <r_i_glide_einternal>
0

> <i_i_glide_confnum>
1

> <i_i_glide_posenum>
73

> <r_i_glide_eff_state_penalty>
0

> <i_f3d_flags>
0

> <s_user_duplicate_titles>
96511

> <s_m_subgroup_title>
dock_pv

> <s_m_subgroupid>
dock_pv1

> <b_m_subgroup_collapsed>
0

$$$$
235763
                    3D
 Schrodinger Suite 2021-1.
 41 44  0  0  1  0            999 V2000
    5.1814   26.3685    6.9920 C   0  0  0  0  0  0
    5.1560   27.2209    5.8933 C   0  0  0  0  0  0
    4.3906   28.3824    5.9439 C   0  0  0  0  0  0
    3.6510   28.6939    7.0883 C   0  0  0  0  0  0
    3.7116   27.8521    8.2021 C   0  0  0  0  0  0
    4.4581   26.6784    8.1403 C   0  0  0  0  0  0
    2.8580   29.8519    7.0467 N   0  0  0  0  0  0
    1.7103   30.2724    7.7238 C   0  0  0  0  0  0
    1.2636   31.5087    7.3761 N   0  0  0  0  0  0
    0.1594   31.9648    8.0203 C   0  0  0  0  0  0
   -0.5370   31.1752    8.9301 C   0  0  0  0  0  0
   -1.7595   31.6034    9.6013 C   0  0  0  0  0  0
   -2.3780   30.7545   10.4407 C   0  0  0  0  0  0
   -1.9412   29.3910   10.6991 C   0  0  0  0  0  0
   -2.6395   28.6440   11.3805 O   0  0  0  0  0  0
   -0.7403   29.0390   10.1181 N   0  0  0  0  0  0
   -0.0268   29.8971    9.2177 C   0  0  0  0  0  0
    1.1159   29.4522    8.6257 N   0  0  0  0  0  0
   -0.1242   27.7130   10.4464 C   0  0  0  0  0  0
    0.1879   27.5137   11.9435 C   0  0  0  0  0  0
   -0.2421   26.0827   12.3037 C   0  0  0  0  0  0
   -0.4035   25.3568   10.9684 C   0  0  0  0  0  0
   -0.9073   26.4504   10.0302 C   0  0  0  0  0  0
    5.7644   25.4601    6.9515 H   0  0  0  0  0  0
    5.7280   26.9847    5.0073 H   0  0  0  0  0  0
    4.3677   29.0376    5.0849 H   0  0  0  0  0  0
    3.1713   28.0765    9.1084 H   0  0  0  0  0  0
    4.4680   26.0007    8.9760 H   0  0  0  0  0  0
    3.2340   30.5694    6.4397 H   0  0  0  0  0  0
   -0.1705   32.9640    7.7710 H   0  0  0  0  0  0
   -2.1447   32.6057    9.4655 H   0  0  0  0  0  0
   -3.2544   31.0939   10.9740 H   0  0  0  0  0  0
    0.8350   27.5551    9.9536 H   0  0  0  0  0  0
   -0.3133   28.2270   12.5998 H   0  0  0  0  0  0
    1.2575   27.6573   12.0860 H   0  0  0  0  0  0
   -1.2009   26.1099   12.8258 H   0  0  0  0  0  0
    0.4746   25.5883   12.9603 H   0  0  0  0  0  0
   -1.0925   24.5137   11.0347 H   0  0  0  0  0  0
    0.5589   24.9761   10.6213 H   0  0  0  0  0  0
   -0.8044   26.2038    8.9760 H   0  0  0  0  0  0
   -1.9683   26.5735   10.1869 H   0  0  0  0  0  0
  1  6  1  0  0  0
  1  2  2  0  0  0
  1 24  1  0  0  0
  2  3  1  0  0  0
  2 25  1  0  0  0
  3  4  2  0  0  0
  3 26  1  0  0  0
  4  5  1  0  0  0
  4  7  1  0  0  0
  5  6  2  0  0  0
  5 27  1  0  0  0
  6 28  1  0  0  0
  7  8  1  0  0  0
  7 29  1  0  0  0
  8 18  1  0  0  0
  8  9  2  0  0  0
  9 10  1  0  0  0
 10 11  2  0  0  0
 10 30  1  0  0  0
 11 17  1  0  0  0
 11 12  1  0  0  0
 12 13  2  0  0  0
 12 31  1  0  0  0
 13 14  1  0  0  0
 13 32  1  0  0  0
 14 15  2  0  0  0
 14 16  1  0  0  0
 16 17  1  0  0  0
 16 19  1  0  0  0
 17 18  2  0  0  0
 19 23  1  0  0  0
 19 20  1  0  0  0
 19 33  1  0  0  0
 20 21  1  0  0  0
 20 34  1  0  0  0
 20 35  1  0  0  0
 21 22  1  0  0  0
 21 36  1  0  0  0
 21 37  1  0  0  0
 22 23  1  0  0  0
 22 38  1  0  0  0
 22 39  1  0  0  0
 23 40  1  0  0  0
 23 41  1  0  0  0
M  END
> <s_m_entry_id>
34789

> <s_m_entry_name>
ligand_docking-pose.286

> <s_m_Source_Path>
/home/csk/Desktop/cluster/DUD-E-result/cdk2

> <s_m_Source_File>
ligand_docking-pose.sdf

> <i_m_Source_File_Index>
286

> <i_lp_mmshare_version>
53161

> <r_lp_tautomer_probability>
1

> <s_lp_Force_Field>
OPLS_2005

> <r_lp_Energy>
40.153144

> <b_lp_Chiralities_Consistent>
1

> <s_lp_Variant>
235763-1

> <s_i_glide_gridfile>
glide-grid_1h00

> <i_i_glide_lignum>
430

> <i_i_glide_rotatable_bonds>
3

> <r_i_docking_score>
-7.3584941491584

> <r_i_glide_ligand_efficiency>
-0.319934528224278

> <r_i_glide_ligand_efficiency_sa>
-0.909851239580469

> <r_i_glide_ligand_efficiency_ln>
-1.77935060840246

> <r_i_glide_gscore>
-7.3584941491584

> <r_i_glide_lipo>
-2.37391988976305

> <r_i_glide_hbond>
-0.285087238562103

> <r_i_glide_metal>
0

> <r_i_glide_rewards>
-3.04766284962866

> <r_i_glide_evdw>
-32.1308937072754

> <r_i_glide_ecoul>
-4.23721981048584

> <r_i_glide_erotb>
0.590391437282336

> <r_i_glide_esite>
-8.79515502795608e-05

> <r_i_glide_emodel>
-48.4729872447808

> <r_i_glide_energy>
-36.3681135177612

> <r_i_glide_einternal>
4.9927716255188

> <i_i_glide_confnum>
40

> <i_i_glide_posenum>
6

> <r_i_glide_eff_state_penalty>
0

> <i_f3d_flags>
0

> <s_user_duplicate_titles>
235763

> <s_m_subgroup_title>
dock_pv

> <s_m_subgroupid>
dock_pv1

> <b_m_subgroup_collapsed>
0

$$$$
574810
                    3D
 Schrodinger Suite 2021-1.
 57 60  0  0  1  0            999 V2000
    3.5780   21.6951    5.4396 C   0  0  0  0  0  0
    4.0571   23.1331    5.3726 C   0  0  0  0  0  0
    4.0581   23.8140    4.1546 C   0  0  0  0  0  0
    4.4650   25.1445    4.0955 C   0  0  0  0  0  0
    4.8683   25.8032    5.2539 C   0  0  0  0  0  0
    4.8592   25.1383    6.4870 C   0  0  0  0  0  0
    4.4580   23.7977    6.5343 C   0  0  0  0  0  0
    5.3391   25.8421    7.7606 C   0  0  1  0  0  0
    6.8412   26.2229    7.6895 C   0  0  0  0  0  0
    7.6621   25.1162    7.3756 O   0  0  0  0  0  0
    4.4275   26.9242    8.1763 N   0  0  0  0  0  0
    4.3922   28.1838    7.7088 C   0  0  0  0  0  0
    5.2510   28.6608    6.9764 O   0  0  0  0  0  0
    3.2066   28.9279    8.0347 C   0  0  0  0  0  0
    2.1992   28.7256    8.9760 C   0  0  0  0  0  0
    1.1727   29.6900    8.8113 C   0  0  0  0  0  0
    1.6258   30.5093    7.7763 C   0  0  0  0  0  0
    2.8576   30.0736    7.3750 N   0  0  0  0  0  0
   -0.1274   29.7473    9.5674 C   0  0  0  0  0  0
   -1.0724   30.7996    9.5592 C   0  0  0  0  0  0
   -2.2513   30.5888   10.2807 C   0  0  0  0  0  0
   -2.4934   29.4518   10.9760 N   0  0  0  0  0  0
   -1.5241   28.5130   10.9728 C   0  0  0  0  0  0
   -0.3560   28.6147   10.2923 N   0  0  0  0  0  0
   -1.7787   27.3945   11.7763 N   0  0  0  0  0  0
   -1.1380   26.1508   11.8965 C   0  0  0  0  0  0
   -0.3417   25.6084   10.8799 C   0  0  0  0  0  0
    0.2686   24.3697   11.0547 C   0  0  0  0  0  0
    0.0643   23.6610   12.2357 C   0  0  0  0  0  0
   -0.7407   24.1831   13.2451 C   0  0  0  0  0  0
   -1.3415   25.4268   13.0719 C   0  0  0  0  0  0
   -0.8791   32.1295    8.8497 C   0  0  0  0  0  0
    5.2678   25.1216    8.5764 H   0  0  0  0  0  0
    3.4345   30.5091    6.6596 H   0  0  0  0  0  0
    3.0661   21.5043    6.3837 H   0  0  0  0  0  0
    2.8583   21.4893    4.6476 H   0  0  0  0  0  0
    4.4172   21.0057    5.3459 H   0  0  0  0  0  0
    3.7437   23.3204    3.2450 H   0  0  0  0  0  0
    4.4736   25.6580    3.1444 H   0  0  0  0  0  0
    5.1925   26.8306    5.1864 H   0  0  0  0  0  0
    4.4479   23.2696    7.4751 H   0  0  0  0  0  0
    7.0111   26.9583    6.9050 H   0  0  0  0  0  0
    7.1741   26.6518    8.6327 H   0  0  0  0  0  0
    8.4880   25.4456    7.0106 H   0  0  0  0  0  0
    3.7092   26.6567    8.8316 H   0  0  0  0  0  0
    2.1708   27.9177    9.6940 H   0  0  0  0  0  0
    1.1991   31.3787    7.3016 H   0  0  0  0  0  0
   -3.0254   31.3421   10.3357 H   0  0  0  0  0  0
   -2.5970   27.5161   12.3557 H   0  0  0  0  0  0
   -0.1956   26.1305    9.9484 H   0  0  0  0  0  0
    0.8898   23.9600   10.2714 H   0  0  0  0  0  0
    0.5312   22.6965   12.3697 H   0  0  0  0  0  0
   -0.8989   23.6268   14.1557 H   0  0  0  0  0  0
   -1.9655   25.8320   13.8550 H   0  0  0  0  0  0
   -1.6797   32.8370    9.0754 H   0  0  0  0  0  0
    0.0569   32.6013    9.1414 H   0  0  0  0  0  0
   -0.8527   31.9813    7.7761 H   0  0  0  0  0  0
  1  2  1  0  0  0
  1 35  1  0  0  0
  1 36  1  0  0  0
  1 37  1  0  0  0
  2  7  1  0  0  0
  2  3  2  0  0  0
  3  4  1  0  0  0
  3 38  1  0  0  0
  4  5  2  0  0  0
  4 39  1  0  0  0
  5  6  1  0  0  0
  5 40  1  0  0  0
  6  7  2  0  0  0
  6  8  1  0  0  0
  7 41  1  0  0  0
  8 33  1  0  0  0
  8  9  1  0  0  0
  8 11  1  0  0  0
  9 10  1  0  0  0
  9 42  1  0  0  0
  9 43  1  0  0  0
 10 44  1  0  0  0
 11 12  1  0  0  0
 11 45  1  0  0  0
 12 13  2  0  0  0
 12 14  1  0  0  0
 14 18  1  0  0  0
 14 15  2  0  0  0
 15 16  1  0  0  0
 15 46  1  0  0  0
 16 17  2  0  0  0
 16 19  1  0  0  0
 17 18  1  0  0  0
 17 47  1  0  0  0
 18 34  1  0  0  0
 19 24  1  0  0  0
 19 20  2  0  0  0
 20 21  1  0  0  0
 20 32  1  0  0  0
 21 22  2  0  0  0
 21 48  1  0  0  0
 22 23  1  0  0  0
 23 24  2  0  0  0
 23 25  1  0  0  0
 25 26  1  0  0  0
 25 49  1  0  0  0
 26 31  1  0  0  0
 26 27  2  0  0  0
 27 28  1  0  0  0
 27 50  1  0  0  0
 28 29  2  0  0  0
 28 51  1  0  0  0
 29 30  1  0  0  0
 29 52  1  0  0  0
 30 31  2  0  0  0
 30 53  1  0  0  0
 31 54  1  0  0  0
 32 55  1  0  0  0
 32 56  1  0  0  0
 32 57  1  0  0  0
M  END
> <s_m_entry_id>
34790

> <s_m_entry_name>
ligand_docking-pose.287

> <s_m_Source_Path>
/home/csk/Desktop/cluster/DUD-E-result/cdk2

> <s_m_Source_File>
ligand_docking-pose.sdf

> <i_m_Source_File_Index>
287

> <i_lp_mmshare_version>
53161

> <r_lp_tautomer_probability>
0.999999987636

> <s_lp_Force_Field>
OPLS_2005

> <r_lp_Energy>
16.493275

> <b_lp_Chiralities_Consistent>
1

> <s_lp_Variant>
574810-1

> <s_i_glide_gridfile>
glide-grid_1h00

> <i_i_glide_lignum>
710

> <i_i_glide_rotatable_bonds>
9

> <r_i_docking_score>
-7.35839590879348

> <r_i_glide_ligand_efficiency>
-0.229949872149796

> <r_i_glide_ligand_efficiency_sa>
-0.730045337057698

> <r_i_glide_ligand_efficiency_ln>
-1.64774542627571

> <r_i_glide_gscore>
-7.35839590879348

> <r_i_glide_lipo>
-3.10844079721654

> <r_i_glide_hbond>
-0.32

> <r_i_glide_metal>
0

> <r_i_glide_rewards>
-1.99901209521704

> <r_i_glide_evdw>
-45.8090133666992

> <r_i_glide_ecoul>
-3.39769411087036

> <r_i_glide_erotb>
0.869161768605612

> <r_i_glide_esite>
0

> <r_i_glide_emodel>
-68.1151812637222

> <r_i_glide_energy>
-49.2067074775696

> <r_i_glide_einternal>
6.30869626998901

> <i_i_glide_confnum>
73

> <i_i_glide_posenum>
386

> <r_i_glide_eff_state_penalty>
0

> <i_f3d_flags>
0

> <s_user_duplicate_titles>
574810

> <s_m_subgroup_title>
dock_pv

> <s_m_subgroupid>
dock_pv1

> <b_m_subgroup_collapsed>
0

$$$$
307244
                    3D
 Schrodinger Suite 2021-1.
 38 40  0  0  1  0            999 V2000
    2.1812   27.4397   10.4897 C   0  0  0  0  0  0
    2.3247   28.4283    9.3510 C   0  0  0  0  0  0
    3.4674   28.5496    8.5777 C   0  0  0  0  0  0
    3.3040   29.5716    7.6971 N   0  0  0  0  0  0
    2.0736   30.1395    7.8644 C   0  0  0  0  0  0
    1.4226   29.4520    8.9101 C   0  0  0  0  0  0
    0.0320   29.7394    9.4350 C   0  0  0  0  0  0
   -0.7395   30.8601    9.0838 C   0  0  0  0  0  0
   -1.9929   31.0012    9.6813 C   0  0  0  0  0  0
   -2.4784   30.0984   10.5670 N   0  0  0  0  0  0
   -1.6884   29.0355   10.8455 C   0  0  0  0  0  0
   -0.4587   28.8243   10.3119 N   0  0  0  0  0  0
   -2.2006   28.1232   11.7759 N   0  0  0  0  0  0
   -1.8324   26.8014   12.0757 C   0  0  0  0  0  0
   -1.1215   25.9887   11.1841 C   0  0  0  0  0  0
   -0.7627   24.6912   11.5412 C   0  0  0  0  0  0
   -1.1412   24.1813   12.7815 C   0  0  0  0  0  0
   -1.8909   24.9608   13.6751 C   0  0  0  0  0  0
   -2.2223   26.2738   13.3072 C   0  0  0  0  0  0
   -2.3308   24.4108   14.9760 N   0  3  0  0  0  0
   -3.1422   25.0495   15.6425 O   0  5  0  0  0  0
   -1.8623   23.3401   15.3530 O   0  0  0  0  0  0
    1.6912   31.3015    6.9756 C   0  0  0  0  0  0
    3.9993   29.8970    7.0351 H   0  0  0  0  0  0
    1.5614   26.5890   10.2122 H   0  0  0  0  0  0
    3.1456   27.0607   10.8273 H   0  0  0  0  0  0
    1.7278   27.8901   11.3733 H   0  0  0  0  0  0
    4.3968   27.9982    8.6046 H   0  0  0  0  0  0
   -0.4009   31.6148    8.3987 H   0  0  0  0  0  0
   -2.6237   31.8512    9.4640 H   0  0  0  0  0  0
   -2.9798   28.4899   12.3107 H   0  0  0  0  0  0
   -0.8411   26.3502   10.2069 H   0  0  0  0  0  0
   -0.1992   24.0809   10.8512 H   0  0  0  0  0  0
   -0.8638   23.1678   13.0367 H   0  0  0  0  0  0
   -2.7830   26.9025   13.9857 H   0  0  0  0  0  0
    1.4515   32.2076    7.5300 H   0  0  0  0  0  0
    2.4580   31.5786    6.2614 H   0  0  0  0  0  0
    0.8579   31.0380    6.3497 H   0  0  0  0  0  0
  1  2  1  0  0  0
  1 25  1  0  0  0
  1 26  1  0  0  0
  1 27  1  0  0  0
  2  6  1  0  0  0
  2  3  2  0  0  0
  3  4  1  0  0  0
  3 28  1  0  0  0
  4 24  1  0  0  0
  4  5  1  0  0  0
  5  6  2  0  0  0
  5 23  1  0  0  0
  6  7  1  0  0  0
  7 12  1  0  0  0
  7  8  2  0  0  0
  8  9  1  0  0  0
  8 29  1  0  0  0
  9 10  2  0  0  0
  9 30  1  0  0  0
 10 11  1  0  0  0
 11 12  2  0  0  0
 11 13  1  0  0  0
 13 14  1  0  0  0
 13 31  1  0  0  0
 14 19  1  0  0  0
 14 15  2  0  0  0
 15 16  1  0  0  0
 15 32  1  0  0  0
 16 17  2  0  0  0
 16 33  1  0  0  0
 17 18  1  0  0  0
 17 34  1  0  0  0
 18 19  2  0  0  0
 18 20  1  0  0  0
 19 35  1  0  0  0
 20 21  1  0  0  0
 20 22  2  0  0  0
 23 36  1  0  0  0
 23 37  1  0  0  0
 23 38  1  0  0  0
M  CHG  2  20   1  21  -1
M  END
> <s_m_entry_id>
34791

> <s_m_entry_name>
ligand_docking-pose.288

> <s_m_Source_Path>
/home/csk/Desktop/cluster/DUD-E-result/cdk2

> <s_m_Source_File>
ligand_docking-pose.sdf

> <i_m_Source_File_Index>
288

> <i_lp_mmshare_version>
53161

> <r_lp_tautomer_probability>
0.999999987636

> <s_lp_Force_Field>
OPLS_2005

> <r_lp_Energy>
7.959666

> <b_lp_Chiralities_Consistent>
1

> <s_lp_Variant>
307244-1

> <s_i_glide_gridfile>
glide-grid_1h00

> <i_i_glide_lignum>
813

> <i_i_glide_rotatable_bonds>
4

> <r_i_docking_score>
-7.35524291048459

> <r_i_glide_ligand_efficiency>
-0.319793170021069

> <r_i_glide_ligand_efficiency_sa>
-0.909449235654451

> <r_i_glide_ligand_efficiency_ln>
-1.77856442941053

> <r_i_glide_gscore>
-7.35524291048459

> <r_i_glide_lipo>
-2.4793838251535

> <r_i_glide_hbond>
-0.35998546427021

> <r_i_glide_metal>
0

> <r_i_glide_rewards>
-2.32668671335572

> <r_i_glide_evdw>
-36.2101402282715

> <r_i_glide_ecoul>
-5.25414896011353

> <r_i_glide_erotb>
0.580510344374651

> <r_i_glide_esite>
-0.171067896649203

> <r_i_glide_emodel>
-60.3084137973351

> <r_i_glide_energy>
-41.464289188385

> <r_i_glide_einternal>
1.40571308135986

> <i_i_glide_confnum>
4

> <i_i_glide_posenum>
274

> <r_i_glide_eff_state_penalty>
0

> <i_f3d_flags>
0

> <s_user_duplicate_titles>
307244

> <s_m_subgroup_title>
dock_pv

> <s_m_subgroupid>
dock_pv1

> <b_m_subgroup_collapsed>
0

$$$$
137647
                    3D
 Schrodinger Suite 2021-1.
 38 40  0  0  1  0            999 V2000
    1.6454   27.2648   10.5759 C   0  0  0  0  0  0
    0.1400   27.1084   10.7710 C   0  0  0  0  0  0
   -0.4557   26.0355   11.1277 N   0  0  0  0  0  0
    0.1615   24.8169   11.4243 C   0  0  0  0  0  0
    1.0718   24.1701   10.5761 C   0  0  0  0  0  0
    1.5877   22.9193   10.9060 C   0  0  0  0  0  0
    1.1878   22.2962   12.0893 C   0  0  0  0  0  0
    0.2557   22.9093   12.9237 C   0  0  0  0  0  0
   -0.2571   24.1549   12.5805 C   0  0  0  0  0  0
    1.8528   20.6972   12.5316 S   0  0  0  0  0  0
    3.2035   20.6367   11.9618 O   0  0  0  0  0  0
    1.6239   20.5010   13.9672 O   0  0  0  0  0  0
    0.8587   19.5564   11.6637 N   0  0  0  0  0  0
   -0.6825   28.3162   10.6210 C   0  0  0  0  0  0
   -0.4523   29.4800    9.7829 C   0  0  0  0  0  0
    0.5205   29.8281    8.8242 C   0  0  0  0  0  0
    0.4576   31.0597    8.1760 C   0  0  0  0  0  0
   -0.5236   31.9868    8.5256 C   0  0  0  0  0  0
   -1.5227   31.6981    9.4569 C   0  0  0  0  0  0
   -1.4838   30.4352   10.0590 C   0  0  0  0  0  0
   -2.3264   29.8513   10.9759 N   0  0  0  0  0  0
   -1.8759   28.5980   11.2806 C   0  0  0  0  0  0
   -2.6161   27.8652   12.1753 O   0  0  0  0  0  0
    1.6490   31.4502    6.9764 Cl  0  0  0  0  0  0
   -3.1283   30.2605   11.4476 H   0  0  0  0  0  0
    1.9799   28.2516   10.8911 H   0  0  0  0  0  0
    2.2148   26.5708   11.1934 H   0  0  0  0  0  0
    1.9303   27.1191    9.5353 H   0  0  0  0  0  0
    1.3656   24.6306    9.6440 H   0  0  0  0  0  0
    2.2791   22.4338   10.2324 H   0  0  0  0  0  0
   -0.0780   22.4237   13.8295 H   0  0  0  0  0  0
   -0.9894   24.6219   13.2231 H   0  0  0  0  0  0
    1.3725   18.8771   11.0989 H   0  0  0  0  0  0
    0.0976   19.1295   12.2076 H   0  0  0  0  0  0
    1.3140   29.1423    8.5746 H   0  0  0  0  0  0
   -0.5239   32.9513    8.0364 H   0  0  0  0  0  0
   -2.2930   32.4199    9.6902 H   0  0  0  0  0  0
   -2.9336   28.3915   12.9250 H   0  0  0  0  0  0
  1  2  1  0  0  0
  1 26  1  0  0  0
  1 27  1  0  0  0
  1 28  1  0  0  0
  2  3  2  0  0  0
  2 14  1  0  0  0
  3  4  1  0  0  0
  4  9  1  0  0  0
  4  5  2  0  0  0
  5  6  1  0  0  0
  5 29  1  0  0  0
  6  7  2  0  0  0
  6 30  1  0  0  0
  7  8  1  0  0  0
  7 10  1  0  0  0
  8  9  2  0  0  0
  8 31  1  0  0  0
  9 32  1  0  0  0
 10 11  2  0  0  0
 10 12  2  0  0  0
 10 13  1  0  0  0
 13 33  1  0  0  0
 13 34  1  0  0  0
 14 22  2  0  0  0
 14 15  1  0  0  0
 15 20  2  0  0  0
 15 16  1  0  0  0
 16 17  2  0  0  0
 16 35  1  0  0  0
 17 18  1  0  0  0
 17 24  1  0  0  0
 18 19  2  0  0  0
 18 36  1  0  0  0
 19 20  1  0  0  0
 19 37  1  0  0  0
 20 21  1  0  0  0
 21 25  1  0  0  0
 21 22  1  0  0  0
 22 23  1  0  0  0
 23 38  1  0  0  0
M  END
> <s_m_entry_id>
34794

> <s_m_entry_name>
ligand_docking-pose.291

> <s_m_Source_Path>
/home/csk/Desktop/cluster/DUD-E-result/cdk2

> <s_m_Source_File>
ligand_docking-pose.sdf

> <i_m_Source_File_Index>
291

> <i_lp_mmshare_version>
53161

> <r_lp_tautomer_probability>
0.499900269896156

> <s_lp_Force_Field>
OPLS_2005

> <r_lp_Energy>
25.477923

> <b_lp_Chiralities_Consistent>
1

> <s_lp_Variant>
137647-1

> <s_i_glide_gridfile>
glide-grid_1h00

> <i_i_glide_lignum>
1333

> <i_i_glide_rotatable_bonds>
4

> <r_i_docking_score>
-7.34044277125074

> <r_i_glide_ligand_efficiency>
-0.305851782135448

> <r_i_glide_ligand_efficiency_sa>
-0.882229201790618

> <r_i_glide_ligand_efficiency_ln>
-1.75690478613088

> <r_i_glide_gscore>
-7.34044277125074

> <r_i_glide_lipo>
-2.39589456750103

> <r_i_glide_hbond>
-0.377474901914252

> <r_i_glide_metal>
0

> <r_i_glide_rewards>
-1.10562235011732

> <r_i_glide_evdw>
-35.9708404541016

> <r_i_glide_ecoul>
-11.0264358520508

> <r_i_glide_erotb>
0.290376457158536

> <r_i_glide_esite>
-0.299320008363983

> <r_i_glide_emodel>
-68.2084829104603

> <r_i_glide_energy>
-46.9972763061523

> <r_i_glide_einternal>
3.96534633636475

> <i_i_glide_confnum>
6

> <i_i_glide_posenum>
162

> <r_i_glide_eff_state_penalty>
0

> <i_f3d_flags>
0

> <s_user_duplicate_titles>
137647

> <s_m_subgroup_title>
dock_pv

> <s_m_subgroupid>
dock_pv1

> <b_m_subgroup_collapsed>
0

$$$$
301250
                    3D
 Schrodinger Suite 2021-1.
 38 41  0  0  1  0            999 V2000
   -3.3171   25.4791   14.0136 C   0  0  0  0  0  0
   -1.6390   25.9944   14.6323 S   0  0  0  0  0  0
   -0.9042   24.7712   14.9758 O   0  0  0  0  0  0
   -1.8434   27.0515   15.6311 O   0  0  0  0  0  0
   -0.8398   26.6864   13.1884 C   0  0  0  0  0  0
   -0.7722   28.0683   13.0190 C   0  0  0  0  0  0
   -0.0457   28.6025   11.9639 C   0  0  0  0  0  0
    0.5631   27.7553   11.0341 C   0  0  0  0  0  0
    0.4601   26.3667   11.1789 C   0  0  0  0  0  0
   -0.2252   25.8335   12.2673 C   0  0  0  0  0  0
    1.2533   28.3056    9.9343 N   0  0  0  0  0  0
    0.9731   29.4227    9.1656 C   0  0  0  0  0  0
    2.0580   29.5944    8.2872 C   0  0  0  0  0  0
    2.0352   30.6573    7.3729 C   0  0  0  0  0  0
    1.0056   31.6070    7.3773 C   0  0  0  0  0  0
   -0.0539   31.4219    8.2733 C   0  0  0  0  0  0
   -0.1259   30.3166    9.1335 C   0  0  0  0  0  0
   -1.3891   30.4204    9.7939 C   0  0  0  0  0  0
   -1.9863   31.5352    9.4589 N   0  0  0  0  0  0
   -1.1828   32.1613    8.5763 N   0  0  0  0  0  0
    2.9732   28.5344    8.5944 C   0  0  0  0  0  0
    2.4597   27.8067    9.5719 N   0  0  0  0  0  0
    4.2152   28.2219    7.9231 C   0  0  0  0  0  0
    4.4711   28.6509    6.8034 O   0  0  0  0  0  0
    5.0835   27.4518    8.5758 N   0  0  0  0  0  0
   -1.4551   33.0516    8.1856 H   0  0  0  0  0  0
   -3.9342   25.2078   14.8666 H   0  0  0  0  0  0
   -3.7619   26.3030   13.4575 H   0  0  0  0  0  0
   -3.1438   24.6225   13.3759 H   0  0  0  0  0  0
   -1.2506   28.7309   13.7281 H   0  0  0  0  0  0
    0.0517   29.6761   11.8851 H   0  0  0  0  0  0
    0.9219   25.7017   10.4628 H   0  0  0  0  0  0
   -0.2711   24.7615   12.3964 H   0  0  0  0  0  0
    2.8517   30.7756    6.6800 H   0  0  0  0  0  0
    1.0376   32.4565    6.7131 H   0  0  0  0  0  0
   -1.8555   29.7502   10.4985 H   0  0  0  0  0  0
    4.8921   27.0768    9.5018 H   0  0  0  0  0  0
    5.9444   27.2096    8.1117 H   0  0  0  0  0  0
  1  2  1  0  0  0
  1 27  1  0  0  0
  1 28  1  0  0  0
  1 29  1  0  0  0
  2  3  2  0  0  0
  2  4  2  0  0  0
  2  5  1  0  0  0
  5 10  1  0  0  0
  5  6  2  0  0  0
  6  7  1  0  0  0
  6 30  1  0  0  0
  7  8  2  0  0  0
  7 31  1  0  0  0
  8  9  1  0  0  0
  8 11  1  0  0  0
  9 10  2  0  0  0
  9 32  1  0  0  0
 10 33  1  0  0  0
 11 22  1  0  0  0
 11 12  1  0  0  0
 12 17  2  0  0  0
 12 13  1  0  0  0
 13 14  2  0  0  0
 13 21  1  0  0  0
 14 15  1  0  0  0
 14 34  1  0  0  0
 15 16  2  0  0  0
 15 35  1  0  0  0
 16 20  1  0  0  0
 16 17  1  0  0  0
 17 18  1  0  0  0
 18 19  2  0  0  0
 18 36  1  0  0  0
 19 20  1  0  0  0
 20 26  1  0  0  0
 21 22  2  0  0  0
 21 23  1  0  0  0
 23 24  2  0  0  0
 23 25  1  0  0  0
 25 37  1  0  0  0
 25 38  1  0  0  0
M  END
> <s_m_entry_id>
34797

> <s_m_entry_name>
ligand_docking-pose.294

> <s_m_Source_Path>
/home/csk/Desktop/cluster/DUD-E-result/cdk2

> <s_m_Source_File>
ligand_docking-pose.sdf

> <i_m_Source_File_Index>
294

> <i_lp_mmshare_version>
53161

> <r_lp_tautomer_probability>
1

> <s_lp_Force_Field>
OPLS_2005

> <r_lp_Energy>
56.896626

> <b_lp_Chiralities_Consistent>
1

> <s_lp_Variant>
301250-1

> <s_i_glide_gridfile>
glide-grid_1h00

> <i_i_glide_lignum>
1760

> <i_i_glide_rotatable_bonds>
3

> <r_i_docking_score>
-7.33549458068749

> <r_i_glide_ligand_efficiency>
-0.2934197832275

> <r_i_glide_ligand_efficiency_sa>
-0.857964649979223

> <r_i_glide_ligand_efficiency_ln>
-1.73873204265657

> <r_i_glide_gscore>
-7.33549458068749

> <r_i_glide_lipo>
-2.70401311281085

> <r_i_glide_hbond>
-0.15288609413637

> <r_i_glide_metal>
0

> <r_i_glide_rewards>
-1.71280135437755

> <r_i_glide_evdw>
-39.6731033325195

> <r_i_glide_ecoul>
-5.12189149856567

> <r_i_glide_erotb>
0.151396659825487

> <r_i_glide_esite>
-0.165251787777377

> <r_i_glide_emodel>
-64.3995614278697

> <r_i_glide_energy>
-44.7949948310852

> <r_i_glide_einternal>
1.02684593200684

> <i_i_glide_confnum>
4

> <i_i_glide_posenum>
89

> <r_i_glide_eff_state_penalty>
0

> <i_f3d_flags>
0

> <s_user_duplicate_titles>
301250

> <s_m_subgroup_title>
dock_pv

> <s_m_subgroupid>
dock_pv1

> <b_m_subgroup_collapsed>
0

$$$$
312618
                    3D
 Schrodinger Suite 2021-1.
 45 48  0  0  1  0            999 V2000
   -1.5292   25.2197   13.7258 C   0  0  0  0  0  0
   -2.3936   26.1817   13.1333 O   0  0  0  0  0  0
   -1.8508   27.1634   12.3292 C   0  0  0  0  0  0
   -0.4764   27.3316   12.1043 C   0  0  0  0  0  0
   -0.0333   28.3298   11.2386 C   0  0  0  0  0  0
   -0.9854   29.1516   10.6118 C   0  0  0  0  0  0
   -1.0370   30.1727    9.6270 C   0  0  0  0  0  0
   -2.3683   30.5921    9.6513 C   0  0  0  0  0  0
   -3.1421   29.8520   10.4073 N   0  0  0  0  0  0
   -2.3186   28.9472   10.9879 N   0  0  0  0  0  0
   -2.7929   27.9692   11.7760 N   0  0  0  0  0  0
    0.0509   30.6739    8.7592 C   0  0  0  0  0  0
   -0.0135   31.9444    8.1879 C   0  0  0  0  0  0
    1.0462   32.3149    7.3760 C   0  0  0  0  0  0
    2.0580   31.4645    7.0691 N   0  0  0  0  0  0
    2.0925   30.2760    7.7329 C   0  0  0  0  0  0
    1.1168   29.8493    8.5760 N   0  0  0  0  0  0
    3.2636   29.5224    7.5415 N   0  0  0  0  0  0
    3.6580   28.2197    7.8988 C   0  0  0  0  0  0
    3.0629   27.4977    8.9431 C   0  0  0  0  0  0
    3.2484   26.1146    9.0522 C   0  0  0  0  0  0
    4.1377   25.4822    8.1760 C   0  0  0  0  0  0
    4.8535   26.2037    7.2234 C   0  0  0  0  0  0
    4.6066   27.5814    7.0907 C   0  0  0  0  0  0
    5.7158   25.4646    6.4388 O   0  0  0  0  0  0
    6.5856   26.1227    5.5280 C   0  0  0  0  0  0
    2.4506   25.3140   10.0942 C   0  0  0  0  0  0
    1.1583   25.2965    9.7760 F   0  0  0  0  0  0
    2.8580   24.0462   10.1759 F   0  0  0  0  0  0
    2.5459   25.8520   11.3073 F   0  0  0  0  0  0
   -2.1241   24.5033   14.2918 H   0  0  0  0  0  0
   -0.9725   24.6623   12.9706 H   0  0  0  0  0  0
   -0.8267   25.6866   14.4181 H   0  0  0  0  0  0
    0.2593   26.6979   12.5760 H   0  0  0  0  0  0
    1.0202   28.4644   11.0654 H   0  0  0  0  0  0
   -2.7901   31.3866    9.0527 H   0  0  0  0  0  0
   -0.8268   32.6262    8.3872 H   0  0  0  0  0  0
    1.0847   33.3149    6.9760 H   0  0  0  0  0  0
    3.9117   30.0064    6.9298 H   0  0  0  0  0  0
    2.3689   27.9793    9.6022 H   0  0  0  0  0  0
    4.2944   24.4159    8.2386 H   0  0  0  0  0  0
    5.0929   28.1484    6.3117 H   0  0  0  0  0  0
    7.0793   25.3746    4.9079 H   0  0  0  0  0  0
    7.3664   26.6520    6.0715 H   0  0  0  0  0  0
    6.0653   26.8051    4.8548 H   0  0  0  0  0  0
  1  2  1  0  0  0
  1 31  1  0  0  0
  1 32  1  0  0  0
  1 33  1  0  0  0
  2  3  1  0  0  0
  3 11  2  0  0  0
  3  4  1  0  0  0
  4  5  2  0  0  0
  4 34  1  0  0  0
  5  6  1  0  0  0
  5 35  1  0  0  0
  6 10  1  0  0  0
  6  7  2  0  0  0
  7  8  1  0  0  0
  7 12  1  0  0  0
  8  9  2  0  0  0
  8 36  1  0  0  0
  9 10  1  0  0  0
 10 11  1  0  0  0
 12 17  1  0  0  0
 12 13  2  0  0  0
 13 14  1  0  0  0
 13 37  1  0  0  0
 14 15  2  0  0  0
 14 38  1  0  0  0
 15 16  1  0  0  0
 16 17  2  0  0  0
 16 18  1  0  0  0
 18 19  1  0  0  0
 18 39  1  0  0  0
 19 24  1  0  0  0
 19 20  2  0  0  0
 20 21  1  0  0  0
 20 40  1  0  0  0
 21 22  2  0  0  0
 21 27  1  0  0  0
 22 23  1  0  0  0
 22 41  1  0  0  0
 23 24  2  0  0  0
 23 25  1  0  0  0
 24 42  1  0  0  0
 25 26  1  0  0  0
 26 43  1  0  0  0
 26 44  1  0  0  0
 26 45  1  0  0  0
 27 28  1  0  0  0
 27 29  1  0  0  0
 27 30  1  0  0  0
M  END
> <s_m_entry_id>
34799

> <s_m_entry_name>
ligand_docking-pose.296

> <s_m_Source_Path>
/home/csk/Desktop/cluster/DUD-E-result/cdk2

> <s_m_Source_File>
ligand_docking-pose.sdf

> <i_m_Source_File_Index>
296

> <i_lp_mmshare_version>
53161

> <r_lp_tautomer_probability>
0.999999987636

> <s_lp_Force_Field>
OPLS_2005

> <r_lp_Energy>
20.329322

> <b_lp_Chiralities_Consistent>
1

> <s_lp_Variant>
312618-1

> <s_i_glide_gridfile>
glide-grid_1h00

> <i_i_glide_lignum>
1607

> <i_i_glide_rotatable_bonds>
6

> <r_i_docking_score>
-7.31882721054087

> <r_i_glide_ligand_efficiency>
-0.243960907018029

> <r_i_glide_ligand_efficiency_sa>
-0.758043259608988

> <r_i_glide_ligand_efficiency_ln>
-1.66291728724442

> <r_i_glide_gscore>
-7.31882721054087

> <r_i_glide_lipo>
-2.4881907316506

> <r_i_glide_hbond>
-0.450307891509336

> <r_i_glide_metal>
0

> <r_i_glide_rewards>
-2.14881201603903

> <r_i_glide_evdw>
-35.634651184082

> <r_i_glide_ecoul>
-3.60612177848816

> <r_i_glide_erotb>
0.239315140898309

> <r_i_glide_esite>
-0.148180886262883

> <r_i_glide_emodel>
-56.7752822268246

> <r_i_glide_energy>
-39.2407729625702

> <r_i_glide_einternal>
5.8803129196167

> <i_i_glide_confnum>
1

> <i_i_glide_posenum>
12

> <r_i_glide_eff_state_penalty>
0

> <i_f3d_flags>
0

> <s_user_duplicate_titles>
312618

> <s_m_subgroup_title>
dock_pv

> <s_m_subgroupid>
dock_pv1

> <b_m_subgroup_collapsed>
0

$$$$
211132
                    3D
 Schrodinger Suite 2021-1.
 42 43  0  0  1  0            999 V2000
    4.5375   26.1539    7.6682 C   0  0  0  0  0  0
    5.1872   27.5421    7.7955 C   0  0  0  0  0  0
    4.3344   28.6529    7.3705 N   0  0  0  0  0  0
    3.1879   29.0133    7.9668 C   0  0  0  0  0  0
    2.7750   28.4957    9.0033 O   0  0  0  0  0  0
    2.5551   29.9794    7.2745 N   0  0  0  0  0  0
    1.4121   30.6553    7.6721 C   0  0  0  0  0  0
    1.2432   31.9165    7.3760 N   0  0  0  0  0  0
    0.1653   32.4051    7.9620 C   0  0  0  0  0  0
   -0.6281   31.5334    8.7033 C   0  0  0  0  0  0
    0.0965   29.9507    8.5757 S   0  0  0  0  0  0
   -2.0594   31.9734    9.6514 S   0  0  0  0  0  0
   -2.7703   30.3655   10.1514 C   0  0  0  0  0  0
   -1.9309   29.5374   11.1122 C   0  0  0  0  0  0
   -0.7796   29.8514   11.6602 N   0  0  0  0  0  0
   -0.3523   28.7191   12.1737 C   0  0  0  0  0  0
   -1.3076   27.7209   12.0594 C   0  0  0  0  0  0
   -2.3403   28.2720   11.3759 O   0  0  0  0  0  0
   -1.4062   26.2508   12.4489 C   0  0  0  0  0  0
   -0.1662   25.8362   13.2728 C   0  0  0  0  0  0
   -1.4735   25.3874   11.1691 C   0  0  0  0  0  0
   -2.6762   26.0245   13.2981 C   0  0  0  0  0  0
    5.2373   25.3812    7.9835 H   0  0  0  0  0  0
    3.6561   26.0593    8.3054 H   0  0  0  0  0  0
    4.2471   25.9361    6.6405 H   0  0  0  0  0  0
    6.0770   27.5643    7.1679 H   0  0  0  0  0  0
    5.5238   27.7055    8.8222 H   0  0  0  0  0  0
    4.6810   29.2214    6.6115 H   0  0  0  0  0  0
    3.0594   30.3832    6.4982 H   0  0  0  0  0  0
   -0.0503   33.4519    7.8418 H   0  0  0  0  0  0
   -2.9728   29.8056    9.2424 H   0  0  0  0  0  0
   -3.7511   30.5664   10.5773 H   0  0  0  0  0  0
    0.6391   28.6315   12.5815 H   0  0  0  0  0  0
   -0.2196   24.7916   13.5846 H   0  0  0  0  0  0
   -0.0600   26.4424   14.1754 H   0  0  0  0  0  0
    0.7524   25.9643   12.6953 H   0  0  0  0  0  0
   -2.3468   25.6320   10.5635 H   0  0  0  0  0  0
   -0.5955   25.5387   10.5381 H   0  0  0  0  0  0
   -1.5296   24.3222   11.4021 H   0  0  0  0  0  0
   -3.5787   26.2851   12.7421 H   0  0  0  0  0  0
   -2.7726   24.9824   13.6081 H   0  0  0  0  0  0
   -2.6741   26.6422   14.1962 H   0  0  0  0  0  0
  1  2  1  0  0  0
  1 23  1  0  0  0
  1 24  1  0  0  0
  1 25  1  0  0  0
  2  3  1  0  0  0
  2 26  1  0  0  0
  2 27  1  0  0  0
  3  4  1  0  0  0
  3 28  1  0  0  0
  4  5  2  0  0  0
  4  6  1  0  0  0
  6  7  1  0  0  0
  6 29  1  0  0  0
  7 11  1  0  0  0
  7  8  2  0  0  0
  8  9  1  0  0  0
  9 10  2  0  0  0
  9 30  1  0  0  0
 10 11  1  0  0  0
 10 12  1  0  0  0
 12 13  1  0  0  0
 13 14  1  0  0  0
 13 31  1  0  0  0
 13 32  1  0  0  0
 14 18  1  0  0  0
 14 15  2  0  0  0
 15 16  1  0  0  0
 16 17  2  0  0  0
 16 33  1  0  0  0
 17 18  1  0  0  0
 17 19  1  0  0  0
 19 20  1  0  0  0
 19 21  1  0  0  0
 19 22  1  0  0  0
 20 34  1  0  0  0
 20 35  1  0  0  0
 20 36  1  0  0  0
 21 37  1  0  0  0
 21 38  1  0  0  0
 21 39  1  0  0  0
 22 40  1  0  0  0
 22 41  1  0  0  0
 22 42  1  0  0  0
M  END
> <s_m_entry_id>
34800

> <s_m_entry_name>
ligand_docking-pose.297

> <s_m_Source_Path>
/home/csk/Desktop/cluster/DUD-E-result/cdk2

> <s_m_Source_File>
ligand_docking-pose.sdf

> <i_m_Source_File_Index>
297

> <i_lp_mmshare_version>
53161

> <r_lp_tautomer_probability>
0.999000488399163

> <s_lp_Force_Field>
OPLS_2005

> <r_lp_Energy>
5.851068

> <b_lp_Chiralities_Consistent>
1

> <s_lp_Variant>
211132-1

> <s_i_glide_gridfile>
glide-grid_1h00

> <i_i_glide_lignum>
1353

> <i_i_glide_rotatable_bonds>
8

> <r_i_docking_score>
-7.31807256476034

> <r_i_glide_ligand_efficiency>
-0.332639662034561

> <r_i_glide_ligand_efficiency_sa>
-0.932069414996399

> <r_i_glide_ligand_efficiency_ln>
-1.78880386800997

> <r_i_glide_gscore>
-7.31807256476034

> <r_i_glide_lipo>
-2.50900110931855

> <r_i_glide_hbond>
-0.308870181663994

> <r_i_glide_metal>
0

> <r_i_glide_rewards>
-2.78517062217913

> <r_i_glide_evdw>
-41.2826728820801

> <r_i_glide_ecoul>
-4.20755481719971

> <r_i_glide_erotb>
0.980236215085296

> <r_i_glide_esite>
0

> <r_i_glide_emodel>
-63.4063189514296

> <r_i_glide_energy>
-45.4902276992798

> <r_i_glide_einternal>
3.01671290397644

> <i_i_glide_confnum>
32

> <i_i_glide_posenum>
150

> <r_i_glide_eff_state_penalty>
0

> <i_f3d_flags>
0

> <s_user_duplicate_titles>
211132

> <s_m_subgroup_title>
dock_pv

> <s_m_subgroupid>
dock_pv1

> <b_m_subgroup_collapsed>
0

$$$$
137619
                    3D
 Schrodinger Suite 2021-1.
 39 41  0  0  1  0            999 V2000
    5.2580   26.9197    5.7085 C   0  0  0  0  0  0
    6.3443   26.2386    5.1571 C   0  0  0  0  0  0
    7.3387   25.7267    5.9948 C   0  0  0  0  0  0
    7.2190   25.8520    7.3759 C   0  0  0  0  0  0
    6.1337   26.5365    7.9085 C   0  0  0  0  0  0
    5.1668   27.1226    7.0964 C   0  0  0  0  0  0
    4.0973   27.7696    7.7265 N   0  0  0  0  0  0
    3.6580   28.8790    7.2955 C   0  0  0  0  0  0
    2.4573   29.4824    7.8593 C   0  0  0  0  0  0
    1.6610   29.0520    8.9953 C   0  0  0  0  0  0
    1.7736   28.0136    9.9389 C   0  0  0  0  0  0
    0.8447   27.9208   10.9760 C   0  0  0  0  0  0
   -0.2156   28.8222   11.0892 C   0  0  0  0  0  0
   -0.4163   29.8182   10.1293 C   0  0  0  0  0  0
    0.5306   29.9228    9.1047 C   0  0  0  0  0  0
    0.6351   30.8272    8.0764 N   0  0  0  0  0  0
    1.7816   30.5886    7.3760 C   0  0  0  0  0  0
    2.0580   31.4393    6.3459 O   0  0  0  0  0  0
   -1.1326   28.7655   12.3055 C   0  0  0  0  0  0
   -2.2047   27.8546   12.1760 O   0  0  0  0  0  0
    8.7934   24.9400    5.3108 S   0  0  0  0  0  0
    9.3826   24.1102    6.3672 O   0  0  0  0  0  0
    8.4163   24.3766    4.0115 O   0  0  0  0  0  0
    9.9006   26.2520    5.0084 N   0  0  0  0  0  0
    0.0255   31.5994    7.8550 H   0  0  0  0  0  0
    4.4956   27.3108    5.0519 H   0  0  0  0  0  0
    6.4214   26.1288    4.0846 H   0  0  0  0  0  0
    7.9733   25.4520    8.0371 H   0  0  0  0  0  0
    6.0582   26.6520    8.9760 H   0  0  0  0  0  0
    4.0956   29.4334    6.4692 H   0  0  0  0  0  0
    2.6026   27.3215    9.8948 H   0  0  0  0  0  0
    0.9761   27.1549   11.7280 H   0  0  0  0  0  0
   -1.2424   30.5101   10.2114 H   0  0  0  0  0  0
    3.0134   31.4152    6.1759 H   0  0  0  0  0  0
   -0.5457   28.5066   13.1882 H   0  0  0  0  0  0
   -1.5417   29.7579   12.5046 H   0  0  0  0  0  0
   -2.8798   28.1150   12.8189 H   0  0  0  0  0  0
   10.7035   26.3079    5.6405 H   0  0  0  0  0  0
   10.1088   26.4321    4.0235 H   0  0  0  0  0  0
  1  6  1  0  0  0
  1  2  2  0  0  0
  1 26  1  0  0  0
  2  3  1  0  0  0
  2 27  1  0  0  0
  3  4  2  0  0  0
  3 21  1  0  0  0
  4  5  1  0  0  0
  4 28  1  0  0  0
  5  6  2  0  0  0
  5 29  1  0  0  0
  6  7  1  0  0  0
  7  8  2  0  0  0
  8  9  1  0  0  0
  8 30  1  0  0  0
  9 17  2  0  0  0
  9 10  1  0  0  0
 10 15  2  0  0  0
 10 11  1  0  0  0
 11 12  2  0  0  0
 11 31  1  0  0  0
 12 13  1  0  0  0
 12 32  1  0  0  0
 13 14  2  0  0  0
 13 19  1  0  0  0
 14 15  1  0  0  0
 14 33  1  0  0  0
 15 16  1  0  0  0
 16 25  1  0  0  0
 16 17  1  0  0  0
 17 18  1  0  0  0
 18 34  1  0  0  0
 19 20  1  0  0  0
 19 35  1  0  0  0
 19 36  1  0  0  0
 20 37  1  0  0  0
 21 22  2  0  0  0
 21 23  2  0  0  0
 21 24  1  0  0  0
 24 38  1  0  0  0
 24 39  1  0  0  0
M  END
> <s_m_entry_id>
34802

> <s_m_entry_name>
ligand_docking-pose.299

> <s_m_Source_Path>
/home/csk/Desktop/cluster/DUD-E-result/cdk2

> <s_m_Source_File>
ligand_docking-pose.sdf

> <i_m_Source_File_Index>
299

> <i_lp_mmshare_version>
53161

> <r_lp_tautomer_probability>
1

> <s_lp_Force_Field>
OPLS_2005

> <r_lp_Energy>
21.847684

> <b_lp_Chiralities_Consistent>
1

> <s_lp_Variant>
137619-1

> <s_i_glide_gridfile>
glide-grid_1h00

> <i_i_glide_lignum>
464

> <i_i_glide_rotatable_bonds>
6

> <r_i_docking_score>
-7.31627032499208

> <r_i_glide_ligand_efficiency>
-0.30484459687467

> <r_i_glide_ligand_efficiency_sa>
-0.879323976774543

> <r_i_glide_ligand_efficiency_ln>
-1.7511192105399

> <r_i_glide_gscore>
-7.31627032499208

> <r_i_glide_lipo>
-2.29188723179877

> <r_i_glide_hbond>
-0.673879542237342

> <r_i_glide_metal>
0

> <r_i_glide_rewards>
-1.75372741234693

> <r_i_glide_evdw>
-33.9223747253418

> <r_i_glide_ecoul>
-9.18463897705078

> <r_i_glide_erotb>
0.477829367843129

> <r_i_glide_esite>
-0.00079092362745578

> <r_i_glide_emodel>
-63.9256311787159

> <r_i_glide_energy>
-43.1070137023926

> <r_i_glide_einternal>
1.84274649620056

> <i_i_glide_confnum>
5

> <i_i_glide_posenum>
155

> <r_i_glide_eff_state_penalty>
0

> <i_f3d_flags>
0

> <s_user_duplicate_titles>
137619

> <s_m_subgroup_title>
dock_pv

> <s_m_subgroupid>
dock_pv1

> <b_m_subgroup_collapsed>
0

$$$$
311505
                    3D
 Schrodinger Suite 2021-1.
 40 43  0  0  1  0            999 V2000
    5.9375   22.6484    2.7896 C   0  0  0  0  0  0
    5.6668   23.7060    3.8320 C   0  0  0  0  0  0
    5.1376   23.4159    4.9900 N   0  0  0  0  0  0
    5.0017   24.5153    5.7756 C   0  0  0  0  0  0
    4.4932   24.5116    7.0811 C   0  0  0  0  0  0
    4.4529   25.7190    7.7789 C   0  0  0  0  0  0
    4.8606   26.9226    7.1904 C   0  0  0  0  0  0
    5.3375   26.9436    5.8779 C   0  0  0  0  0  0
    5.4307   25.7304    5.1884 C   0  0  0  0  0  0
    6.0548   25.3975    3.5839 S   0  0  0  0  0  0
    4.7987   28.2257    7.9827 C   0  0  0  0  0  0
    3.3618   28.6577    8.3068 C   0  0  0  0  0  0
    2.7543   28.0668    9.1993 O   0  0  0  0  0  0
    2.8785   29.6979    7.5920 N   0  0  0  0  0  0
    1.6822   30.3806    7.7829 C   0  0  0  0  0  0
    1.5401   31.5840    7.3028 N   0  0  0  0  0  0
    0.4579   32.1682    7.7749 C   0  0  0  0  0  0
   -0.4045   31.4195    8.5762 C   0  0  0  0  0  0
    0.3383   29.8521    8.7697 S   0  0  0  0  0  0
   -1.7198   31.8266    9.2096 C   0  0  0  0  0  0
   -2.2196   31.0878   10.4672 C   0  0  0  0  0  0
   -2.7786   32.4446   10.9296 C   0  0  0  0  0  0
   -1.6846   33.0926   10.0756 C   0  0  0  0  0  0
    6.9953   22.3872    2.7552 H   0  0  0  0  0  0
    5.6606   22.9909    1.7913 H   0  0  0  0  0  0
    5.3810   21.7290    2.9739 H   0  0  0  0  0  0
    4.1492   23.5969    7.5378 H   0  0  0  0  0  0
    4.0826   25.7262    8.7954 H   0  0  0  0  0  0
    5.6574   27.8644    5.4130 H   0  0  0  0  0  0
    5.3297   28.0891    8.9263 H   0  0  0  0  0  0
    5.3262   29.0224    7.4543 H   0  0  0  0  0  0
    3.5163   30.1308    6.9356 H   0  0  0  0  0  0
    0.2680   33.1918    7.4859 H   0  0  0  0  0  0
   -2.4893   31.8762    8.4349 H   0  0  0  0  0  0
   -2.9635   30.3075   10.3050 H   0  0  0  0  0  0
   -1.4312   30.7174   11.1265 H   0  0  0  0  0  0
   -3.7920   32.6412   10.5792 H   0  0  0  0  0  0
   -2.7421   32.6519   11.9985 H   0  0  0  0  0  0
   -0.7496   33.2242   10.6232 H   0  0  0  0  0  0
   -1.9430   34.0237    9.5778 H   0  0  0  0  0  0
  1  2  1  0  0  0
  1 24  1  0  0  0
  1 25  1  0  0  0
  1 26  1  0  0  0
  2 10  1  0  0  0
  2  3  2  0  0  0
  3  4  1  0  0  0
  4  9  2  0  0  0
  4  5  1  0  0  0
  5  6  2  0  0  0
  5 27  1  0  0  0
  6  7  1  0  0  0
  6 28  1  0  0  0
  7  8  2  0  0  0
  7 11  1  0  0  0
  8  9  1  0  0  0
  8 29  1  0  0  0
  9 10  1  0  0  0
 11 12  1  0  0  0
 11 30  1  0  0  0
 11 31  1  0  0  0
 12 13  2  0  0  0
 12 14  1  0  0  0
 14 15  1  0  0  0
 14 32  1  0  0  0
 15 19  1  0  0  0
 15 16  2  0  0  0
 16 17  1  0  0  0
 17 18  2  0  0  0
 17 33  1  0  0  0
 18 19  1  0  0  0
 18 20  1  0  0  0
 20 23  1  0  0  0
 20 21  1  0  0  0
 20 34  1  0  0  0
 21 22  1  0  0  0
 21 35  1  0  0  0
 21 36  1  0  0  0
 22 23  1  0  0  0
 22 37  1  0  0  0
 22 38  1  0  0  0
 23 39  1  0  0  0
 23 40  1  0  0  0
M  END
> <s_m_entry_id>
34808

> <s_m_entry_name>
ligand_docking-pose.305

> <s_m_Source_Path>
/home/csk/Desktop/cluster/DUD-E-result/cdk2

> <s_m_Source_File>
ligand_docking-pose.sdf

> <i_m_Source_File_Index>
305

> <i_lp_mmshare_version>
53161

> <r_lp_tautomer_probability>
0.999000488399163

> <s_lp_Force_Field>
OPLS_2005

> <r_lp_Energy>
9.874385

> <b_lp_Chiralities_Consistent>
1

> <s_lp_Variant>
311505-1

> <s_i_glide_gridfile>
glide-grid_1h00

> <i_i_glide_lignum>
849

> <i_i_glide_rotatable_bonds>
5

> <r_i_docking_score>
-7.29259862250768

> <r_i_glide_ligand_efficiency>
-0.317069505326421

> <r_i_glide_ligand_efficiency_sa>
-0.901703495573249

> <r_i_glide_ligand_efficiency_ln>
-1.76341647255072

> <r_i_glide_gscore>
-7.29259862250768

> <r_i_glide_lipo>
-2.54850161852189

> <r_i_glide_hbond>
-0.32

> <r_i_glide_metal>
0

> <r_i_glide_rewards>
-2.81080602676237

> <r_i_glide_evdw>
-35.2225494384766

> <r_i_glide_ecoul>
-4.37603569030762

> <r_i_glide_erotb>
0.804241848246553

> <r_i_glide_esite>
0

> <r_i_glide_emodel>
-54.5929637640499

> <r_i_glide_energy>
-39.5985851287842

> <r_i_glide_einternal>
4.13685178756714

> <i_i_glide_confnum>
7

> <i_i_glide_posenum>
131

> <r_i_glide_eff_state_penalty>
0

> <i_f3d_flags>
0

> <s_user_duplicate_titles>
311505

> <s_m_subgroup_title>
dock_pv

> <s_m_subgroupid>
dock_pv1

> <b_m_subgroup_collapsed>
0

$$$$
301016
                    3D
 Schrodinger Suite 2021-1.
 31 34  0  0  1  0            999 V2000
   -0.4725   25.7872   12.8552 C   0  0  0  0  0  0
    0.3566   24.8278   12.2710 C   0  0  0  0  0  0
    1.0223   25.1553   11.0898 C   0  0  0  0  0  0
    0.8880   26.3591   10.4817 N   0  0  0  0  0  0
    0.0700   27.2875   11.0452 C   0  0  0  0  0  0
   -0.6241   27.0318   12.2408 C   0  0  0  0  0  0
   -0.1052   28.5045   10.3365 N   0  0  0  0  0  0
    0.6947   29.1873    9.4245 C   0  0  0  0  0  0
   -0.0767   30.2520    8.9109 C   0  0  0  0  0  0
    0.4580   31.0605    7.8874 C   0  0  0  0  0  0
    1.7423   30.8437    7.3761 C   0  0  0  0  0  0
    2.5195   29.8446    7.9646 C   0  0  0  0  0  0
    2.0293   29.0027    8.9760 C   0  0  0  0  0  0
    3.1099   28.1293    9.3095 C   0  0  0  0  0  0
    4.1582   28.4022    8.5747 N   0  0  0  0  0  0
    3.8202   29.4303    7.7706 N   0  0  0  0  0  0
   -1.3079   30.2027    9.6546 C   0  0  0  0  0  0
   -1.2805   29.1621   10.4562 N   0  0  0  0  0  0
   -2.4602   31.0605    9.5947 C   0  0  0  0  0  0
   -3.6079   30.6523    9.7549 O   0  0  0  0  0  0
   -2.1847   32.3443    9.3752 N   0  0  0  0  0  0
    4.4873   29.8157    7.1140 H   0  0  0  0  0  0
   -0.9997   25.5691   13.7720 H   0  0  0  0  0  0
    0.4829   23.8570   12.7272 H   0  0  0  0  0  0
    1.6764   24.4471   10.6035 H   0  0  0  0  0  0
   -1.2768   27.7725   12.6823 H   0  0  0  0  0  0
   -0.1249   31.8716    7.4799 H   0  0  0  0  0  0
    2.1375   31.4666    6.5882 H   0  0  0  0  0  0
    3.1643   27.3526   10.0575 H   0  0  0  0  0  0
   -1.2288   32.6556    9.3026 H   0  0  0  0  0  0
   -2.9431   33.0104    9.3661 H   0  0  0  0  0  0
  1  6  1  0  0  0
  1  2  2  0  0  0
  1 23  1  0  0  0
  2  3  1  0  0  0
  2 24  1  0  0  0
  3  4  2  0  0  0
  3 25  1  0  0  0
  4  5  1  0  0  0
  5  6  2  0  0  0
  5  7  1  0  0  0
  6 26  1  0  0  0
  7 18  1  0  0  0
  7  8  1  0  0  0
  8 13  2  0  0  0
  8  9  1  0  0  0
  9 10  2  0  0  0
  9 17  1  0  0  0
 10 11  1  0  0  0
 10 27  1  0  0  0
 11 12  2  0  0  0
 11 28  1  0  0  0
 12 16  1  0  0  0
 12 13  1  0  0  0
 13 14  1  0  0  0
 14 15  2  0  0  0
 14 29  1  0  0  0
 15 16  1  0  0  0
 16 22  1  0  0  0
 17 18  2  0  0  0
 17 19  1  0  0  0
 19 20  2  0  0  0
 19 21  1  0  0  0
 21 30  1  0  0  0
 21 31  1  0  0  0
M  END
> <s_m_entry_id>
34812

> <s_m_entry_name>
ligand_docking-pose.309

> <s_m_Source_Path>
/home/csk/Desktop/cluster/DUD-E-result/cdk2

> <s_m_Source_File>
ligand_docking-pose.sdf

> <i_m_Source_File_Index>
309

> <i_lp_mmshare_version>
53161

> <r_lp_tautomer_probability>
1

> <s_lp_Force_Field>
OPLS_2005

> <r_lp_Energy>
56.953339

> <b_lp_Chiralities_Consistent>
1

> <s_lp_Variant>
301016-1

> <s_i_glide_gridfile>
glide-grid_1h00

> <i_i_glide_lignum>
576

> <i_i_glide_rotatable_bonds>
2

> <r_i_docking_score>
-7.28693146600271

> <r_i_glide_ligand_efficiency>
-0.34699673647632

> <r_i_glide_ligand_efficiency_sa>
-0.957337684418321

> <r_i_glide_ligand_efficiency_ln>
-1.8016790803377

> <r_i_glide_gscore>
-7.28693146600271

> <r_i_glide_lipo>
-2.18803182598031

> <r_i_glide_hbond>
-0.243414034169966

> <r_i_glide_metal>
0

> <r_i_glide_rewards>
-2.82993545185238

> <r_i_glide_evdw>
-37.6621894836426

> <r_i_glide_ecoul>
-2.50131177902222

> <r_i_glide_erotb>
0.2327560870354

> <r_i_glide_esite>
0

> <r_i_glide_emodel>
-56.6223477239575

> <r_i_glide_energy>
-40.1635012626648

> <r_i_glide_einternal>
3.51753258705139

> <i_i_glide_confnum>
1

> <i_i_glide_posenum>
314

> <r_i_glide_eff_state_penalty>
0

> <i_f3d_flags>
0

> <s_user_duplicate_titles>
301016

> <s_m_subgroup_title>
dock_pv

> <s_m_subgroupid>
dock_pv1

> <b_m_subgroup_collapsed>
0

$$$$
316323
                    3D
 Schrodinger Suite 2021-1.
 34 36  0  0  1  0            999 V2000
    5.0018   27.8309    7.9504 C   0  0  0  0  0  0
    4.0763   29.0551    7.8294 C   0  0  0  0  0  0
    2.7583   28.9467    8.5865 C   0  0  0  0  0  0
    1.6141   29.8012    8.4876 C   0  0  0  0  0  0
    0.6675   29.2356    9.3760 C   0  0  0  0  0  0
   -0.5750   29.6923    9.5641 N   0  0  0  0  0  0
   -0.8470   30.8433    8.8999 C   0  0  0  0  0  0
   -0.0117   31.4849    8.0476 N   0  0  0  0  0  0
    1.2009   30.9458    7.7754 C   0  0  0  0  0  0
    2.0580   31.4807    6.8533 O   0  0  0  0  0  0
   -2.1779   31.4547    9.0729 C   0  0  0  0  0  0
   -3.2033   30.9430    9.7774 C   0  0  0  0  0  0
    1.2755   28.1384    9.9738 N   0  0  0  0  0  0
    2.5351   28.0100    9.4877 N   0  0  0  0  0  0
    0.7600   27.2591   10.9751 C   0  0  0  0  0  0
    0.8696   25.8530   10.8434 C   0  0  0  0  0  0
    0.2611   25.0096   11.7729 C   0  0  0  0  0  0
   -0.4632   25.5308   12.8393 C   0  0  0  0  0  0
   -0.5617   26.9069   12.9966 C   0  0  0  0  0  0
    0.0580   27.7709   12.0947 C   0  0  0  0  0  0
    0.0351   29.4513   12.5150 Cl  0  0  0  0  0  0
   -1.2079   24.4706   13.9796 Cl  0  0  0  0  0  0
    1.7361   25.0715    9.5633 Cl  0  0  0  0  0  0
    5.8844   27.9439    7.3211 H   0  0  0  0  0  0
    5.3403   27.6890    8.9759 H   0  0  0  0  0  0
    4.4921   26.9173    7.6401 H   0  0  0  0  0  0
    3.8716   29.2074    6.7697 H   0  0  0  0  0  0
    4.6222   29.9403    8.1569 H   0  0  0  0  0  0
    2.9192   31.0519    6.8069 H   0  0  0  0  0  0
   -2.3262   32.4036    8.5765 H   0  0  0  0  0  0
   -4.1470   31.4633    9.8481 H   0  0  0  0  0  0
   -3.1218   30.0009   10.2994 H   0  0  0  0  0  0
    0.3501   23.9390   11.6641 H   0  0  0  0  0  0
   -1.0959   27.3118   13.8438 H   0  0  0  0  0  0
  1  2  1  0  0  0
  1 24  1  0  0  0
  1 25  1  0  0  0
  1 26  1  0  0  0
  2  3  1  0  0  0
  2 27  1  0  0  0
  2 28  1  0  0  0
  3 14  2  0  0  0
  3  4  1  0  0  0
  4  9  2  0  0  0
  4  5  1  0  0  0
  5  6  2  0  0  0
  5 13  1  0  0  0
  6  7  1  0  0  0
  7  8  2  0  0  0
  7 11  1  0  0  0
  8  9  1  0  0  0
  9 10  1  0  0  0
 10 29  1  0  0  0
 11 12  2  0  0  0
 11 30  1  0  0  0
 12 31  1  0  0  0
 12 32  1  0  0  0
 13 14  1  0  0  0
 13 15  1  0  0  0
 15 20  1  0  0  0
 15 16  2  0  0  0
 16 17  1  0  0  0
 16 23  1  0  0  0
 17 18  2  0  0  0
 17 33  1  0  0  0
 18 19  1  0  0  0
 18 22  1  0  0  0
 19 20  2  0  0  0
 19 34  1  0  0  0
 20 21  1  0  0  0
M  END
> <s_m_entry_id>
34816

> <s_m_entry_name>
ligand_docking-pose.313

> <s_m_Source_Path>
/home/csk/Desktop/cluster/DUD-E-result/cdk2

> <s_m_Source_File>
ligand_docking-pose.sdf

> <i_m_Source_File_Index>
313

> <i_lp_mmshare_version>
53161

> <r_lp_tautomer_probability>
1

> <s_lp_Force_Field>
OPLS_2005

> <r_lp_Energy>
1.826007

> <b_lp_Chiralities_Consistent>
1

> <s_lp_Variant>
316323-1

> <s_i_glide_gridfile>
glide-grid_1h00

> <i_i_glide_lignum>
962

> <i_i_glide_rotatable_bonds>
4

> <r_i_docking_score>
-7.28330247930428

> <r_i_glide_ligand_efficiency>
-0.316665325187143

> <r_i_glide_ligand_efficiency_sa>
-0.900554061022446

> <r_i_glide_ligand_efficiency_ln>
-1.76116858083137

> <r_i_glide_gscore>
-7.28330247930428

> <r_i_glide_lipo>
-2.45922091423726

> <r_i_glide_hbond>
-0.425480299247379

> <r_i_glide_metal>
0

> <r_i_glide_rewards>
-2.13511972078253

> <r_i_glide_evdw>
-38.9788856506348

> <r_i_glide_ecoul>
-3.97873163223267

> <r_i_glide_erotb>
0.282272482329528

> <r_i_glide_esite>
0

> <r_i_glide_emodel>
-59.9649801445043

> <r_i_glide_energy>
-42.9576172828674

> <r_i_glide_einternal>
2.23925375938416

> <i_i_glide_confnum>
1

> <i_i_glide_posenum>
91

> <r_i_glide_eff_state_penalty>
0

> <i_f3d_flags>
0

> <s_user_duplicate_titles>
316323

> <s_m_subgroup_title>
dock_pv

> <s_m_subgroupid>
dock_pv1

> <b_m_subgroup_collapsed>
0

$$$$
67257
                    3D
 Schrodinger Suite 2021-1.
 37 39  0  0  1  0            999 V2000
   -3.3849   30.6090   10.1760 C   0  0  0  0  0  0
   -2.3019   29.6220   10.5388 C   0  0  0  0  0  0
   -1.0022   29.5976   10.0582 C   0  0  0  0  0  0
   -0.1863   28.2140   10.7584 S   0  0  0  0  0  0
   -1.6344   27.8283   11.6223 C   0  0  0  0  0  0
   -2.6207   28.6520   11.3760 N   0  0  0  0  0  0
   -1.7639   26.6520   12.5608 C   0  0  0  0  0  0
   -0.3363   30.5196    9.1025 C   0  0  0  0  0  0
   -0.6898   31.8678    8.9648 C   0  0  0  0  0  0
    0.0822   32.6338    8.0928 C   0  0  0  0  0  0
    1.1163   32.1097    7.3760 N   0  0  0  0  0  0
    1.3819   30.7911    7.5714 C   0  0  0  0  0  0
    0.6928   29.9808    8.4070 N   0  0  0  0  0  0
    2.4580   30.2520    6.8586 N   0  0  0  0  0  0
    3.2532   29.1083    7.0687 C   0  0  0  0  0  0
    4.0389   28.6520    6.0072 C   0  0  0  0  0  0
    4.8382   27.5250    6.1512 C   0  0  0  0  0  0
    4.8440   26.8301    7.3619 C   0  0  0  0  0  0
    4.0751   27.2976    8.4336 C   0  0  0  0  0  0
    3.3008   28.4415    8.2956 C   0  0  0  0  0  0
    5.6423   25.5416    7.5078 C   0  0  0  0  0  0
    5.9609   25.0065    6.3277 F   0  0  0  0  0  0
    6.7703   25.7831    8.1760 F   0  0  0  0  0  0
    4.9093   24.6520    8.1760 F   0  0  0  0  0  0
   -3.1963   31.5926   10.6036 H   0  0  0  0  0  0
   -3.4987   30.7258    9.0981 H   0  0  0  0  0  0
   -4.3420   30.3151   10.5757 H   0  0  0  0  0  0
   -1.7762   25.7073   12.0171 H   0  0  0  0  0  0
   -2.6810   26.6953   13.1504 H   0  0  0  0  0  0
   -0.9347   26.6107   13.2673 H   0  0  0  0  0  0
   -1.4792   32.3278    9.5340 H   0  0  0  0  0  0
   -0.1214   33.6858    7.9602 H   0  0  0  0  0  0
    2.8954   30.8923    6.2071 H   0  0  0  0  0  0
    4.0381   29.1784    5.0640 H   0  0  0  0  0  0
    5.4373   27.1915    5.3156 H   0  0  0  0  0  0
    4.0580   26.7699    9.3760 H   0  0  0  0  0  0
    2.7390   28.7857    9.1491 H   0  0  0  0  0  0
  1  2  1  0  0  0
  1 25  1  0  0  0
  1 26  1  0  0  0
  1 27  1  0  0  0
  2  6  1  0  0  0
  2  3  2  0  0  0
  3  4  1  0  0  0
  3  8  1  0  0  0
  4  5  1  0  0  0
  5  6  2  0  0  0
  5  7  1  0  0  0
  7 28  1  0  0  0
  7 29  1  0  0  0
  7 30  1  0  0  0
  8 13  1  0  0  0
  8  9  2  0  0  0
  9 10  1  0  0  0
  9 31  1  0  0  0
 10 11  2  0  0  0
 10 32  1  0  0  0
 11 12  1  0  0  0
 12 13  2  0  0  0
 12 14  1  0  0  0
 14 15  1  0  0  0
 14 33  1  0  0  0
 15 20  1  0  0  0
 15 16  2  0  0  0
 16 17  1  0  0  0
 16 34  1  0  0  0
 17 18  2  0  0  0
 17 35  1  0  0  0
 18 19  1  0  0  0
 18 21  1  0  0  0
 19 20  2  0  0  0
 19 36  1  0  0  0
 20 37  1  0  0  0
 21 22  1  0  0  0
 21 23  1  0  0  0
 21 24  1  0  0  0
M  END
> <s_m_entry_id>
34817

> <s_m_entry_name>
ligand_docking-pose.314

> <s_m_Source_Path>
/home/csk/Desktop/cluster/DUD-E-result/cdk2

> <s_m_Source_File>
ligand_docking-pose.sdf

> <i_m_Source_File_Index>
314

> <i_lp_mmshare_version>
53161

> <r_lp_tautomer_probability>
0.999999987636

> <s_lp_Force_Field>
OPLS_2005

> <r_lp_Energy>
5.643325

> <b_lp_Chiralities_Consistent>
1

> <s_lp_Variant>
67257-1

> <s_i_glide_gridfile>
glide-grid_1h00

> <i_i_glide_lignum>
820

> <i_i_glide_rotatable_bonds>
4

> <r_i_docking_score>
-7.28312556718554

> <r_i_glide_ligand_efficiency>
-0.303463565299398

> <r_i_glide_ligand_efficiency_sa>
-0.875340392386728

> <r_i_glide_ligand_efficiency_ln>
-1.74318614908296

> <r_i_glide_gscore>
-7.28312556718554

> <r_i_glide_lipo>
-2.26420946791896

> <r_i_glide_hbond>
-0.208638973347715

> <r_i_glide_metal>
0

> <r_i_glide_rewards>
-2.83240993872275

> <r_i_glide_evdw>
-34.0885543823242

> <r_i_glide_ecoul>
-4.92133331298828

> <r_i_glide_erotb>
0.465808766536091

> <r_i_glide_esite>
-0.0010482376677573

> <r_i_glide_emodel>
-55.5662018135188

> <r_i_glide_energy>
-39.0098876953125

> <r_i_glide_einternal>
2.30053186416626

> <i_i_glide_confnum>
4

> <i_i_glide_posenum>
287

> <r_i_glide_eff_state_penalty>
0

> <i_f3d_flags>
0

> <s_user_duplicate_titles>
67257

> <s_m_subgroup_title>
dock_pv

> <s_m_subgroupid>
dock_pv1

> <b_m_subgroup_collapsed>
0

$$$$
310937
                    3D
 Schrodinger Suite 2021-1.
 59 64  0  0  1  0            999 V2000
    7.2629   25.3664    5.7173 C   0  0  0  0  0  0
    6.5228   25.5762    6.9151 O   0  0  0  0  0  0
    5.5845   26.5890    6.9560 C   0  0  0  0  0  0
    4.9316   26.7797    8.1692 C   0  0  0  0  0  0
    3.9924   27.7918    8.3321 C   0  0  0  0  0  0
    3.6600   28.6072    7.2509 C   0  0  0  0  0  0
    4.3002   28.4089    6.0204 C   0  0  0  0  0  0
    5.2559   27.4117    5.8725 C   0  0  0  0  0  0
    2.5899   29.6344    7.3748 C   0  0  0  0  0  0
    1.5167   29.8520    8.2274 C   0  0  0  0  0  0
    0.8910   30.9972    7.7763 C   0  0  0  0  0  0
    1.5018   31.5377    6.7599 N   0  0  0  0  0  0
    2.4580   30.6590    6.4881 N   0  0  0  0  0  0
   -0.2518   31.3171    8.6093 C   0  0  0  0  0  0
   -1.0929   32.4243    8.6339 C   0  0  0  0  0  0
   -2.0416   32.5251    9.6408 C   0  0  0  0  0  0
   -2.1706   31.5049   10.5759 C   0  0  0  0  0  0
   -1.3597   30.3636   10.5408 C   0  0  0  0  0  0
   -0.3437   30.2930    9.5630 C   0  0  0  0  0  0
    0.8094   29.3489    9.3850 C   0  0  0  0  0  0
    1.1232   28.3845   10.0778 O   0  0  0  0  0  0
   -1.6231   29.4512   11.5756 N   0  0  0  0  0  0
   -1.6303   28.1048   11.5431 C   0  0  0  0  0  0
   -1.4268   27.4064   10.5505 O   0  0  0  0  0  0
   -1.9418   27.6244   12.7597 N   0  0  0  0  0  0
   -2.1466   26.2601   12.9620 N   0  0  0  0  0  0
   -1.1186   25.4848   13.3659 C   0  0  0  0  0  0
    0.0580   25.8447   13.3833 O   0  0  0  0  0  0
   -1.4929   24.1037   13.8379 C   0  0  0  0  0  0
   -0.6410   23.0254   13.5829 C   0  0  0  0  0  0
   -0.9301   21.7504   14.0620 C   0  0  0  0  0  0
   -2.0862   21.5267   14.8471 C   0  0  0  0  0  0
   -2.3873   20.2519   15.3872 C   0  0  0  0  0  0
   -3.5165   20.0727   16.1822 C   0  0  0  0  0  0
   -4.3798   21.1336   16.4343 C   0  0  0  0  0  0
   -4.1215   22.3959   15.9053 C   0  0  0  0  0  0
   -2.9673   22.6184   15.1126 C   0  0  0  0  0  0
   -2.6592   23.8967   14.5862 C   0  0  0  0  0  0
    3.1651   30.8627    5.7905 H   0  0  0  0  0  0
    7.9684   24.5498    5.8700 H   0  0  0  0  0  0
    6.6115   25.0898    4.8869 H   0  0  0  0  0  0
    7.8414   26.2494    5.4418 H   0  0  0  0  0  0
    5.1527   26.1097    8.9759 H   0  0  0  0  0  0
    3.5106   27.9119    9.2911 H   0  0  0  0  0  0
    4.0622   29.0227    5.1655 H   0  0  0  0  0  0
    5.7379   27.2979    4.9142 H   0  0  0  0  0  0
   -0.9718   33.2317    7.9257 H   0  0  0  0  0  0
   -2.6708   33.3996    9.7164 H   0  0  0  0  0  0
   -2.8858   31.6364   11.3754 H   0  0  0  0  0  0
   -2.1733   29.8501   12.3250 H   0  0  0  0  0  0
   -2.3086   28.1928   13.5132 H   0  0  0  0  0  0
   -3.0617   25.9355   12.6862 H   0  0  0  0  0  0
    0.2631   23.1720   13.0079 H   0  0  0  0  0  0
   -0.2672   20.9237   13.8488 H   0  0  0  0  0  0
   -1.7306   19.4172   15.1772 H   0  0  0  0  0  0
   -3.7255   19.0979   16.6008 H   0  0  0  0  0  0
   -5.2581   20.9713   17.0414 H   0  0  0  0  0  0
   -4.7977   23.2139   16.1054 H   0  0  0  0  0  0
   -3.3287   24.7174   14.8058 H   0  0  0  0  0  0
  1  2  1  0  0  0
  1 40  1  0  0  0
  1 41  1  0  0  0
  1 42  1  0  0  0
  2  3  1  0  0  0
  3  8  1  0  0  0
  3  4  2  0  0  0
  4  5  1  0  0  0
  4 43  1  0  0  0
  5  6  2  0  0  0
  5 44  1  0  0  0
  6  7  1  0  0  0
  6  9  1  0  0  0
  7  8  2  0  0  0
  7 45  1  0  0  0
  8 46  1  0  0  0
  9 13  1  0  0  0
  9 10  2  0  0  0
 10 20  1  0  0  0
 10 11  1  0  0  0
 11 12  2  0  0  0
 11 14  1  0  0  0
 12 13  1  0  0  0
 13 39  1  0  0  0
 14 19  2  0  0  0
 14 15  1  0  0  0
 15 16  2  0  0  0
 15 47  1  0  0  0
 16 17  1  0  0  0
 16 48  1  0  0  0
 17 18  2  0  0  0
 17 49  1  0  0  0
 18 19  1  0  0  0
 18 22  1  0  0  0
 19 20  1  0  0  0
 20 21  2  0  0  0
 22 23  1  0  0  0
 22 50  1  0  0  0
 23 24  2  0  0  0
 23 25  1  0  0  0
 25 26  1  0  0  0
 25 51  1  0  0  0
 26 27  1  0  0  0
 26 52  1  0  0  0
 27 28  2  0  0  0
 27 29  1  0  0  0
 29 38  1  0  0  0
 29 30  2  0  0  0
 30 31  1  0  0  0
 30 53  1  0  0  0
 31 32  2  0  0  0
 31 54  1  0  0  0
 32 37  1  0  0  0
 32 33  1  0  0  0
 33 34  2  0  0  0
 33 55  1  0  0  0
 34 35  1  0  0  0
 34 56  1  0  0  0
 35 36  2  0  0  0
 35 57  1  0  0  0
 36 37  1  0  0  0
 36 58  1  0  0  0
 37 38  2  0  0  0
 38 59  1  0  0  0
M  END
> <s_m_entry_id>
34818

> <s_m_entry_name>
ligand_docking-pose.315

> <s_m_Source_Path>
/home/csk/Desktop/cluster/DUD-E-result/cdk2

> <s_m_Source_File>
ligand_docking-pose.sdf

> <i_m_Source_File_Index>
315

> <i_lp_mmshare_version>
53161

> <r_lp_tautomer_probability>
1

> <s_lp_Force_Field>
OPLS_2005

> <r_lp_Energy>
72.453077

> <b_lp_Chiralities_Consistent>
1

> <s_lp_Variant>
310937-1

> <s_i_glide_gridfile>
glide-grid_1h00

> <i_i_glide_lignum>
1640

> <i_i_glide_rotatable_bonds>
8

> <r_i_docking_score>
-7.28270738457413

> <r_i_glide_ligand_efficiency>
-0.191650194330898

> <r_i_glide_ligand_efficiency_sa>
-0.644323239267461

> <r_i_glide_ligand_efficiency_ln>
-1.57036594766011

> <r_i_glide_gscore>
-7.28270738457413

> <r_i_glide_lipo>
-2.74700485913015

> <r_i_glide_hbond>
-0.382577553055116

> <r_i_glide_metal>
0

> <r_i_glide_rewards>
-0.786226114995376

> <r_i_glide_evdw>
-44.0983009338379

> <r_i_glide_ecoul>
-10.314190864563

> <r_i_glide_erotb>
0.483757494847864

> <r_i_glide_esite>
-0.0986126758650127

> <r_i_glide_emodel>
-74.2465354528115

> <r_i_glide_energy>
-54.4124917984009

> <r_i_glide_einternal>
11.1159114837646

> <i_i_glide_confnum>
9

> <i_i_glide_posenum>
318

> <r_i_glide_eff_state_penalty>
0

> <i_f3d_flags>
0

> <s_user_duplicate_titles>
310937

> <s_m_subgroup_title>
dock_pv

> <s_m_subgroupid>
dock_pv1

> <b_m_subgroup_collapsed>
0

$$$$
301073
                    3D
 Schrodinger Suite 2021-1.
 39 42  0  0  1  0            999 V2000
    0.2198   26.4622   11.0059 C   0  0  0  0  0  0
   -0.4761   25.8253   12.0310 C   0  0  0  0  0  0
   -1.1166   26.5880   13.0102 C   0  0  0  0  0  0
   -1.0505   27.9811   12.9736 C   0  0  0  0  0  0
   -0.3440   28.6179   11.9620 C   0  0  0  0  0  0
    0.2746   27.8617   10.9625 C   0  0  0  0  0  0
    0.9573   28.5155    9.9124 N   0  0  0  0  0  0
    0.5877   29.6354    9.2019 C   0  0  0  0  0  0
    1.6105   29.8752    8.2863 C   0  0  0  0  0  0
    2.5790   28.8874    8.5752 C   0  0  0  0  0  0
    2.1697   28.0818    9.5342 N   0  0  0  0  0  0
    3.8577   28.7407    7.9383 C   0  0  0  0  0  0
    4.8998   28.6506    8.5752 O   0  0  0  0  0  0
    3.8212   28.6534    6.6093 N   0  0  0  0  0  0
    1.5641   31.0581    7.3020 C   0  0  0  0  0  0
    0.6299   32.2290    7.7762 C   0  0  0  0  0  0
   -0.5347   31.7001    8.6046 C   0  0  0  0  0  0
   -0.5929   30.4758    9.2399 C   0  0  0  0  0  0
   -1.8882   30.4090    9.7750 C   0  0  0  0  0  0
   -2.5997   31.4795    9.5038 N   0  0  0  0  0  0
   -1.7738   32.2519    8.7888 N   0  0  0  0  0  0
   -2.0389   25.7948   14.3199 S   0  0  0  0  0  0
   -1.6396   24.3847   14.3700 O   0  0  0  0  0  0
   -1.9424   26.6517   15.5069 O   0  0  0  0  0  0
   -3.6926   25.8527   13.7761 N   0  0  0  0  0  0
   -2.0586   33.1534    8.4362 H   0  0  0  0  0  0
    0.7055   25.8685   10.2443 H   0  0  0  0  0  0
   -0.5216   24.7457   12.0557 H   0  0  0  0  0  0
   -1.5417   28.5744   13.7304 H   0  0  0  0  0  0
   -0.2850   29.6974   11.9602 H   0  0  0  0  0  0
    2.9562   28.7883    6.1125 H   0  0  0  0  0  0
    4.6872   28.5370    6.1061 H   0  0  0  0  0  0
    1.2455   30.7065    6.3229 H   0  0  0  0  0  0
    2.5669   31.4508    7.1401 H   0  0  0  0  0  0
    0.2869   32.8478    6.9576 H   0  0  0  0  0  0
    1.2123   32.9357    8.3626 H   0  0  0  0  0  0
   -2.3076   29.5916   10.3424 H   0  0  0  0  0  0
   -3.8441   25.3532   12.8920 H   0  0  0  0  0  0
   -4.0269   26.8221   13.7301 H   0  0  0  0  0  0
  1  6  1  0  0  0
  1  2  2  0  0  0
  1 27  1  0  0  0
  2  3  1  0  0  0
  2 28  1  0  0  0
  3  4  2  0  0  0
  3 22  1  0  0  0
  4  5  1  0  0  0
  4 29  1  0  0  0
  5  6  2  0  0  0
  5 30  1  0  0  0
  6  7  1  0  0  0
  7 11  1  0  0  0
  7  8  1  0  0  0
  8 18  1  0  0  0
  8  9  2  0  0  0
  9 10  1  0  0  0
  9 15  1  0  0  0
 10 11  2  0  0  0
 10 12  1  0  0  0
 12 13  2  0  0  0
 12 14  1  0  0  0
 14 31  1  0  0  0
 14 32  1  0  0  0
 15 16  1  0  0  0
 15 33  1  0  0  0
 15 34  1  0  0  0
 16 17  1  0  0  0
 16 35  1  0  0  0
 16 36  1  0  0  0
 17 21  1  0  0  0
 17 18  2  0  0  0
 18 19  1  0  0  0
 19 20  2  0  0  0
 19 37  1  0  0  0
 20 21  1  0  0  0
 21 26  1  0  0  0
 22 23  2  0  0  0
 22 24  2  0  0  0
 22 25  1  0  0  0
 25 38  1  0  0  0
 25 39  1  0  0  0
M  END
> <s_m_entry_id>
34821

> <s_m_entry_name>
ligand_docking-pose.318

> <s_m_Source_Path>
/home/csk/Desktop/cluster/DUD-E-result/cdk2

> <s_m_Source_File>
ligand_docking-pose.sdf

> <i_m_Source_File_Index>
318

> <i_lp_mmshare_version>
53161

> <r_lp_tautomer_probability>
0.5

> <s_lp_Force_Field>
OPLS_2005

> <r_lp_Energy>
32.044307

> <b_lp_Chiralities_Consistent>
1

> <s_lp_Variant>
301073-1

> <s_i_glide_gridfile>
glide-grid_1h00

> <i_i_glide_lignum>
407

> <i_i_glide_rotatable_bonds>
3

> <r_i_docking_score>
-7.27346803908042

> <r_i_glide_ligand_efficiency>
-0.290938721563217

> <r_i_glide_ligand_efficiency_sa>
-0.850709981671044

> <r_i_glide_ligand_efficiency_ln>
-1.72402989351023

> <r_i_glide_gscore>
-7.27346803908042

> <r_i_glide_lipo>
-2.64224313267321

> <r_i_glide_hbond>
-0.38699038279339

> <r_i_glide_metal>
0

> <r_i_glide_rewards>
-1.08400292635046

> <r_i_glide_evdw>
-43.3924865722656

> <r_i_glide_ecoul>
-6.368971824646

> <r_i_glide_erotb>
0.149143787085335

> <r_i_glide_esite>
-0.184405282038511

> <r_i_glide_emodel>
-69.5332254430252

> <r_i_glide_energy>
-49.7614583969116

> <r_i_glide_einternal>
1.21219968795776

> <i_i_glide_confnum>
5

> <i_i_glide_posenum>
103

> <r_i_glide_eff_state_penalty>
0

> <i_f3d_flags>
0

> <s_user_duplicate_titles>
301073

> <s_m_subgroup_title>
dock_pv

> <s_m_subgroupid>
dock_pv1

> <b_m_subgroup_collapsed>
0

$$$$
164454
                    3D
 Schrodinger Suite 2021-1.
 53 55  0  0  1  0            999 V2000
    5.6048   24.0751    3.3768 C   0  0  0  0  0  0
    4.9657   25.0854    4.2198 N   0  0  0  0  0  0
    4.0701   25.8867    3.3929 C   0  0  0  0  0  0
    4.2452   24.4928    5.3551 C   0  0  0  0  0  0
    5.1999   23.9356    6.4410 C   0  0  1  0  0  0
    6.1741   24.9615    7.0814 C   0  0  0  0  0  0
    5.5794   25.8020    8.0737 O   0  0  0  0  0  0
    4.8447   26.9217    7.7417 C   0  0  0  0  0  0
    4.8585   27.5500    6.4899 C   0  0  0  0  0  0
    4.0411   28.6519    6.2527 C   0  0  0  0  0  0
    3.2225   29.1527    7.2662 C   0  0  0  0  0  0
    3.2613   28.5749    8.5333 C   0  0  0  0  0  0
    4.0568   27.4634    8.7558 C   0  0  0  0  0  0
    2.4202   30.2683    6.9834 N   0  0  0  0  0  0
    1.2883   30.7828    7.6388 C   0  0  0  0  0  0
    1.0398   32.1003    7.4245 N   0  0  0  0  0  0
    0.0451   32.6513    8.1744 C   0  0  0  0  0  0
   -0.7421   31.9092    9.0548 C   0  0  0  0  0  0
   -0.4428   30.5464    9.1813 C   0  0  0  0  0  0
    0.5711   29.9835    8.4719 N   0  0  0  0  0  0
   -1.1490   29.7842   10.1261 N   0  0  0  0  0  0
   -0.9319   28.5366   10.7379 C   0  0  0  0  0  0
   -1.6690   28.2724   11.8935 C   0  0  0  0  0  0
   -1.5334   27.0585   12.5612 C   0  0  0  0  0  0
   -0.6501   26.1001   12.0724 C   0  0  0  0  0  0
    0.0963   26.3486   10.9230 C   0  0  0  0  0  0
   -0.0423   27.5646   10.2584 C   0  0  0  0  0  0
   -2.1061   32.7704   10.0786 Br  0  0  0  0  0  0
    4.4577   23.2669    7.4495 O   0  0  0  0  0  0
    6.3644   23.5149    3.9226 H   0  0  0  0  0  0
    6.1131   24.5420    2.5291 H   0  0  0  0  0  0
    4.8782   23.3649    2.9759 H   0  0  0  0  0  0
    3.6648   26.7129    3.9756 H   0  0  0  0  0  0
    4.6121   26.3309    2.5570 H   0  0  0  0  0  0
    3.2419   25.3001    2.9864 H   0  0  0  0  0  0
    3.6024   25.2461    5.8119 H   0  0  0  0  0  0
    3.5853   23.7031    4.9887 H   0  0  0  0  0  0
    5.7985   23.1417    5.9945 H   0  0  0  0  0  0
    6.9421   24.3991    7.6107 H   0  0  0  0  0  0
    6.7202   25.5343    6.3293 H   0  0  0  0  0  0
    5.4963   27.2034    5.6931 H   0  0  0  0  0  0
    4.0566   29.1225    5.2812 H   0  0  0  0  0  0
    2.6854   28.9723    9.3549 H   0  0  0  0  0  0
    4.0579   27.0320    9.7430 H   0  0  0  0  0  0
    2.9250   30.9568    6.4405 H   0  0  0  0  0  0
   -0.1265   33.7112    8.0495 H   0  0  0  0  0  0
   -1.8711   30.3213   10.5822 H   0  0  0  0  0  0
   -2.3491   29.0126   12.2893 H   0  0  0  0  0  0
   -2.1137   26.8692   13.4529 H   0  0  0  0  0  0
   -0.5431   25.1576   12.5896 H   0  0  0  0  0  0
    0.7818   25.6029   10.5491 H   0  0  0  0  0  0
    0.5483   27.7215    9.3739 H   0  0  0  0  0  0
    3.5152   23.4538    7.3250 H   0  0  0  0  0  0
  1  2  1  0  0  0
  1 30  1  0  0  0
  1 31  1  0  0  0
  1 32  1  0  0  0
  2  3  1  0  0  0
  2  4  1  0  0  0
  3 33  1  0  0  0
  3 34  1  0  0  0
  3 35  1  0  0  0
  4  5  1  0  0  0
  4 36  1  0  0  0
  4 37  1  0  0  0
  5  6  1  0  0  0
  5 29  1  0  0  0
  5 38  1  0  0  0
  6  7  1  0  0  0
  6 39  1  0  0  0
  6 40  1  0  0  0
  7  8  1  0  0  0
  8 13  1  0  0  0
  8  9  2  0  0  0
  9 10  1  0  0  0
  9 41  1  0  0  0
 10 11  2  0  0  0
 10 42  1  0  0  0
 11 12  1  0  0  0
 11 14  1  0  0  0
 12 13  2  0  0  0
 12 43  1  0  0  0
 13 44  1  0  0  0
 14 15  1  0  0  0
 14 45  1  0  0  0
 15 20  1  0  0  0
 15 16  2  0  0  0
 16 17  1  0  0  0
 17 18  2  0  0  0
 17 46  1  0  0  0
 18 19  1  0  0  0
 18 28  1  0  0  0
 19 20  2  0  0  0
 19 21  1  0  0  0
 21 22  1  0  0  0
 21 47  1  0  0  0
 22 27  1  0  0  0
 22 23  2  0  0  0
 23 24  1  0  0  0
 23 48  1  0  0  0
 24 25  2  0  0  0
 24 49  1  0  0  0
 25 26  1  0  0  0
 25 50  1  0  0  0
 26 27  2  0  0  0
 26 51  1  0  0  0
 27 52  1  0  0  0
 29 53  1  0  0  0
M  END
> <s_m_entry_id>
34822

> <s_m_entry_name>
ligand_docking-pose.319

> <s_m_Source_Path>
/home/csk/Desktop/cluster/DUD-E-result/cdk2

> <s_m_Source_File>
ligand_docking-pose.sdf

> <i_m_Source_File_Index>
319

> <i_lp_mmshare_version>
53161

> <r_lp_tautomer_probability>
0.999999624730965

> <s_lp_Force_Field>
OPLS_2005

> <r_lp_Energy>
27.49092

> <b_lp_Chiralities_Consistent>
1

> <s_lp_Variant>
164454-2

> <s_i_glide_gridfile>
glide-grid_1h00

> <i_i_glide_lignum>
1527

> <i_i_glide_rotatable_bonds>
10

> <r_i_docking_score>
-7.27192928438144

> <r_i_glide_ligand_efficiency>
-0.25075618222005

> <r_i_glide_ligand_efficiency_sa>
-0.770402436914681

> <r_i_glide_ligand_efficiency_ln>
-1.66508740590718

> <r_i_glide_gscore>
-7.27192928438144

> <r_i_glide_lipo>
-2.96265039033474

> <r_i_glide_hbond>
-0.259901301475759

> <r_i_glide_metal>
0

> <r_i_glide_rewards>
-1.53560439182329

> <r_i_glide_evdw>
-42.7086372375488

> <r_i_glide_ecoul>
-7.62801170349121

> <r_i_glide_erotb>
0.765860416653471

> <r_i_glide_esite>
0

> <r_i_glide_emodel>
-66.0842328429231

> <r_i_glide_energy>
-50.33664894104

> <r_i_glide_einternal>
10.8268518447876

> <i_i_glide_confnum>
49

> <i_i_glide_posenum>
260

> <r_i_glide_eff_state_penalty>
0

> <i_f3d_flags>
0

> <s_user_duplicate_titles>
164454

> <s_m_subgroup_title>
dock_pv

> <s_m_subgroupid>
dock_pv1

> <b_m_subgroup_collapsed>
0

$$$$
202883
                    3D
 Schrodinger Suite 2021-1.
 48 51  0  0  1  0            999 V2000
    5.2585   27.0025    5.6462 C   0  0  0  0  0  0
    4.6102   28.1936    5.9553 C   0  0  0  0  0  0
    3.9824   28.3550    7.1887 C   0  0  0  0  0  0
    4.0580   27.3401    8.1421 C   0  0  0  0  0  0
    4.6830   26.1380    7.8234 C   0  0  0  0  0  0
    5.2745   25.9507    6.5680 C   0  0  0  0  0  0
    5.9615   24.6558    6.2206 C   0  0  0  0  0  0
    6.8300   24.5782    5.3552 O   0  0  0  0  0  0
    5.5036   23.5794    6.9205 O   0  0  0  0  0  0
    3.2581   29.5379    7.3760 N   0  0  0  0  0  0
    2.0670   29.8519    8.0303 C   0  0  0  0  0  0
    1.5134   31.0111    7.5759 N   0  0  0  0  0  0
    0.3721   31.3250    8.1893 C   0  0  0  0  0  0
   -0.3043   30.5290    9.1389 C   0  0  0  0  0  0
    0.3326   29.3334    9.4836 C   0  0  0  0  0  0
    1.5559   29.0128    8.9760 N   0  0  0  0  0  0
   -0.3317   28.5009   10.3580 O   0  0  0  0  0  0
    0.1722   27.1977   10.6393 C   0  0  0  0  0  0
   -1.0416   26.2886   10.9517 C   0  0  0  0  0  0
   -0.6478   24.8218   11.2411 C   0  0  0  0  0  0
    0.0795   24.6760   12.5940 C   0  0  0  0  0  0
   -0.7434   25.2704   13.7590 C   0  0  0  0  0  0
   -1.2131   26.7125   13.4734 C   0  0  0  0  0  0
   -1.9318   26.8059   12.1111 C   0  0  0  0  0  0
   -1.4617   31.1204    9.5702 N   0  0  0  0  0  0
   -1.4338   32.2953    8.9960 C   0  0  0  0  0  0
   -0.3430   32.4970    8.1761 N   0  0  0  0  0  0
    3.5550   30.2905    6.7644 H   0  0  0  0  0  0
    5.7318   26.9009    4.6785 H   0  0  0  0  0  0
    4.5797   28.9823    5.2172 H   0  0  0  0  0  0
    3.6086   27.4594    9.1167 H   0  0  0  0  0  0
    4.7082   25.3658    8.5757 H   0  0  0  0  0  0
    4.6971   23.8167    7.3789 H   0  0  0  0  0  0
   -0.1558   33.3505    7.6673 H   0  0  0  0  0  0
    0.7114   26.7722    9.7907 H   0  0  0  0  0  0
    0.8744   27.2573   11.4715 H   0  0  0  0  0  0
   -1.6682   26.2672   10.0584 H   0  0  0  0  0  0
   -1.5423   24.1971   11.2425 H   0  0  0  0  0  0
   -0.0079   24.4412   10.4442 H   0  0  0  0  0  0
    0.2903   23.6240   12.7899 H   0  0  0  0  0  0
    1.0506   25.1710   12.5484 H   0  0  0  0  0  0
   -1.6162   24.6400   13.9365 H   0  0  0  0  0  0
   -0.1605   25.2462   14.6804 H   0  0  0  0  0  0
   -1.8814   27.0522   14.2663 H   0  0  0  0  0  0
   -0.3593   27.3915   13.4917 H   0  0  0  0  0  0
   -2.2300   27.8412   11.9353 H   0  0  0  0  0  0
   -2.8559   26.2287   12.1510 H   0  0  0  0  0  0
   -2.1701   33.0710    9.1316 H   0  0  0  0  0  0
  1  6  1  0  0  0
  1  2  2  0  0  0
  1 29  1  0  0  0
  2  3  1  0  0  0
  2 30  1  0  0  0
  3  4  2  0  0  0
  3 10  1  0  0  0
  4  5  1  0  0  0
  4 31  1  0  0  0
  5  6  2  0  0  0
  5 32  1  0  0  0
  6  7  1  0  0  0
  7  8  2  0  0  0
  7  9  1  0  0  0
  9 33  1  0  0  0
 10 11  1  0  0  0
 10 28  1  0  0  0
 11 12  2  0  0  0
 11 16  1  0  0  0
 12 13  1  0  0  0
 13 27  1  0  0  0
 13 14  2  0  0  0
 14 15  1  0  0  0
 14 25  1  0  0  0
 15 16  2  0  0  0
 15 17  1  0  0  0
 17 18  1  0  0  0
 18 19  1  0  0  0
 18 35  1  0  0  0
 18 36  1  0  0  0
 19 24  1  0  0  0
 19 20  1  0  0  0
 19 37  1  0  0  0
 20 21  1  0  0  0
 20 38  1  0  0  0
 20 39  1  0  0  0
 21 22  1  0  0  0
 21 40  1  0  0  0
 21 41  1  0  0  0
 22 23  1  0  0  0
 22 42  1  0  0  0
 22 43  1  0  0  0
 23 24  1  0  0  0
 23 44  1  0  0  0
 23 45  1  0  0  0
 24 46  1  0  0  0
 24 47  1  0  0  0
 25 26  2  0  0  0
 26 48  1  0  0  0
 26 27  1  0  0  0
 27 34  1  0  0  0
M  END
> <s_m_entry_id>
34823

> <s_m_entry_name>
ligand_docking-pose.320

> <s_m_Source_Path>
/home/csk/Desktop/cluster/DUD-E-result/cdk2

> <s_m_Source_File>
ligand_docking-pose.sdf

> <i_m_Source_File_Index>
320

> <i_lp_mmshare_version>
53161

> <r_lp_tautomer_probability>
0.990858854461918

> <s_lp_Force_Field>
OPLS_2005

> <r_lp_Energy>
18.96517

> <b_lp_Chiralities_Consistent>
1

> <s_lp_Variant>
202883-1

> <s_i_glide_gridfile>
glide-grid_1h00

> <i_i_glide_lignum>
340

> <i_i_glide_rotatable_bonds>
7

> <r_i_docking_score>
-7.2716975293408

> <r_i_glide_ligand_efficiency>
-0.269322130716326

> <r_i_glide_ligand_efficiency_sa>
-0.807966391261336

> <r_i_glide_ligand_efficiency_ln>
-1.69273130152738

> <r_i_glide_gscore>
-7.2716975293408

> <r_i_glide_lipo>
-2.03781183248548

> <r_i_glide_hbond>
-0.38253600312379

> <r_i_glide_metal>
0

> <r_i_glide_rewards>
-2.86429027489138

> <r_i_glide_evdw>
-41.9193496704102

> <r_i_glide_ecoul>
-4.9807710647583

> <r_i_glide_erotb>
0.856023724394106

> <r_i_glide_esite>
0

> <r_i_glide_emodel>
-65.5196269003687

> <r_i_glide_energy>
-46.9001207351685

> <r_i_glide_einternal>
4.51030349731445

> <i_i_glide_confnum>
46

> <i_i_glide_posenum>
26

> <r_i_glide_eff_state_penalty>
0

> <i_f3d_flags>
0

> <s_user_duplicate_titles>
202883

> <s_m_subgroup_title>
dock_pv

> <s_m_subgroupid>
dock_pv1

> <b_m_subgroup_collapsed>
0

$$$$
211364
                    3D
 Schrodinger Suite 2021-1.
 28 29  0  0  1  0            999 V2000
   -1.0218   26.1961   10.9625 C   0  0  0  0  0  0
   -0.8776   27.6732   11.2278 C   0  0  0  0  0  0
    0.1457   28.5148   11.6219 C   0  0  0  0  0  0
   -0.2648   29.7701   11.6896 N   0  0  0  0  0  0
   -1.4922   29.7185   11.2219 C   0  0  0  0  0  0
   -1.9426   28.4640   10.9713 O   0  0  0  0  0  0
   -2.3954   30.8706   10.8324 C   0  0  0  0  0  0
   -2.3331   31.4553    9.1006 S   0  0  0  0  0  0
   -0.6506   31.3283    8.5749 C   0  0  0  0  0  0
    0.1157   32.3029    7.9314 C   0  0  0  0  0  0
    1.2588   31.9194    7.3811 N   0  0  0  0  0  0
    1.5431   30.6785    7.6939 C   0  0  0  0  0  0
    0.2581   29.8524    8.5289 S   0  0  0  0  0  0
    2.7764   30.1170    7.3757 N   0  0  0  0  0  0
    3.3734   29.0540    7.9540 C   0  0  0  0  0  0
    2.9131   28.3914    8.8834 O   0  0  0  0  0  0
    4.7482   28.6970    7.4009 C   0  0  0  0  0  0
   -0.1238   25.6476   11.2471 H   0  0  0  0  0  0
   -1.8562   25.7689   11.5199 H   0  0  0  0  0  0
   -1.2023   25.9981    9.9061 H   0  0  0  0  0  0
    1.1740   28.2293   11.7783 H   0  0  0  0  0  0
   -2.3408   31.7247   11.5041 H   0  0  0  0  0  0
   -3.4209   30.5189   10.9368 H   0  0  0  0  0  0
   -0.2144   33.3194    7.7769 H   0  0  0  0  0  0
    3.3628   30.6542    6.7432 H   0  0  0  0  0  0
    4.7984   28.8626    6.3223 H   0  0  0  0  0  0
    4.9776   27.6497    7.5997 H   0  0  0  0  0  0
    5.5124   29.3112    7.8775 H   0  0  0  0  0  0
  1  2  1  0  0  0
  1 18  1  0  0  0
  1 19  1  0  0  0
  1 20  1  0  0  0
  2  6  1  0  0  0
  2  3  2  0  0  0
  3  4  1  0  0  0
  3 21  1  0  0  0
  4  5  2  0  0  0
  5  6  1  0  0  0
  5  7  1  0  0  0
  7  8  1  0  0  0
  7 22  1  0  0  0
  7 23  1  0  0  0
  8  9  1  0  0  0
  9 13  1  0  0  0
  9 10  2  0  0  0
 10 11  1  0  0  0
 10 24  1  0  0  0
 11 12  2  0  0  0
 12 13  1  0  0  0
 12 14  1  0  0  0
 14 15  1  0  0  0
 14 25  1  0  0  0
 15 16  2  0  0  0
 15 17  1  0  0  0
 17 26  1  0  0  0
 17 27  1  0  0  0
 17 28  1  0  0  0
M  END
> <s_m_entry_id>
34825

> <s_m_entry_name>
ligand_docking-pose.322

> <s_m_Source_Path>
/home/csk/Desktop/cluster/DUD-E-result/cdk2

> <s_m_Source_File>
ligand_docking-pose.sdf

> <i_m_Source_File_Index>
322

> <i_lp_mmshare_version>
53161

> <r_lp_tautomer_probability>
0.999000488399163

> <s_lp_Force_Field>
OPLS_2005

> <r_lp_Energy>
3.732444

> <b_lp_Chiralities_Consistent>
1

> <s_lp_Variant>
211364-1

> <s_i_glide_gridfile>
glide-grid_1h00

> <i_i_glide_lignum>
811

> <i_i_glide_rotatable_bonds>
5

> <r_i_docking_score>
-7.26699365163114

> <r_i_glide_ligand_efficiency>
-0.427470214801832

> <r_i_glide_ligand_efficiency_sa>
-1.09914629283663

> <r_i_glide_ligand_efficiency_ln>
-1.89579681571842

> <r_i_glide_gscore>
-7.26699365163114

> <r_i_glide_lipo>
-2.24970842040429

> <r_i_glide_hbond>
-0.32

> <r_i_glide_metal>
0

> <r_i_glide_rewards>
-3.28670505066764

> <r_i_glide_evdw>
-29.4890937805176

> <r_i_glide_ecoul>
-6.14156293869019

> <r_i_glide_erotb>
0.98510894927021

> <r_i_glide_esite>
0

> <r_i_glide_emodel>
-51.0737982432771

> <r_i_glide_energy>
-35.6306567192078

> <r_i_glide_einternal>
1.42257046699524

> <i_i_glide_confnum>
19

> <i_i_glide_posenum>
97

> <r_i_glide_eff_state_penalty>
0

> <i_f3d_flags>
0

> <s_user_duplicate_titles>
211364

> <s_m_subgroup_title>
dock_pv

> <s_m_subgroupid>
dock_pv1

> <b_m_subgroup_collapsed>
0

$$$$
301009
                    3D
 Schrodinger Suite 2021-1.
 34 37  0  0  1  0            999 V2000
   -0.3053   26.1851   11.1597 C   0  0  0  0  0  0
   -0.3604   25.0959   12.0259 C   0  0  0  0  0  0
   -0.7471   25.2842   13.3511 C   0  0  0  0  0  0
   -1.0862   26.5511   13.8170 C   0  0  0  0  0  0
   -1.0258   27.6451   12.9575 C   0  0  0  0  0  0
   -0.6245   27.4655   11.6268 C   0  0  0  0  0  0
   -0.5797   28.5683   10.7439 N   0  0  0  0  0  0
    0.3895   28.9315    9.8354 C   0  0  0  0  0  0
   -0.1078   30.0346    9.1527 C   0  0  0  0  0  0
   -1.3381   30.3260    9.7896 C   0  0  0  0  0  0
   -1.6090   29.4245   10.7163 N   0  0  0  0  0  0
   -2.1973   31.4482    9.4653 C   0  0  0  0  0  0
   -1.9321   32.2515    8.5763 O   0  0  0  0  0  0
   -3.3202   31.5614   10.1760 N   0  0  0  0  0  0
    0.6477   30.7221    8.0082 C   0  0  0  0  0  0
    2.0703   30.1590    7.6911 C   0  0  0  0  0  0
    2.4979   28.9903    8.5645 C   0  0  0  0  0  0
    1.7013   28.4016    9.5610 C   0  0  0  0  0  0
    2.4985   27.4103   10.1003 C   0  0  0  0  0  0
    3.6580   27.4529    9.3760 N   0  0  0  0  0  0
    3.6731   28.4113    8.4530 N   0  0  0  0  0  0
   -0.7974   24.2274   14.1941 F   0  0  0  0  0  0
    4.4684   26.8710    9.5728 H   0  0  0  0  0  0
   -0.0166   26.0303   10.1299 H   0  0  0  0  0  0
   -0.1088   24.1072   11.6719 H   0  0  0  0  0  0
   -1.3999   26.6798   14.8416 H   0  0  0  0  0  0
   -1.2940   28.6251   13.3273 H   0  0  0  0  0  0
   -3.4446   31.0522   11.0473 H   0  0  0  0  0  0
   -3.9437   32.3263    9.9633 H   0  0  0  0  0  0
    0.0475   30.6497    7.1023 H   0  0  0  0  0  0
    0.7350   31.7911    8.2090 H   0  0  0  0  0  0
    2.0895   29.8446    6.6489 H   0  0  0  0  0  0
    2.8027   30.9625    7.7739 H   0  0  0  0  0  0
    2.3729   26.7176   10.9197 H   0  0  0  0  0  0
  1  6  1  0  0  0
  1  2  2  0  0  0
  1 24  1  0  0  0
  2  3  1  0  0  0
  2 25  1  0  0  0
  3  4  2  0  0  0
  3 22  1  0  0  0
  4  5  1  0  0  0
  4 26  1  0  0  0
  5  6  2  0  0  0
  5 27  1  0  0  0
  6  7  1  0  0  0
  7 11  1  0  0  0
  7  8  1  0  0  0
  8 18  1  0  0  0
  8  9  2  0  0  0
  9 10  1  0  0  0
  9 15  1  0  0  0
 10 11  2  0  0  0
 10 12  1  0  0  0
 12 13  2  0  0  0
 12 14  1  0  0  0
 14 28  1  0  0  0
 14 29  1  0  0  0
 15 16  1  0  0  0
 15 30  1  0  0  0
 15 31  1  0  0  0
 16 17  1  0  0  0
 16 32  1  0  0  0
 16 33  1  0  0  0
 17 21  2  0  0  0
 17 18  1  0  0  0
 18 19  2  0  0  0
 19 20  1  0  0  0
 19 34  1  0  0  0
 20 23  1  0  0  0
 20 21  1  0  0  0
M  END
> <s_m_entry_id>
34828

> <s_m_entry_name>
ligand_docking-pose.325

> <s_m_Source_Path>
/home/csk/Desktop/cluster/DUD-E-result/cdk2

> <s_m_Source_File>
ligand_docking-pose.sdf

> <i_m_Source_File_Index>
325

> <i_lp_mmshare_version>
53161

> <r_lp_tautomer_probability>
0.5

> <s_lp_Force_Field>
OPLS_2005

> <r_lp_Energy>
22.392132

> <b_lp_Chiralities_Consistent>
1

> <s_lp_Variant>
301009-1

> <s_i_glide_gridfile>
glide-grid_1h00

> <i_i_glide_lignum>
401

> <i_i_glide_rotatable_bonds>
2

> <r_i_docking_score>
-7.25817563627374

> <r_i_glide_ligand_efficiency>
-0.329917074376079

> <r_i_glide_ligand_efficiency_sa>
-0.924440617304037

> <r_i_glide_ligand_efficiency_ln>
-1.77416287389429

> <r_i_glide_gscore>
-7.25817563627374

> <r_i_glide_lipo>
-2.32391251000757

> <r_i_glide_hbond>
-0.271439716212468

> <r_i_glide_metal>
0

> <r_i_glide_rewards>
-2.24672577350824

> <r_i_glide_evdw>
-37.2464752197266

> <r_i_glide_ecoul>
-4.84679079055786

> <r_i_glide_erotb>
0.207436702266233

> <r_i_glide_esite>
-0.0341919592416941

> <r_i_glide_emodel>
-60.6083818236976

> <r_i_glide_energy>
-42.0932660102844

> <r_i_glide_einternal>
0.040930338203907

> <i_i_glide_confnum>
1

> <i_i_glide_posenum>
283

> <r_i_glide_eff_state_penalty>
0

> <i_f3d_flags>
0

> <s_user_duplicate_titles>
301009

> <s_m_subgroup_title>
dock_pv

> <s_m_subgroupid>
dock_pv1

> <b_m_subgroup_collapsed>
0

$$$$
307235
                    3D
 Schrodinger Suite 2021-1.
 38 40  0  0  1  0            999 V2000
    2.0008   26.4951   10.5763 C   0  0  0  0  0  0
    0.6762   27.1223   10.9758 C   0  0  0  0  0  0
    0.0791   28.3122   10.4429 C   0  0  0  0  0  0
   -1.1616   28.4665   11.0934 C   0  0  0  0  0  0
   -1.2809   27.4660   12.0118 N   0  0  0  0  0  0
   -0.2109   26.6235   11.9378 C   0  0  0  0  0  0
   -0.1892   25.4728   12.7917 N   0  3  0  0  0  0
    0.5066   24.5220   12.4574 O   0  5  0  0  0  0
   -0.8863   25.4881   13.8047 O   0  0  0  0  0  0
   -2.3027   29.4519   10.9754 C   0  0  0  0  0  0
    0.6480   29.2325    9.3772 C   0  0  0  0  0  0
   -0.0781   30.2947    8.8128 C   0  0  0  0  0  0
    0.5394   31.0586    7.8237 C   0  0  0  0  0  0
    1.7871   30.7945    7.3759 N   0  0  0  0  0  0
    2.4261   29.7504    7.9559 C   0  0  0  0  0  0
    1.9226   28.9760    8.9589 N   0  0  0  0  0  0
    3.6585   29.4520    7.3761 N   0  0  0  0  0  0
    4.2323   28.2108    7.0986 C   0  0  0  0  0  0
    4.4584   27.8823    5.7598 C   0  0  0  0  0  0
    5.0296   26.6559    5.4288 C   0  0  0  0  0  0
    5.3845   25.7682    6.4412 C   0  0  0  0  0  0
    5.1726   26.1004    7.7759 C   0  0  0  0  0  0
    4.5972   27.3246    8.1104 C   0  0  0  0  0  0
    5.9426   24.5772    6.1291 F   0  0  0  0  0  0
   -2.0677   27.3484   12.6368 H   0  0  0  0  0  0
    2.8339   27.1454   10.8415 H   0  0  0  0  0  0
    2.1990   25.5241   11.0231 H   0  0  0  0  0  0
    2.0611   26.3551    9.4974 H   0  0  0  0  0  0
   -2.7300   29.4640    9.9729 H   0  0  0  0  0  0
   -3.1316   29.2023   11.6394 H   0  0  0  0  0  0
   -1.9960   30.4674   11.2288 H   0  0  0  0  0  0
   -1.0764   30.5551    9.1086 H   0  0  0  0  0  0
    0.0422   31.9066    7.3771 H   0  0  0  0  0  0
    3.9834   30.1866    6.7524 H   0  0  0  0  0  0
    4.1883   28.5742    4.9751 H   0  0  0  0  0  0
    5.2033   26.3949    4.3953 H   0  0  0  0  0  0
    5.4585   25.4150    8.5601 H   0  0  0  0  0  0
    4.4475   27.5823    9.1487 H   0  0  0  0  0  0
  1  2  1  0  0  0
  1 26  1  0  0  0
  1 27  1  0  0  0
  1 28  1  0  0  0
  2  6  2  0  0  0
  2  3  1  0  0  0
  3  4  2  0  0  0
  3 11  1  0  0  0
  4  5  1  0  0  0
  4 10  1  0  0  0
  5 25  1  0  0  0
  5  6  1  0  0  0
  6  7  1  0  0  0
  7  8  1  0  0  0
  7  9  2  0  0  0
 10 29  1  0  0  0
 10 30  1  0  0  0
 10 31  1  0  0  0
 11 16  1  0  0  0
 11 12  2  0  0  0
 12 13  1  0  0  0
 12 32  1  0  0  0
 13 14  2  0  0  0
 13 33  1  0  0  0
 14 15  1  0  0  0
 15 16  2  0  0  0
 15 17  1  0  0  0
 17 18  1  0  0  0
 17 34  1  0  0  0
 18 23  1  0  0  0
 18 19  2  0  0  0
 19 20  1  0  0  0
 19 35  1  0  0  0
 20 21  2  0  0  0
 20 36  1  0  0  0
 21 22  1  0  0  0
 21 24  1  0  0  0
 22 23  2  0  0  0
 22 37  1  0  0  0
 23 38  1  0  0  0
M  CHG  2   7   1   8  -1
M  END
> <s_m_entry_id>
34829

> <s_m_entry_name>
ligand_docking-pose.326

> <s_m_Source_Path>
/home/csk/Desktop/cluster/DUD-E-result/cdk2

> <s_m_Source_File>
ligand_docking-pose.sdf

> <i_m_Source_File_Index>
326

> <i_lp_mmshare_version>
53161

> <r_lp_tautomer_probability>
0.999999987636

> <s_lp_Force_Field>
OPLS_2005

> <r_lp_Energy>
9.959188

> <b_lp_Chiralities_Consistent>
1

> <s_lp_Variant>
307235-1

> <s_i_glide_gridfile>
glide-grid_1h00

> <i_i_glide_lignum>
774

> <i_i_glide_rotatable_bonds>
4

> <r_i_docking_score>
-7.25793699637125

> <r_i_glide_ligand_efficiency>
-0.302414041515469

> <r_i_glide_ligand_efficiency_sa>
-0.872313041937137

> <r_i_glide_ligand_efficiency_ln>
-1.7371573682589

> <r_i_glide_gscore>
-7.25793699637125

> <r_i_glide_lipo>
-2.0120947944389

> <r_i_glide_hbond>
-0.32

> <r_i_glide_metal>
0

> <r_i_glide_rewards>
-2.5508028607904

> <r_i_glide_evdw>
-34.7477340698242

> <r_i_glide_ecoul>
-7.75439214706421

> <r_i_glide_erotb>
0.525506184408897

> <r_i_glide_esite>
0

> <r_i_glide_emodel>
-60.4421681846756

> <r_i_glide_energy>
-42.5021262168884

> <r_i_glide_einternal>
2.44924569129944

> <i_i_glide_confnum>
2

> <i_i_glide_posenum>
150

> <r_i_glide_eff_state_penalty>
0

> <i_f3d_flags>
0

> <s_user_duplicate_titles>
307235

> <s_m_subgroup_title>
dock_pv

> <s_m_subgroupid>
dock_pv1

> <b_m_subgroup_collapsed>
0

$$$$
303705
                    3D
 Schrodinger Suite 2021-1.
 54 57  0  0  1  0            999 V2000
    1.8769   27.2409   10.3769 C   0  0  0  0  0  0
    0.3815   27.5188   10.6422 C   0  0  0  0  0  0
   -0.5355   26.4407   10.0300 C   0  0  0  0  0  0
   -0.1712   28.9396   10.3408 C   0  0  0  0  0  0
   -1.2702   29.3892   11.0836 C   0  0  0  0  0  0
   -1.9036   30.5919   10.7863 C   0  0  0  0  0  0
   -1.4672   31.4148    9.7644 C   0  0  0  0  0  0
   -0.3423   31.0295    9.0200 C   0  0  0  0  0  0
    0.3258   29.7940    9.2986 C   0  0  0  0  0  0
    1.4256   29.4521    8.5761 N   0  0  0  0  0  0
    1.8323   30.2724    7.5822 C   0  0  0  0  0  0
    1.2873   31.4688    7.2706 N   0  0  0  0  0  0
    0.2152   31.8328    8.0056 C   0  0  0  0  0  0
    2.8572   29.8520    6.7418 N   0  0  0  0  0  0
    3.7227   28.7610    6.7922 C   0  0  0  0  0  0
    4.0718   28.1607    5.5868 C   0  0  0  0  0  0
    5.0039   27.1340    5.5687 C   0  0  0  0  0  0
    5.6291   26.7274    6.7510 C   0  0  0  0  0  0
    5.2582   27.3288    7.9622 C   0  0  0  0  0  0
    4.3088   28.3429    7.9844 C   0  0  0  0  0  0
    6.6449   25.7864    6.6785 N   0  0  0  0  0  0
    7.6639   25.6664    7.7260 C   0  0  0  0  0  0
    8.9751   25.1085    7.1324 C   0  0  0  0  0  0
    8.7294   23.8220    6.5760 O   0  0  0  0  0  0
    7.7742   23.8768    5.5214 C   0  0  0  0  0  0
    6.4416   24.4836    6.0203 C   0  0  0  0  0  0
   -1.7510   28.6326   12.1179 O   0  0  0  0  0  0
   -1.1969   28.9883   13.3757 C   0  0  0  0  0  0
    2.5067   28.0617   10.7199 H   0  0  0  0  0  0
    2.2067   26.3476   10.9093 H   0  0  0  0  0  0
    2.0821   27.0640    9.3213 H   0  0  0  0  0  0
    0.3072   27.3832   11.7208 H   0  0  0  0  0  0
   -1.5019   26.4154   10.5358 H   0  0  0  0  0  0
   -0.7420   26.6352    8.9791 H   0  0  0  0  0  0
   -0.1026   25.4433   10.1116 H   0  0  0  0  0  0
   -2.7419   30.9063   11.3759 H   0  0  0  0  0  0
   -1.9646   32.3525    9.5587 H   0  0  0  0  0  0
   -0.2240   32.7933    7.7746 H   0  0  0  0  0  0
    3.2183   30.6096    6.1756 H   0  0  0  0  0  0
    3.6505   28.4990    4.6537 H   0  0  0  0  0  0
    5.2898   26.7043    4.6202 H   0  0  0  0  0  0
    5.7200   27.0469    8.8969 H   0  0  0  0  0  0
    4.0607   28.8239    8.9185 H   0  0  0  0  0  0
    7.8794   26.6464    8.1494 H   0  0  0  0  0  0
    7.2602   25.0526    8.5345 H   0  0  0  0  0  0
    9.7393   25.0411    7.9022 H   0  0  0  0  0  0
    9.3791   25.7830    6.3742 H   0  0  0  0  0  0
    7.6057   22.8634    5.1544 H   0  0  0  0  0  0
    8.1713   24.4498    4.6800 H   0  0  0  0  0  0
    5.9396   23.8007    6.7071 H   0  0  0  0  0  0
    5.7802   24.5956    5.1609 H   0  0  0  0  0  0
   -1.5429   28.2745   14.1222 H   0  0  0  0  0  0
   -1.5269   29.9815   13.6848 H   0  0  0  0  0  0
   -0.1064   28.9677   13.3746 H   0  0  0  0  0  0
  1  2  1  0  0  0
  1 29  1  0  0  0
  1 30  1  0  0  0
  1 31  1  0  0  0
  2  3  1  0  0  0
  2  4  1  0  0  0
  2 32  1  0  0  0
  3 33  1  0  0  0
  3 34  1  0  0  0
  3 35  1  0  0  0
  4  9  1  0  0  0
  4  5  2  0  0  0
  5  6  1  0  0  0
  5 27  1  0  0  0
  6  7  2  0  0  0
  6 36  1  0  0  0
  7  8  1  0  0  0
  7 37  1  0  0  0
  8 13  2  0  0  0
  8  9  1  0  0  0
  9 10  2  0  0  0
 10 11  1  0  0  0
 11 12  2  0  0  0
 11 14  1  0  0  0
 12 13  1  0  0  0
 13 38  1  0  0  0
 14 15  1  0  0  0
 14 39  1  0  0  0
 15 20  1  0  0  0
 15 16  2  0  0  0
 16 17  1  0  0  0
 16 40  1  0  0  0
 17 18  2  0  0  0
 17 41  1  0  0  0
 18 19  1  0  0  0
 18 21  1  0  0  0
 19 20  2  0  0  0
 19 42  1  0  0  0
 20 43  1  0  0  0
 21 26  1  0  0  0
 21 22  1  0  0  0
 22 23  1  0  0  0
 22 44  1  0  0  0
 22 45  1  0  0  0
 23 24  1  0  0  0
 23 46  1  0  0  0
 23 47  1  0  0  0
 24 25  1  0  0  0
 25 26  1  0  0  0
 25 48  1  0  0  0
 25 49  1  0  0  0
 26 50  1  0  0  0
 26 51  1  0  0  0
 27 28  1  0  0  0
 28 52  1  0  0  0
 28 53  1  0  0  0
 28 54  1  0  0  0
M  END
> <s_m_entry_id>
34830

> <s_m_entry_name>
ligand_docking-pose.327

> <s_m_Source_Path>
/home/csk/Desktop/cluster/DUD-E-result/cdk2

> <s_m_Source_File>
ligand_docking-pose.sdf

> <i_m_Source_File_Index>
327

> <i_lp_mmshare_version>
53161

> <r_lp_tautomer_probability>
1

> <s_lp_Force_Field>
OPLS_2005

> <r_lp_Energy>
30.531859

> <b_lp_Chiralities_Consistent>
1

> <s_lp_Variant>
303705-1

> <s_i_glide_gridfile>
glide-grid_1h00

> <i_i_glide_lignum>
1086

> <i_i_glide_rotatable_bonds>
5

> <r_i_docking_score>
-7.257195395417

> <r_i_glide_ligand_efficiency>
-0.259185549836322

> <r_i_glide_ligand_efficiency_sa>
-0.787039981428311

> <r_i_glide_ligand_efficiency_ln>
-1.67517377777798

> <r_i_glide_gscore>
-7.257195395417

> <r_i_glide_lipo>
-3.38594270971051

> <r_i_glide_hbond>
-0.242347822732234

> <r_i_glide_metal>
0

> <r_i_glide_rewards>
-1.73968255913143

> <r_i_glide_evdw>
-35.6532936096191

> <r_i_glide_ecoul>
-3.31434750556946

> <r_i_glide_erotb>
0.405888201607581

> <r_i_glide_esite>
-0.0152936991340391

> <r_i_glide_emodel>
-49.9150052903001

> <r_i_glide_energy>
-38.9676411151886

> <r_i_glide_einternal>
12.2148551940918

> <i_i_glide_confnum>
18

> <i_i_glide_posenum>
245

> <r_i_glide_eff_state_penalty>
0

> <i_f3d_flags>
0

> <s_user_duplicate_titles>
303705

> <s_m_subgroup_title>
dock_pv

> <s_m_subgroupid>
dock_pv1

> <b_m_subgroup_collapsed>
0

$$$$
310853
                    3D
 Schrodinger Suite 2021-1.
 61 65  0  0  1  0            999 V2000
    7.1179   25.5269    7.5367 C   0  0  0  0  0  0
    6.3756   26.1529    6.4969 O   0  0  0  0  0  0
    5.4223   27.0971    6.8235 C   0  0  0  0  0  0
    5.1078   27.4769    8.1341 C   0  0  0  0  0  0
    4.1227   28.4274    8.3724 C   0  0  0  0  0  0
    3.4479   29.0303    7.3168 C   0  0  0  0  0  0
    3.7631   28.6541    6.0072 C   0  0  0  0  0  0
    4.7441   27.6971    5.7641 C   0  0  0  0  0  0
    2.3233   29.9526    7.6197 C   0  0  0  0  0  0
    1.2678   29.8506    8.5087 C   0  0  0  0  0  0
    0.4311   30.9139    8.2274 C   0  0  0  0  0  0
    0.9538   31.7547    7.3759 N   0  0  0  0  0  0
    2.0580   31.1236    6.9622 N   0  0  0  0  0  0
   -0.8104   30.7926    8.9763 C   0  0  0  0  0  0
   -1.9858   31.5376    8.9968 C   0  0  0  0  0  0
   -3.0517   31.0912    9.7731 C   0  0  0  0  0  0
   -2.9254   29.9319   10.5382 C   0  0  0  0  0  0
   -1.7211   29.2152   10.5757 C   0  0  0  0  0  0
   -0.6653   29.6470    9.7621 C   0  0  0  0  0  0
    0.6726   29.0264    9.5384 C   0  0  0  0  0  0
    1.1278   28.0157   10.0757 O   0  0  0  0  0  0
   -1.5204   28.1060   11.4124 N   0  0  0  0  0  0
   -2.4286   27.3033   12.0112 C   0  0  0  0  0  0
   -3.6375   27.3137   11.7777 O   0  0  0  0  0  0
   -1.9161   26.5438   12.9969 N   0  0  0  0  0  0
   -0.8844   25.6934   12.6078 N   0  0  0  0  0  0
   -0.9809   24.3944   12.9533 C   0  0  0  0  0  0
   -1.8966   23.9308   13.6440 O   0  0  0  0  0  0
    0.1284   23.4994   12.4437 C   0  0  0  0  0  0
    0.3065   22.2318   13.0088 C   0  0  0  0  0  0
    1.2658   21.3466   12.5257 C   0  0  0  0  0  0
    2.0579   21.7357   11.4370 C   0  0  0  0  0  0
    1.9390   23.0056   10.8714 C   0  0  0  0  0  0
    0.9691   23.8830   11.3820 C   0  0  0  0  0  0
    2.8105   23.3075    9.8408 O   0  0  0  0  0  0
    2.8996   24.6538    9.3773 C   0  0  0  0  0  0
    1.3682   20.1407   13.1846 O   0  0  0  0  0  0
    2.2616   19.1496   12.6950 C   0  0  0  0  0  0
    2.6709   31.4979    6.2515 H   0  0  0  0  0  0
    7.7973   24.7935    7.1023 H   0  0  0  0  0  0
    7.7199   26.2484    8.0914 H   0  0  0  0  0  0
    6.4616   25.0034    8.2325 H   0  0  0  0  0  0
    5.6126   27.0363    8.9755 H   0  0  0  0  0  0
    3.8609   28.6862    9.3803 H   0  0  0  0  0  0
    3.2392   29.0921    5.1756 H   0  0  0  0  0  0
    4.9837   27.4131    4.7502 H   0  0  0  0  0  0
   -2.0927   32.4297    8.3981 H   0  0  0  0  0  0
   -3.9752   31.6489    9.7944 H   0  0  0  0  0  0
   -3.7707   29.6265   11.1304 H   0  0  0  0  0  0
   -0.5505   27.8464   11.5137 H   0  0  0  0  0  0
   -2.5632   26.0197   13.5687 H   0  0  0  0  0  0
    0.0129   26.1567   12.5823 H   0  0  0  0  0  0
   -0.3183   21.9031   13.8290 H   0  0  0  0  0  0
    2.7936   21.0619   11.0261 H   0  0  0  0  0  0
    0.8548   24.8580   10.9315 H   0  0  0  0  0  0
    3.6257   24.7063    8.5655 H   0  0  0  0  0  0
    1.9506   25.0208    8.9853 H   0  0  0  0  0  0
    3.2455   25.3251   10.1657 H   0  0  0  0  0  0
    2.2673   18.3173   13.3945 H   0  0  0  0  0  0
    3.2852   19.5156   12.6194 H   0  0  0  0  0  0
    1.9378   18.7679   11.7279 H   0  0  0  0  0  0
  1  2  1  0  0  0
  1 40  1  0  0  0
  1 41  1  0  0  0
  1 42  1  0  0  0
  2  3  1  0  0  0
  3  8  1  0  0  0
  3  4  2  0  0  0
  4  5  1  0  0  0
  4 43  1  0  0  0
  5  6  2  0  0  0
  5 44  1  0  0  0
  6  7  1  0  0  0
  6  9  1  0  0  0
  7  8  2  0  0  0
  7 45  1  0  0  0
  8 46  1  0  0  0
  9 13  1  0  0  0
  9 10  2  0  0  0
 10 20  1  0  0  0
 10 11  1  0  0  0
 11 12  2  0  0  0
 11 14  1  0  0  0
 12 13  1  0  0  0
 13 39  1  0  0  0
 14 19  2  0  0  0
 14 15  1  0  0  0
 15 16  2  0  0  0
 15 47  1  0  0  0
 16 17  1  0  0  0
 16 48  1  0  0  0
 17 18  2  0  0  0
 17 49  1  0  0  0
 18 19  1  0  0  0
 18 22  1  0  0  0
 19 20  1  0  0  0
 20 21  2  0  0  0
 22 23  1  0  0  0
 22 50  1  0  0  0
 23 24  2  0  0  0
 23 25  1  0  0  0
 25 26  1  0  0  0
 25 51  1  0  0  0
 26 27  1  0  0  0
 26 52  1  0  0  0
 27 28  2  0  0  0
 27 29  1  0  0  0
 29 34  1  0  0  0
 29 30  2  0  0  0
 30 31  1  0  0  0
 30 53  1  0  0  0
 31 32  2  0  0  0
 31 37  1  0  0  0
 32 33  1  0  0  0
 32 54  1  0  0  0
 33 34  2  0  0  0
 33 35  1  0  0  0
 34 55  1  0  0  0
 35 36  1  0  0  0
 36 56  1  0  0  0
 36 57  1  0  0  0
 36 58  1  0  0  0
 37 38  1  0  0  0
 38 59  1  0  0  0
 38 60  1  0  0  0
 38 61  1  0  0  0
M  END
> <s_m_entry_id>
34831

> <s_m_entry_name>
ligand_docking-pose.328

> <s_m_Source_Path>
/home/csk/Desktop/cluster/DUD-E-result/cdk2

> <s_m_Source_File>
ligand_docking-pose.sdf

> <i_m_Source_File_Index>
328

> <i_lp_mmshare_version>
53161

> <r_lp_tautomer_probability>
1

> <s_lp_Force_Field>
OPLS_2005

> <r_lp_Energy>
74.34031

> <b_lp_Chiralities_Consistent>
1

> <s_lp_Variant>
310853-1

> <s_i_glide_gridfile>
glide-grid_1h00

> <i_i_glide_lignum>
1652

> <i_i_glide_rotatable_bonds>
10

> <r_i_docking_score>
-7.25456526263802

> <r_i_glide_ligand_efficiency>
-0.190909612174685

> <r_i_glide_ligand_efficiency_sa>
-0.641833420274577

> <r_i_glide_ligand_efficiency_ln>
-1.56429767831333

> <r_i_glide_gscore>
-7.25456526263802

> <r_i_glide_lipo>
-3.37382918832238

> <r_i_glide_hbond>
-0.321761225349312

> <r_i_glide_metal>
0

> <r_i_glide_rewards>
-0.867166665627005

> <r_i_glide_evdw>
-54.4861831665039

> <r_i_glide_ecoul>
-3.25200915336609

> <r_i_glide_erotb>
0.544385943967009

> <r_i_glide_esite>
-0.0240835959762215

> <r_i_glide_emodel>
-72.7453056786707

> <r_i_glide_energy>
-57.73819231987

> <r_i_glide_einternal>
22.3342418670654

> <i_i_glide_confnum>
16

> <i_i_glide_posenum>
43

> <r_i_glide_eff_state_penalty>
0

> <i_f3d_flags>
0

> <s_user_duplicate_titles>
310853

> <s_m_subgroup_title>
dock_pv

> <s_m_subgroupid>
dock_pv1

> <b_m_subgroup_collapsed>
0

$$$$
301035
                    3D
 Schrodinger Suite 2021-1.
 32 35  0  0  1  0            999 V2000
   -0.8100   27.7229   12.9431 C   0  0  0  0  0  0
   -0.8719   26.5979   13.7609 C   0  0  0  0  0  0
   -0.5319   25.3499   13.2479 C   0  0  0  0  0  0
   -0.1296   25.2141   11.9212 C   0  0  0  0  0  0
   -0.0706   26.3357   11.0976 C   0  0  0  0  0  0
   -0.4135   27.5933   11.6056 C   0  0  0  0  0  0
   -0.3591   28.7336   10.7721 N   0  0  0  0  0  0
    0.5374   29.1115    9.7836 C   0  0  0  0  0  0
   -0.0112   30.2327    9.1322 C   0  0  0  0  0  0
    0.6728   30.7921    8.0327 C   0  0  0  0  0  0
    1.9091   30.2880    7.6027 C   0  0  0  0  0  0
    2.4569   29.2083    8.2973 C   0  0  0  0  0  0
    1.7917   28.5950    9.3759 C   0  0  0  0  0  0
    2.6438   27.5351    9.7986 C   0  0  0  0  0  0
    3.6901   27.4626    9.0152 N   0  0  0  0  0  0
    3.6203   28.4855    8.1433 N   0  0  0  0  0  0
   -1.2183   30.5298    9.8589 C   0  0  0  0  0  0
   -1.3879   29.6113   10.7917 N   0  0  0  0  0  0
   -2.1609   31.5970    9.6141 C   0  0  0  0  0  0
   -2.1277   32.2494    8.5767 O   0  0  0  0  0  0
   -3.0447   31.8765   10.5760 N   0  0  0  0  0  0
   -0.5952   24.2603   14.0464 F   0  0  0  0  0  0
    4.3476   28.6233    7.4565 H   0  0  0  0  0  0
   -1.0822   28.6872   13.3498 H   0  0  0  0  0  0
   -1.1888   26.6915   14.7878 H   0  0  0  0  0  0
    0.1289   24.2413   11.5324 H   0  0  0  0  0  0
    0.2208   26.2188   10.0637 H   0  0  0  0  0  0
    0.2567   31.6482    7.5218 H   0  0  0  0  0  0
    2.4272   30.7380    6.7676 H   0  0  0  0  0  0
    2.5240   26.8461   10.6214 H   0  0  0  0  0  0
   -3.1153   31.3459   11.4431 H   0  0  0  0  0  0
   -3.6845   32.6415   10.4248 H   0  0  0  0  0  0
  1  6  1  0  0  0
  1  2  2  0  0  0
  1 24  1  0  0  0
  2  3  1  0  0  0
  2 25  1  0  0  0
  3  4  2  0  0  0
  3 22  1  0  0  0
  4  5  1  0  0  0
  4 26  1  0  0  0
  5  6  2  0  0  0
  5 27  1  0  0  0
  6  7  1  0  0  0
  7 18  1  0  0  0
  7  8  1  0  0  0
  8 13  2  0  0  0
  8  9  1  0  0  0
  9 10  2  0  0  0
  9 17  1  0  0  0
 10 11  1  0  0  0
 10 28  1  0  0  0
 11 12  2  0  0  0
 11 29  1  0  0  0
 12 16  1  0  0  0
 12 13  1  0  0  0
 13 14  1  0  0  0
 14 15  2  0  0  0
 14 30  1  0  0  0
 15 16  1  0  0  0
 16 23  1  0  0  0
 17 18  2  0  0  0
 17 19  1  0  0  0
 19 20  2  0  0  0
 19 21  1  0  0  0
 21 31  1  0  0  0
 21 32  1  0  0  0
M  END
> <s_m_entry_id>
34834

> <s_m_entry_name>
ligand_docking-pose.331

> <s_m_Source_Path>
/home/csk/Desktop/cluster/DUD-E-result/cdk2

> <s_m_Source_File>
ligand_docking-pose.sdf

> <i_m_Source_File_Index>
331

> <i_lp_mmshare_version>
53161

> <r_lp_tautomer_probability>
1

> <s_lp_Force_Field>
OPLS_2005

> <r_lp_Energy>
59.232699

> <b_lp_Chiralities_Consistent>
1

> <s_lp_Variant>
301035-1

> <s_i_glide_gridfile>
glide-grid_1h00

> <i_i_glide_lignum>
393

> <i_i_glide_rotatable_bonds>
2

> <r_i_docking_score>
-7.25084328410967

> <r_i_glide_ligand_efficiency>
-0.329583785641349

> <r_i_glide_ligand_efficiency_sa>
-0.923506729161821

> <r_i_glide_ligand_efficiency_ln>
-1.77237057957135

> <r_i_glide_gscore>
-7.25084328410967

> <r_i_glide_lipo>
-2.4067944722827

> <r_i_glide_hbond>
-0.157285775487555

> <r_i_glide_metal>
0

> <r_i_glide_rewards>
-2.47769074430429

> <r_i_glide_evdw>
-35.7755088806152

> <r_i_glide_ecoul>
-4.01670980453491

> <r_i_glide_erotb>
0.209918065462502

> <r_i_glide_esite>
-0.0277084427866409

> <r_i_glide_emodel>
-57.3518197843239

> <r_i_glide_energy>
-39.7922186851501

> <r_i_glide_einternal>
0.506191432476044

> <i_i_glide_confnum>
4

> <i_i_glide_posenum>
73

> <r_i_glide_eff_state_penalty>
0

> <i_f3d_flags>
0

> <s_user_duplicate_titles>
301035

> <s_m_subgroup_title>
dock_pv

> <s_m_subgroupid>
dock_pv1

> <b_m_subgroup_collapsed>
0

$$$$
301036
                    3D
 Schrodinger Suite 2021-1.
 37 40  0  0  1  0            999 V2000
   -0.3215   24.9561   11.5839 C   0  0  0  0  0  0
   -0.3169   26.1184   10.8196 C   0  0  0  0  0  0
   -0.6883   27.3351   11.3978 C   0  0  0  0  0  0
   -1.0901   27.3805   12.7370 C   0  0  0  0  0  0
   -1.0923   26.2153   13.5000 C   0  0  0  0  0  0
   -0.7032   24.9970   12.9284 C   0  0  0  0  0  0
   -0.6827   23.7092   13.7519 C   0  0  0  0  0  0
   -0.7948   23.9419   15.0605 F   0  0  0  0  0  0
   -1.6954   22.9297   13.3795 F   0  0  0  0  0  0
    0.4570   23.0481   13.5484 F   0  0  0  0  0  0
   -0.6696   28.5137   10.6194 N   0  0  0  0  0  0
    0.3134   28.9834    9.7790 C   0  0  0  0  0  0
   -0.1835   30.1440    9.2054 C   0  0  0  0  0  0
   -1.4673   30.3091    9.7764 C   0  0  0  0  0  0
   -1.7332   29.3285   10.6219 N   0  0  0  0  0  0
   -2.3742   31.3947    9.4639 C   0  0  0  0  0  0
   -2.1492   32.2106    8.5764 O   0  0  0  0  0  0
   -3.4988   31.4520   10.1759 N   0  0  0  0  0  0
    0.5994   30.9541    8.1668 C   0  0  0  0  0  0
    1.8824   30.2523    7.6050 C   0  0  0  0  0  0
    2.4220   29.1504    8.5160 C   0  0  0  0  0  0
    1.6535   28.5257    9.5132 C   0  0  0  0  0  0
    2.4874   27.5738   10.0663 C   0  0  0  0  0  0
    3.6580   27.6879    9.3720 N   0  0  0  0  0  0
    3.6353   28.6463    8.4394 N   0  0  0  0  0  0
    4.4898   27.1398    9.5714 H   0  0  0  0  0  0
   -0.0244   24.0224   11.1282 H   0  0  0  0  0  0
   -0.0249   26.0677    9.7808 H   0  0  0  0  0  0
   -1.3939   28.3144   13.1896 H   0  0  0  0  0  0
   -1.3989   26.2718   14.5339 H   0  0  0  0  0  0
   -3.5583   30.9882   11.0793 H   0  0  0  0  0  0
   -4.1619   32.1794    9.9557 H   0  0  0  0  0  0
   -0.0570   31.1864    7.3362 H   0  0  0  0  0  0
    0.8579   31.9289    8.5749 H   0  0  0  0  0  0
    1.6585   29.8514    6.6165 H   0  0  0  0  0  0
    2.6542   31.0017    7.4247 H   0  0  0  0  0  0
    2.3802   26.8735   10.8821 H   0  0  0  0  0  0
  1  6  1  0  0  0
  1  2  2  0  0  0
  1 27  1  0  0  0
  2  3  1  0  0  0
  2 28  1  0  0  0
  3  4  2  0  0  0
  3 11  1  0  0  0
  4  5  1  0  0  0
  4 29  1  0  0  0
  5  6  2  0  0  0
  5 30  1  0  0  0
  6  7  1  0  0  0
  7  8  1  0  0  0
  7  9  1  0  0  0
  7 10  1  0  0  0
 11 15  1  0  0  0
 11 12  1  0  0  0
 12 22  1  0  0  0
 12 13  2  0  0  0
 13 14  1  0  0  0
 13 19  1  0  0  0
 14 15  2  0  0  0
 14 16  1  0  0  0
 16 17  2  0  0  0
 16 18  1  0  0  0
 18 31  1  0  0  0
 18 32  1  0  0  0
 19 20  1  0  0  0
 19 33  1  0  0  0
 19 34  1  0  0  0
 20 21  1  0  0  0
 20 35  1  0  0  0
 20 36  1  0  0  0
 21 25  2  0  0  0
 21 22  1  0  0  0
 22 23  2  0  0  0
 23 24  1  0  0  0
 23 37  1  0  0  0
 24 26  1  0  0  0
 24 25  1  0  0  0
M  END
> <s_m_entry_id>
34835

> <s_m_entry_name>
ligand_docking-pose.332

> <s_m_Source_Path>
/home/csk/Desktop/cluster/DUD-E-result/cdk2

> <s_m_Source_File>
ligand_docking-pose.sdf

> <i_m_Source_File_Index>
332

> <i_lp_mmshare_version>
53161

> <r_lp_tautomer_probability>
0.5

> <s_lp_Force_Field>
OPLS_2005

> <r_lp_Energy>
23.553919

> <b_lp_Chiralities_Consistent>
1

> <s_lp_Variant>
301036-1

> <s_i_glide_gridfile>
glide-grid_1h00

> <i_i_glide_lignum>
280

> <i_i_glide_rotatable_bonds>
3

> <r_i_docking_score>
-7.25004980683178

> <r_i_glide_ligand_efficiency>
-0.290001992273271

> <r_i_glide_ligand_efficiency_sa>
-0.847970968614277

> <r_i_glide_ligand_efficiency_ln>
-1.71847907067951

> <r_i_glide_gscore>
-7.25004980683178

> <r_i_glide_lipo>
-2.45431957830129

> <r_i_glide_hbond>
-0.281438490629373

> <r_i_glide_metal>
0

> <r_i_glide_rewards>
-1.98410196200949

> <r_i_glide_evdw>
-37.728385925293

> <r_i_glide_ecoul>
-5.07736825942993

> <r_i_glide_erotb>
0.157715516672084

> <r_i_glide_esite>
-0.0398807573845632

> <r_i_glide_emodel>
-61.1511172021839

> <r_i_glide_energy>
-42.8057541847229

> <r_i_glide_einternal>
0.215576395392418

> <i_i_glide_confnum>
1

> <i_i_glide_posenum>
65

> <r_i_glide_eff_state_penalty>
0

> <i_f3d_flags>
0

> <s_user_duplicate_titles>
301036

> <s_m_subgroup_title>
dock_pv

> <s_m_subgroupid>
dock_pv1

> <b_m_subgroup_collapsed>
0

$$$$
316615
                    3D
 Schrodinger Suite 2021-1.
 44 47  0  0  1  0            999 V2000
   -2.1259   32.4058   10.1581 C   0  0  0  0  0  0
   -1.8689   31.4524    8.9758 C   0  0  0  0  0  0
   -1.0423   30.2451    9.3823 C   0  0  0  0  0  0
    0.2831   29.8523    9.0030 C   0  0  0  0  0  0
    0.5668   28.6990    9.7764 C   0  0  0  0  0  0
    1.7312   28.0244    9.7757 N   0  0  0  0  0  0
    2.6581   28.5573    8.9251 C   0  0  0  0  0  0
    2.4936   29.6504    8.1383 N   0  0  0  0  0  0
    1.3065   30.2956    8.1489 C   0  0  0  0  0  0
    1.0539   31.3974    7.3782 O   0  0  0  0  0  0
    4.0279   27.8697    8.8307 C   0  0  0  0  0  0
    4.4579   27.3679    7.4374 C   0  0  0  0  0  0
    4.5353   28.2726    6.3695 C   0  0  0  0  0  0
    4.8523   27.8422    5.0811 C   0  0  0  0  0  0
    5.1160   26.4965    4.8405 C   0  0  0  0  0  0
    5.0801   25.5904    5.8969 C   0  0  0  0  0  0
    4.7661   26.0183    7.1869 C   0  0  0  0  0  0
    4.7785   25.0777    8.1783 O   0  0  0  0  0  0
   -0.5866   28.4578   10.5076 N   0  0  0  0  0  0
   -1.5325   29.3826   10.2400 N   0  0  0  0  0  0
   -0.8533   27.4584   11.4572 C   0  0  0  0  0  0
   -1.0923   26.1348   11.0484 C   0  0  0  0  0  0
   -1.3429   25.1528   12.0052 C   0  0  0  0  0  0
   -1.3836   25.4816   13.3586 C   0  0  0  0  0  0
   -1.1880   26.8000   13.7630 C   0  0  0  0  0  0
   -0.9363   27.7969   12.8192 C   0  0  0  0  0  0
   -0.7445   29.4363   13.3587 Cl  0  0  0  0  0  0
   -1.7076   24.2586   14.5364 Cl  0  0  0  0  0  0
   -1.1417   25.6841    9.3761 Cl  0  0  0  0  0  0
   -2.7339   33.2545    9.8487 H   0  0  0  0  0  0
   -2.6546   31.9024   10.9701 H   0  0  0  0  0  0
   -1.1946   32.7953   10.5718 H   0  0  0  0  0  0
   -1.3905   32.0116    8.1762 H   0  0  0  0  0  0
   -2.8237   31.1249    8.5607 H   0  0  0  0  0  0
    0.1865   31.7613    7.5537 H   0  0  0  0  0  0
    4.7757   28.5856    9.1693 H   0  0  0  0  0  0
    4.0560   27.0569    9.5556 H   0  0  0  0  0  0
    4.3456   29.3254    6.5197 H   0  0  0  0  0  0
    4.9025   28.5576    4.2735 H   0  0  0  0  0  0
    5.3603   26.1594    3.8424 H   0  0  0  0  0  0
    5.3052   24.5479    5.7154 H   0  0  0  0  0  0
    4.8575   25.4532    9.0670 H   0  0  0  0  0  0
   -1.5316   24.1361   11.6959 H   0  0  0  0  0  0
   -1.2503   27.0503   14.8080 H   0  0  0  0  0  0
  1  2  1  0  0  0
  1 30  1  0  0  0
  1 31  1  0  0  0
  1 32  1  0  0  0
  2  3  1  0  0  0
  2 33  1  0  0  0
  2 34  1  0  0  0
  3 20  2  0  0  0
  3  4  1  0  0  0
  4  9  2  0  0  0
  4  5  1  0  0  0
  5  6  2  0  0  0
  5 19  1  0  0  0
  6  7  1  0  0  0
  7  8  2  0  0  0
  7 11  1  0  0  0
  8  9  1  0  0  0
  9 10  1  0  0  0
 10 35  1  0  0  0
 11 12  1  0  0  0
 11 36  1  0  0  0
 11 37  1  0  0  0
 12 17  1  0  0  0
 12 13  2  0  0  0
 13 14  1  0  0  0
 13 38  1  0  0  0
 14 15  2  0  0  0
 14 39  1  0  0  0
 15 16  1  0  0  0
 15 40  1  0  0  0
 16 17  2  0  0  0
 16 41  1  0  0  0
 17 18  1  0  0  0
 18 42  1  0  0  0
 19 20  1  0  0  0
 19 21  1  0  0  0
 21 26  1  0  0  0
 21 22  2  0  0  0
 22 23  1  0  0  0
 22 29  1  0  0  0
 23 24  2  0  0  0
 23 43  1  0  0  0
 24 25  1  0  0  0
 24 28  1  0  0  0
 25 26  2  0  0  0
 25 44  1  0  0  0
 26 27  1  0  0  0
M  END
> <s_m_entry_id>
34837

> <s_m_entry_name>
ligand_docking-pose.334

> <s_m_Source_Path>
/home/csk/Desktop/cluster/DUD-E-result/cdk2

> <s_m_Source_File>
ligand_docking-pose.sdf

> <i_m_Source_File_Index>
334

> <i_lp_mmshare_version>
53161

> <r_lp_tautomer_probability>
0.999999999997365

> <s_lp_Force_Field>
OPLS_2005

> <r_lp_Energy>
5.047083

> <b_lp_Chiralities_Consistent>
1

> <s_lp_Variant>
316615-1

> <s_i_glide_gridfile>
glide-grid_1h00

> <i_i_glide_lignum>
951

> <i_i_glide_rotatable_bonds>
6

> <r_i_docking_score>
-7.24563626682675

> <r_i_glide_ligand_efficiency>
-0.249849526442302

> <r_i_glide_ligand_efficiency_sa>
-0.767616903116727

> <r_i_glide_ligand_efficiency_ln>
-1.65906697162056

> <r_i_glide_gscore>
-7.24563626682675

> <r_i_glide_lipo>
-3.22501256498625

> <r_i_glide_hbond>
-0.147529964127536

> <r_i_glide_metal>
0

> <r_i_glide_rewards>
-1.42292589409883

> <r_i_glide_evdw>
-47.708553314209

> <r_i_glide_ecoul>
-2.41366648674011

> <r_i_glide_erotb>
0.297309795107324

> <r_i_glide_esite>
0

> <r_i_glide_emodel>
-70.9845504688764

> <r_i_glide_energy>
-50.1222198009491

> <r_i_glide_einternal>
2.45148634910583

> <i_i_glide_confnum>
5

> <i_i_glide_posenum>
146

> <r_i_glide_eff_state_penalty>
0

> <i_f3d_flags>
0

> <s_user_duplicate_titles>
316615

> <s_m_subgroup_title>
dock_pv

> <s_m_subgroupid>
dock_pv1

> <b_m_subgroup_collapsed>
0

$$$$
67752
                    3D
 Schrodinger Suite 2021-1.
 34 36  0  0  1  0            999 V2000
    1.6981   26.1606   10.4543 C   0  0  0  0  0  0
    0.5854   27.0501   10.9738 C   0  0  0  0  0  0
    0.1882   28.3285   10.5327 C   0  0  0  0  0  0
   -1.1422   28.8463   11.5513 S   0  0  0  0  0  0
   -1.0551   27.3400   12.3885 C   0  0  0  0  0  0
   -0.1101   26.5401   11.9778 N   0  0  0  0  0  0
   -1.9415   27.0522   13.3871 N   0  0  0  0  0  0
    0.6994   29.2229    9.4388 C   0  0  0  0  0  0
   -0.0685   30.2601    8.8900 C   0  0  0  0  0  0
    0.5054   31.0102    7.8626 C   0  0  0  0  0  0
    1.7445   30.7539    7.3772 N   0  0  0  0  0  0
    2.4197   29.7287    7.9570 C   0  0  0  0  0  0
    1.9528   28.9551    8.9760 N   0  0  0  0  0  0
    3.6578   29.4520    7.3761 N   0  0  0  0  0  0
    4.2694   28.2206    7.1224 C   0  0  0  0  0  0
    4.4901   27.2735    8.1232 C   0  0  0  0  0  0
    5.0841   26.0554    7.7981 C   0  0  0  0  0  0
    5.4643   25.7898    6.4867 C   0  0  0  0  0  0
    5.2571   26.7371    5.4875 C   0  0  0  0  0  0
    4.6634   27.9550    5.8092 C   0  0  0  0  0  0
    6.0498   24.5908    6.1834 O   0  0  0  0  0  0
    2.6152   26.2973   11.0294 H   0  0  0  0  0  0
    1.4445   25.1008   10.4988 H   0  0  0  0  0  0
    1.9434   26.3647    9.4133 H   0  0  0  0  0  0
   -1.9263   26.1645   13.8633 H   0  0  0  0  0  0
   -2.6362   27.7333   13.6942 H   0  0  0  0  0  0
   -1.0639   30.4854    9.2413 H   0  0  0  0  0  0
   -0.0217   31.8385    7.4147 H   0  0  0  0  0  0
    3.9636   30.1852    6.7418 H   0  0  0  0  0  0
    4.2103   27.4742    9.1472 H   0  0  0  0  0  0
    5.2564   25.3250    8.5745 H   0  0  0  0  0  0
    5.5574   26.5404    4.4689 H   0  0  0  0  0  0
    4.5071   28.6905    5.0330 H   0  0  0  0  0  0
    6.2565   24.5084    5.2501 H   0  0  0  0  0  0
  1  2  1  0  0  0
  1 22  1  0  0  0
  1 23  1  0  0  0
  1 24  1  0  0  0
  2  6  1  0  0  0
  2  3  2  0  0  0
  3  4  1  0  0  0
  3  8  1  0  0  0
  4  5  1  0  0  0
  5  6  2  0  0  0
  5  7  1  0  0  0
  7 25  1  0  0  0
  7 26  1  0  0  0
  8 13  1  0  0  0
  8  9  2  0  0  0
  9 10  1  0  0  0
  9 27  1  0  0  0
 10 11  2  0  0  0
 10 28  1  0  0  0
 11 12  1  0  0  0
 12 13  2  0  0  0
 12 14  1  0  0  0
 14 15  1  0  0  0
 14 29  1  0  0  0
 15 20  1  0  0  0
 15 16  2  0  0  0
 16 17  1  0  0  0
 16 30  1  0  0  0
 17 18  2  0  0  0
 17 31  1  0  0  0
 18 19  1  0  0  0
 18 21  1  0  0  0
 19 20  2  0  0  0
 19 32  1  0  0  0
 20 33  1  0  0  0
 21 34  1  0  0  0
M  END
> <s_m_entry_id>
34838

> <s_m_entry_name>
ligand_docking-pose.335

> <s_m_Source_Path>
/home/csk/Desktop/cluster/DUD-E-result/cdk2

> <s_m_Source_File>
ligand_docking-pose.sdf

> <i_m_Source_File_Index>
335

> <i_lp_mmshare_version>
53161

> <r_lp_tautomer_probability>
0.999999987636

> <s_lp_Force_Field>
OPLS_2005

> <r_lp_Energy>
6.007551

> <b_lp_Chiralities_Consistent>
1

> <s_lp_Variant>
67752-1

> <s_i_glide_gridfile>
glide-grid_1h00

> <i_i_glide_lignum>
840

> <i_i_glide_rotatable_bonds>
4

> <r_i_docking_score>
-7.24500681156505

> <r_i_glide_ligand_efficiency>
-0.34500032436024

> <r_i_glide_ligand_efficiency_sa>
-0.95182973477084

> <r_i_glide_ligand_efficiency_ln>
-1.79131329424472

> <r_i_glide_gscore>
-7.24500681156505

> <r_i_glide_lipo>
-2.02408447238103

> <r_i_glide_hbond>
-0.456

> <r_i_glide_metal>
0

> <r_i_glide_rewards>
-2.69563064795152

> <r_i_glide_evdw>
-34.6745414733887

> <r_i_glide_ecoul>
-5.99603891372681

> <r_i_glide_erotb>
0.614822162775349

> <r_i_glide_esite>
-0.0509809432793952

> <r_i_glide_emodel>
-56.4772943478694

> <r_i_glide_energy>
-40.6705803871155

> <r_i_glide_einternal>
5.15530776977539

> <i_i_glide_confnum>
10

> <i_i_glide_posenum>
262

> <r_i_glide_eff_state_penalty>
0

> <i_f3d_flags>
0

> <s_user_duplicate_titles>
67752

> <s_m_subgroup_title>
dock_pv

> <s_m_subgroupid>
dock_pv1

> <b_m_subgroup_collapsed>
0

$$$$
210797
                    3D
 Schrodinger Suite 2021-1.
 31 32  0  0  1  0            999 V2000
   -1.1888   25.3113   11.0394 C   0  0  0  0  0  0
   -1.0012   26.1597   12.3078 C   0  0  0  0  0  0
   -1.0233   27.6416   12.0138 C   0  0  0  0  0  0
   -0.1413   28.6950   12.1761 C   0  0  0  0  0  0
   -0.6542   29.8218   11.7259 N   0  0  0  0  0  0
   -1.7907   29.4517   11.1796 C   0  0  0  0  0  0
   -2.1047   28.1457   11.3767 O   0  0  0  0  0  0
   -2.7011   30.2496   10.2640 C   0  0  0  0  0  0
   -2.0751   31.8787    9.7196 S   0  0  0  0  0  0
   -0.6475   31.4950    8.7425 C   0  0  0  0  0  0
    0.1109   32.4021    8.0048 C   0  0  0  0  0  0
    1.1817   31.9423    7.3762 N   0  0  0  0  0  0
    1.3912   30.6815    7.6576 C   0  0  0  0  0  0
    0.1143   29.9312    8.5760 S   0  0  0  0  0  0
    2.5583   30.0473    7.2560 N   0  0  0  0  0  0
    3.2135   29.0585    7.9013 C   0  0  0  0  0  0
    2.8474   28.5278    8.9493 O   0  0  0  0  0  0
    4.5273   28.6235    7.2650 C   0  0  0  0  0  0
   -1.1298   24.2480   11.2642 H   0  0  0  0  0  0
   -2.1604   25.4968   10.5789 H   0  0  0  0  0  0
   -0.4236   25.5353   10.2959 H   0  0  0  0  0  0
   -0.0603   25.8887   12.7885 H   0  0  0  0  0  0
   -1.7863   25.9136   13.0225 H   0  0  0  0  0  0
    0.8577   28.6508   12.5761 H   0  0  0  0  0  0
   -3.6569   30.4218   10.7533 H   0  0  0  0  0  0
   -2.9378   29.6667    9.3772 H   0  0  0  0  0  0
   -0.1255   33.4520    7.9222 H   0  0  0  0  0  0
    3.0882   30.5169    6.5327 H   0  0  0  0  0  0
    4.4497   28.5950    6.1771 H   0  0  0  0  0  0
    4.8146   27.6300    7.6139 H   0  0  0  0  0  0
    5.3195   29.3221    7.5368 H   0  0  0  0  0  0
  1  2  1  0  0  0
  1 19  1  0  0  0
  1 20  1  0  0  0
  1 21  1  0  0  0
  2  3  1  0  0  0
  2 22  1  0  0  0
  2 23  1  0  0  0
  3  7  1  0  0  0
  3  4  2  0  0  0
  4  5  1  0  0  0
  4 24  1  0  0  0
  5  6  2  0  0  0
  6  7  1  0  0  0
  6  8  1  0  0  0
  8  9  1  0  0  0
  8 25  1  0  0  0
  8 26  1  0  0  0
  9 10  1  0  0  0
 10 14  1  0  0  0
 10 11  2  0  0  0
 11 12  1  0  0  0
 11 27  1  0  0  0
 12 13  2  0  0  0
 13 14  1  0  0  0
 13 15  1  0  0  0
 15 16  1  0  0  0
 15 28  1  0  0  0
 16 17  2  0  0  0
 16 18  1  0  0  0
 18 29  1  0  0  0
 18 30  1  0  0  0
 18 31  1  0  0  0
M  END
> <s_m_entry_id>
34842

> <s_m_entry_name>
ligand_docking-pose.339

> <s_m_Source_Path>
/home/csk/Desktop/cluster/DUD-E-result/cdk2

> <s_m_Source_File>
ligand_docking-pose.sdf

> <i_m_Source_File_Index>
339

> <i_lp_mmshare_version>
53161

> <r_lp_tautomer_probability>
0.999000488399163

> <s_lp_Force_Field>
OPLS_2005

> <r_lp_Energy>
3.696191

> <b_lp_Chiralities_Consistent>
1

> <s_lp_Variant>
210797-1

> <s_i_glide_gridfile>
glide-grid_1h00

> <i_i_glide_lignum>
1059

> <i_i_glide_rotatable_bonds>
6

> <r_i_docking_score>
-7.23939178265786

> <r_i_glide_ligand_efficiency>
-0.402188432369881

> <r_i_glide_ligand_efficiency_sa>
-1.05403187196822

> <r_i_glide_ligand_efficiency_ln>
-1.86084832843141

> <r_i_glide_gscore>
-7.23939178265786

> <r_i_glide_lipo>
-2.44770740586669

> <r_i_glide_hbond>
-0.305628016331476

> <r_i_glide_metal>
0

> <r_i_glide_rewards>
-3.04611682070823

> <r_i_glide_evdw>
-33.9133224487305

> <r_i_glide_ecoul>
-4.30908060073853

> <r_i_glide_erotb>
0.902088672795829

> <r_i_glide_esite>
0

> <r_i_glide_emodel>
-52.6809310395751

> <r_i_glide_energy>
-38.222403049469

> <r_i_glide_einternal>
2.63876485824585

> <i_i_glide_confnum>
14

> <i_i_glide_posenum>
312

> <r_i_glide_eff_state_penalty>
0

> <i_f3d_flags>
0

> <s_user_duplicate_titles>
210797

> <s_m_subgroup_title>
dock_pv

> <s_m_subgroupid>
dock_pv1

> <b_m_subgroup_collapsed>
0

$$$$
288783
                    3D
 Schrodinger Suite 2021-1.
 41 43  0  0  1  0            999 V2000
   -0.8728   25.3101   14.0976 C   0  0  0  0  0  0
    0.0579   25.9666   13.2463 O   0  0  0  0  0  0
    0.5004   25.2238   12.1803 C   0  0  0  0  0  0
    0.7586   23.8388   12.1630 C   0  0  0  0  0  0
    1.2531   23.5099   10.9156 C   0  0  0  0  0  0
    1.2786   24.6618   10.1770 N   0  0  0  0  0  0
    0.8092   25.7248   10.9114 C   0  0  0  0  0  0
    0.7868   27.0445   10.2864 C   0  0  0  0  0  0
   -0.1046   28.0682   10.3164 C   0  0  0  0  0  0
   -0.0707   29.3738    9.6219 C   0  0  0  0  0  0
   -1.2336   30.0238    9.9894 C   0  0  0  0  0  0
   -1.5730   31.2797    9.4971 C   0  0  0  0  0  0
   -0.7229   31.8873    8.5761 C   0  0  0  0  0  0
    0.4579   31.2535    8.1760 C   0  0  0  0  0  0
    0.8260   30.0128    8.7361 C   0  0  0  0  0  0
    2.1431   29.4521    8.4260 C   0  0  0  0  0  0
    3.2248   28.9367    8.1755 C   0  0  0  0  0  0
    4.4896   28.2401    7.8586 C   0  0  2  0  0  0
    4.9779   28.3730    6.3927 C   0  0  0  0  0  0
    4.0587   27.8527    5.3847 N   0  0  0  0  0  0
    4.4586   26.8602    8.1834 O   0  0  0  0  0  0
    1.2589   31.8913    7.2862 F   0  0  0  0  0  0
   -1.9375   29.2304   10.8568 N   0  0  0  0  0  0
   -1.3715   28.0298   11.0388 C   0  0  0  0  0  0
   -1.8896   27.1226   11.6837 O   0  0  0  0  0  0
    1.5850   24.7202    9.2131 H   0  0  0  0  0  0
   -1.3112   26.0386   14.7799 H   0  0  0  0  0  0
   -1.6921   24.8543   13.5359 H   0  0  0  0  0  0
   -0.3859   24.5415   14.7001 H   0  0  0  0  0  0
    0.6141   23.1560   12.9860 H   0  0  0  0  0  0
    1.5718   22.5717   10.4836 H   0  0  0  0  0  0
    1.6680   27.1871    9.6834 H   0  0  0  0  0  0
   -2.4843   31.7768    9.8001 H   0  0  0  0  0  0
   -0.9721   32.8592    8.1750 H   0  0  0  0  0  0
    5.2440   28.7015    8.4984 H   0  0  0  0  0  0
    5.9275   27.8469    6.2893 H   0  0  0  0  0  0
    5.1845   29.4179    6.1609 H   0  0  0  0  0  0
    4.5224   27.8261    4.4879 H   0  0  0  0  0  0
    3.8465   26.8922    5.6213 H   0  0  0  0  0  0
    4.6754   26.7500    9.1190 H   0  0  0  0  0  0
   -2.7972   29.5030   11.3125 H   0  0  0  0  0  0
  1  2  1  0  0  0
  1 27  1  0  0  0
  1 28  1  0  0  0
  1 29  1  0  0  0
  2  3  1  0  0  0
  3  7  2  0  0  0
  3  4  1  0  0  0
  4  5  2  0  0  0
  4 30  1  0  0  0
  5  6  1  0  0  0
  5 31  1  0  0  0
  6 26  1  0  0  0
  6  7  1  0  0  0
  7  8  1  0  0  0
  8  9  2  0  0  0
  8 32  1  0  0  0
  9 24  1  0  0  0
  9 10  1  0  0  0
 10 15  2  0  0  0
 10 11  1  0  0  0
 11 12  2  0  0  0
 11 23  1  0  0  0
 12 13  1  0  0  0
 12 33  1  0  0  0
 13 14  2  0  0  0
 13 34  1  0  0  0
 14 15  1  0  0  0
 14 22  1  0  0  0
 15 16  1  0  0  0
 16 17  3  0  0  0
 17 18  1  0  0  0
 18 19  1  0  0  0
 18 21  1  0  0  0
 18 35  1  0  0  0
 19 20  1  0  0  0
 19 36  1  0  0  0
 19 37  1  0  0  0
 20 38  1  0  0  0
 20 39  1  0  0  0
 21 40  1  0  0  0
 23 24  1  0  0  0
 23 41  1  0  0  0
 24 25  2  0  0  0
M  END
> <s_m_entry_id>
34843

> <s_m_entry_name>
ligand_docking-pose.340

> <s_m_Source_Path>
/home/csk/Desktop/cluster/DUD-E-result/cdk2

> <s_m_Source_File>
ligand_docking-pose.sdf

> <i_m_Source_File_Index>
340

> <i_lp_mmshare_version>
53161

> <r_lp_tautomer_probability>
1

> <s_lp_Force_Field>
OPLS_2005

> <r_lp_Energy>
41.777939

> <b_lp_Chiralities_Consistent>
1

> <s_lp_Variant>
288783-1

> <s_i_glide_gridfile>
glide-grid_1h00

> <i_i_glide_lignum>
1721

> <i_i_glide_rotatable_bonds>
6

> <r_i_docking_score>
-7.23775841234541

> <r_i_glide_ligand_efficiency>
-0.289510336493817

> <r_i_glide_ligand_efficiency_sa>
-0.8465333583956

> <r_i_glide_ligand_efficiency_ln>
-1.71556564184288

> <r_i_glide_gscore>
-7.23775841234541

> <r_i_glide_lipo>
-3.14429816308816

> <r_i_glide_hbond>
-0.163837689329283

> <r_i_glide_metal>
0

> <r_i_glide_rewards>
-1.95702791245355

> <r_i_glide_evdw>
-38.2654342651367

> <r_i_glide_ecoul>
-3.58953905105591

> <r_i_glide_erotb>
0.487904828181779

> <r_i_glide_esite>
-0.00879690474097654

> <r_i_glide_emodel>
-58.9925257331361

> <r_i_glide_energy>
-41.8549733161926

> <r_i_glide_einternal>
3.46825361251831

> <i_i_glide_confnum>
2

> <i_i_glide_posenum>
382

> <r_i_glide_eff_state_penalty>
0

> <i_f3d_flags>
0

> <s_user_duplicate_titles>
288783

> <s_m_subgroup_title>
dock_pv

> <s_m_subgroupid>
dock_pv1

> <b_m_subgroup_collapsed>
0

$$$$
67781
                    3D
 Schrodinger Suite 2021-1.
 35 37  0  0  1  0            999 V2000
    1.5669   26.1662   10.4520 C   0  0  0  0  0  0
    0.4948   27.0620   11.0423 C   0  0  0  0  0  0
    0.1013   28.3595   10.6559 C   0  0  0  0  0  0
   -1.1555   28.8780   11.7598 S   0  0  0  0  0  0
   -1.0727   27.3441   12.5353 C   0  0  0  0  0  0
   -0.1660   26.5358   12.0614 N   0  0  0  0  0  0
   -1.9390   27.0519   13.5462 N   0  0  0  0  0  0
    0.5573   29.2799    9.5614 C   0  0  0  0  0  0
   -0.2086   30.3741    9.1344 C   0  0  0  0  0  0
    0.3167   31.1616    8.1124 C   0  0  0  0  0  0
    1.4910   30.8719    7.4970 N   0  0  0  0  0  0
    2.1620   29.7839    7.9537 C   0  0  0  0  0  0
    1.7519   28.9853    8.9760 N   0  0  0  0  0  0
    3.2960   29.4509    7.2061 N   0  0  0  0  0  0
    4.0544   28.2854    7.0389 C   0  0  0  0  0  0
    4.3018   27.3681    8.0611 C   0  0  0  0  0  0
    5.0030   26.1947    7.7827 C   0  0  0  0  0  0
    5.4793   25.9436    6.4978 C   0  0  0  0  0  0
    5.2611   26.8651    5.4640 C   0  0  0  0  0  0
    4.5471   28.0357    5.7569 C   0  0  0  0  0  0
    5.7868   26.6179    4.0986 N   0  3  0  0  0  0
    6.4384   25.5967    3.8993 O   0  5  0  0  0  0
    5.5512   27.4452    3.2214 O   0  0  0  0  0  0
    2.4966   26.2387   11.0173 H   0  0  0  0  0  0
    1.2761   25.1151   10.4407 H   0  0  0  0  0  0
    1.8033   26.4194    9.4204 H   0  0  0  0  0  0
   -1.9412   26.1533   14.0012 H   0  0  0  0  0  0
   -2.6717   27.7130   13.8063 H   0  0  0  0  0  0
   -1.1568   30.6272    9.5832 H   0  0  0  0  0  0
   -0.2014   32.0470    7.7764 H   0  0  0  0  0  0
    3.5737   30.1964    6.5770 H   0  0  0  0  0  0
    3.9481   27.5506    9.0643 H   0  0  0  0  0  0
    5.1789   25.4803    8.5738 H   0  0  0  0  0  0
    6.0263   25.0301    6.3118 H   0  0  0  0  0  0
    4.3645   28.7592    4.9759 H   0  0  0  0  0  0
  1  2  1  0  0  0
  1 24  1  0  0  0
  1 25  1  0  0  0
  1 26  1  0  0  0
  2  6  1  0  0  0
  2  3  2  0  0  0
  3  4  1  0  0  0
  3  8  1  0  0  0
  4  5  1  0  0  0
  5  6  2  0  0  0
  5  7  1  0  0  0
  7 27  1  0  0  0
  7 28  1  0  0  0
  8 13  1  0  0  0
  8  9  2  0  0  0
  9 10  1  0  0  0
  9 29  1  0  0  0
 10 11  2  0  0  0
 10 30  1  0  0  0
 11 12  1  0  0  0
 12 13  2  0  0  0
 12 14  1  0  0  0
 14 15  1  0  0  0
 14 31  1  0  0  0
 15 20  1  0  0  0
 15 16  2  0  0  0
 16 17  1  0  0  0
 16 32  1  0  0  0
 17 18  2  0  0  0
 17 33  1  0  0  0
 18 19  1  0  0  0
 18 34  1  0  0  0
 19 20  2  0  0  0
 19 21  1  0  0  0
 20 35  1  0  0  0
 21 22  1  0  0  0
 21 23  2  0  0  0
M  CHG  2  21   1  22  -1
M  END
> <s_m_entry_id>
34844

> <s_m_entry_name>
ligand_docking-pose.341

> <s_m_Source_Path>
/home/csk/Desktop/cluster/DUD-E-result/cdk2

> <s_m_Source_File>
ligand_docking-pose.sdf

> <i_m_Source_File_Index>
341

> <i_lp_mmshare_version>
53161

> <r_lp_tautomer_probability>
0.999999987636

> <s_lp_Force_Field>
OPLS_2005

> <r_lp_Energy>
6.396055

> <b_lp_Chiralities_Consistent>
1

> <s_lp_Variant>
67781-1

> <s_i_glide_gridfile>
glide-grid_1h00

> <i_i_glide_lignum>
839

> <i_i_glide_rotatable_bonds>
4

> <r_i_docking_score>
-7.23300506600876

> <r_i_glide_ligand_efficiency>
-0.314478481130816

> <r_i_glide_ligand_efficiency_sa>
-0.894334967427073

> <r_i_glide_ligand_efficiency_ln>
-1.74900621022478

> <r_i_glide_gscore>
-7.23300506600876

> <r_i_glide_lipo>
-2.05175471932542

> <r_i_glide_hbond>
-0.456

> <r_i_glide_metal>
0

> <r_i_glide_rewards>
-2.52981390319119

> <r_i_glide_evdw>
-36.435546875

> <r_i_glide_ecoul>
-5.45460414886475

> <r_i_glide_erotb>
0.522578286235038

> <r_i_glide_esite>
-0.078046763647479

> <r_i_glide_emodel>
-59.0108702879556

> <r_i_glide_energy>
-41.8901510238647

> <r_i_glide_einternal>
4.7738881111145

> <i_i_glide_confnum>
2

> <i_i_glide_posenum>
35

> <r_i_glide_eff_state_penalty>
0

> <i_f3d_flags>
0

> <s_user_duplicate_titles>
67781

> <s_m_subgroup_title>
dock_pv

> <s_m_subgroupid>
dock_pv1

> <b_m_subgroup_collapsed>
0

$$$$
137292
                    3D
 Schrodinger Suite 2021-1.
 44 46  0  0  1  0            999 V2000
   -3.0899   30.6801   10.1543 C   0  0  0  0  0  0
   -1.5915   30.9610    9.9906 C   0  0  0  0  0  0
   -1.3707   32.3535    9.3673 C   0  0  0  0  0  0
   -1.0970   29.8521    9.2394 O   0  0  0  0  0  0
    0.2294   29.7990    8.8789 C   0  0  0  0  0  0
    0.7533   30.5825    7.8483 C   0  0  0  0  0  0
    2.0580   30.4096    7.3987 C   0  0  0  0  0  0
    2.9053   29.4547    7.9585 C   0  0  0  0  0  0
    2.3796   28.6519    8.9762 C   0  0  0  0  0  0
    1.0309   28.7887    9.4584 C   0  0  0  0  0  0
    0.8218   27.7664   10.4666 C   0  0  0  0  0  0
    2.0450   27.1033   10.5534 C   0  0  0  0  0  0
    2.9569   27.6235    9.6856 N   0  0  0  0  0  0
    2.4590   26.0817   11.3638 O   0  0  0  0  0  0
   -0.3341   27.5333   11.1584 N   0  0  0  0  0  0
   -0.2284   26.5513   11.9647 N   0  0  0  0  0  0
   -1.3300   26.1940   12.7386 C   0  0  0  0  0  0
   -1.0939   25.3000   13.7885 C   0  0  0  0  0  0
   -2.1148   24.9086   14.6492 C   0  0  0  0  0  0
   -3.3946   25.4176   14.4538 C   0  0  0  0  0  0
   -3.6608   26.2520   13.3740 C   0  0  0  0  0  0
   -2.6357   26.6509   12.5277 C   0  0  0  0  0  0
   -4.7131   25.1202   15.6038 S   0  0  0  0  0  0
   -5.9420   25.0522   14.8087 O   0  0  0  0  0  0
   -4.3419   24.0329   16.5133 O   0  0  0  0  0  0
   -4.7420   26.5967   16.5334 N   0  0  0  0  0  0
    3.8972   27.2552    9.6277 H   0  0  0  0  0  0
   -3.6015   31.5096   10.6420 H   0  0  0  0  0  0
   -3.2554   29.7879   10.7589 H   0  0  0  0  0  0
   -3.5715   30.5220    9.1887 H   0  0  0  0  0  0
   -1.1244   30.9387   10.9764 H   0  0  0  0  0  0
   -1.8678   33.1274    9.9534 H   0  0  0  0  0  0
   -0.3170   32.6219    9.3320 H   0  0  0  0  0  0
   -1.7709   32.4031    8.3545 H   0  0  0  0  0  0
    0.1269   31.3212    7.3759 H   0  0  0  0  0  0
    2.4298   31.0336    6.5976 H   0  0  0  0  0  0
    3.9192   29.3405    7.6006 H   0  0  0  0  0  0
    2.4580   26.4407   12.2651 H   0  0  0  0  0  0
   -0.0947   24.9226   13.9479 H   0  0  0  0  0  0
   -1.9008   24.2407   15.4693 H   0  0  0  0  0  0
   -4.6516   26.6492   13.2122 H   0  0  0  0  0  0
   -2.8580   27.3306   11.7190 H   0  0  0  0  0  0
   -4.7463   27.4404   15.9494 H   0  0  0  0  0  0
   -4.0083   26.6525   17.2428 H   0  0  0  0  0  0
  1  2  1  0  0  0
  1 28  1  0  0  0
  1 29  1  0  0  0
  1 30  1  0  0  0
  2  3  1  0  0  0
  2  4  1  0  0  0
  2 31  1  0  0  0
  3 32  1  0  0  0
  3 33  1  0  0  0
  3 34  1  0  0  0
  4  5  1  0  0  0
  5 10  1  0  0  0
  5  6  2  0  0  0
  6  7  1  0  0  0
  6 35  1  0  0  0
  7  8  2  0  0  0
  7 36  1  0  0  0
  8  9  1  0  0  0
  8 37  1  0  0  0
  9 13  1  0  0  0
  9 10  2  0  0  0
 10 11  1  0  0  0
 11 12  2  0  0  0
 11 15  1  0  0  0
 12 13  1  0  0  0
 12 14  1  0  0  0
 13 27  1  0  0  0
 14 38  1  0  0  0
 15 16  2  3  0  0
 16 17  1  0  0  0
 17 22  1  0  0  0
 17 18  2  0  0  0
 18 19  1  0  0  0
 18 39  1  0  0  0
 19 20  2  0  0  0
 19 40  1  0  0  0
 20 21  1  0  0  0
 20 23  1  0  0  0
 21 22  2  0  0  0
 21 41  1  0  0  0
 22 42  1  0  0  0
 23 24  2  0  0  0
 23 25  2  0  0  0
 23 26  1  0  0  0
 26 43  1  0  0  0
 26 44  1  0  0  0
M  END
> <s_m_entry_id>
34847

> <s_m_entry_name>
ligand_docking-pose.344

> <s_m_Source_Path>
/home/csk/Desktop/cluster/DUD-E-result/cdk2

> <s_m_Source_File>
ligand_docking-pose.sdf

> <i_m_Source_File_Index>
344

> <i_lp_mmshare_version>
53161

> <r_lp_tautomer_probability>
1

> <s_lp_Force_Field>
OPLS_2005

> <r_lp_Energy>
27.267523

> <b_lp_Chiralities_Consistent>
1

> <s_lp_Variant>
137292-1

> <s_i_glide_gridfile>
glide-grid_1h00

> <i_i_glide_lignum>
1268

> <i_i_glide_rotatable_bonds>
6

> <r_i_docking_score>
-7.23199185755629

> <r_i_glide_ligand_efficiency>
-0.278153532982934

> <r_i_glide_ligand_efficiency_sa>
-0.824028746980641

> <r_i_glide_ligand_efficiency_ln>
-1.6984095576463

> <r_i_glide_gscore>
-7.23199185755629

> <r_i_glide_lipo>
-2.27547478584965

> <r_i_glide_hbond>
-0.344125059881302

> <r_i_glide_metal>
0

> <r_i_glide_rewards>
-0.954011800787479

> <r_i_glide_evdw>
-37.1132583618164

> <r_i_glide_ecoul>
-13.2757768630981

> <r_i_glide_erotb>
0.413785464944952

> <r_i_glide_esite>
-0.225136228427273

> <r_i_glide_emodel>
-70.3847636362604

> <r_i_glide_energy>
-50.3890352249146

> <r_i_glide_einternal>
5.8497838973999

> <i_i_glide_confnum>
4

> <i_i_glide_posenum>
139

> <r_i_glide_eff_state_penalty>
0

> <i_f3d_flags>
0

> <s_user_duplicate_titles>
137292

> <s_m_subgroup_title>
dock_pv

> <s_m_subgroupid>
dock_pv1

> <b_m_subgroup_collapsed>
0

$$$$
310825
                    3D
 Schrodinger Suite 2021-1.
 56 60  0  0  1  0            999 V2000
    7.3169   25.3585    4.7486 C   0  0  0  0  0  0
    6.9274   25.5177    6.1091 O   0  0  0  0  0  0
    5.9576   26.4493    6.4234 C   0  0  0  0  0  0
    5.6772   26.6181    7.7769 C   0  0  0  0  0  0
    4.7161   27.5333    8.1927 C   0  0  0  0  0  0
    4.0251   28.2980    7.2548 C   0  0  0  0  0  0
    4.3134   28.1496    5.8953 C   0  0  0  0  0  0
    5.2580   27.2173    5.4792 C   0  0  0  0  0  0
    2.8898   29.1669    7.6758 C   0  0  0  0  0  0
    1.9494   29.0520    8.6893 C   0  0  0  0  0  0
    1.0149   30.0503    8.4426 C   0  0  0  0  0  0
    1.3283   30.8135    7.4244 N   0  0  0  0  0  0
    2.4577   30.2650    6.9756 N   0  0  0  0  0  0
   -0.0934   29.9550    9.3795 C   0  0  0  0  0  0
   -1.2711   30.6837    9.5250 C   0  0  0  0  0  0
   -2.1679   30.3264   10.5279 C   0  0  0  0  0  0
   -1.8762   29.2624   11.3811 C   0  0  0  0  0  0
   -0.6768   28.5410   11.2543 C   0  0  0  0  0  0
    0.2122   28.8869   10.2252 C   0  0  0  0  0  0
    1.5072   28.2524    9.8194 C   0  0  0  0  0  0
    2.0436   27.2645   10.3214 O   0  0  0  0  0  0
   -0.3169   27.5376   12.1685 N   0  0  0  0  0  0
   -1.1276   26.7028   12.8418 C   0  0  0  0  0  0
   -2.3367   26.5730   12.6312 O   0  0  0  0  0  0
   -0.4257   26.0308   13.7731 N   0  0  0  0  0  0
   -1.0985   25.0521   14.4892 N   0  0  0  0  0  0
   -0.6726   23.7695   14.5161 C   0  0  0  0  0  0
   -0.9160   23.0939   15.5171 O   0  0  0  0  0  0
   -0.1469   23.0737   13.2677 C   0  0  0  0  0  0
   -0.5306   21.7471   13.0182 C   0  0  0  0  0  0
   -0.0552   21.0559   11.9052 C   0  0  0  0  0  0
    0.8133   21.6760   11.0099 C   0  0  0  0  0  0
    1.2156   23.0002   11.2376 C   0  0  0  0  0  0
    0.7511   23.6780   12.3663 C   0  0  0  0  0  0
    2.0686   23.6654   10.3507 N   0  0  0  0  0  0
    1.2557   20.9640    9.9220 O   0  0  0  0  0  0
    2.9778   30.6628    6.2026 H   0  0  0  0  0  0
    8.1082   24.6116    4.6843 H   0  0  0  0  0  0
    6.4857   25.0143    4.1311 H   0  0  0  0  0  0
    7.7115   26.2888    4.3353 H   0  0  0  0  0  0
    6.1983   26.0261    8.5155 H   0  0  0  0  0  0
    4.4940   27.6178    9.2456 H   0  0  0  0  0  0
    3.7783   28.7208    5.1513 H   0  0  0  0  0  0
    5.4489   27.1149    4.4225 H   0  0  0  0  0  0
   -1.4998   31.5110    8.8694 H   0  0  0  0  0  0
   -3.0851   30.8822   10.6610 H   0  0  0  0  0  0
   -2.5784   29.0377   12.1704 H   0  0  0  0  0  0
    0.6762   27.3541   12.2167 H   0  0  0  0  0  0
    0.2319   26.5247   14.3596 H   0  0  0  0  0  0
   -1.8953   25.4041   14.9980 H   0  0  0  0  0  0
   -1.2023   21.2294   13.6905 H   0  0  0  0  0  0
   -0.3652   20.0312   11.7515 H   0  0  0  0  0  0
    1.1313   24.6733   12.5287 H   0  0  0  0  0  0
    2.1562   24.6704   10.4430 H   0  0  0  0  0  0
    2.1417   23.2635    9.4235 H   0  0  0  0  0  0
    0.9261   20.0618    9.9148 H   0  0  0  0  0  0
  1  2  1  0  0  0
  1 38  1  0  0  0
  1 39  1  0  0  0
  1 40  1  0  0  0
  2  3  1  0  0  0
  3  8  1  0  0  0
  3  4  2  0  0  0
  4  5  1  0  0  0
  4 41  1  0  0  0
  5  6  2  0  0  0
  5 42  1  0  0  0
  6  7  1  0  0  0
  6  9  1  0  0  0
  7  8  2  0  0  0
  7 43  1  0  0  0
  8 44  1  0  0  0
  9 13  1  0  0  0
  9 10  2  0  0  0
 10 20  1  0  0  0
 10 11  1  0  0  0
 11 12  2  0  0  0
 11 14  1  0  0  0
 12 13  1  0  0  0
 13 37  1  0  0  0
 14 19  2  0  0  0
 14 15  1  0  0  0
 15 16  2  0  0  0
 15 45  1  0  0  0
 16 17  1  0  0  0
 16 46  1  0  0  0
 17 18  2  0  0  0
 17 47  1  0  0  0
 18 19  1  0  0  0
 18 22  1  0  0  0
 19 20  1  0  0  0
 20 21  2  0  0  0
 22 23  1  0  0  0
 22 48  1  0  0  0
 23 24  2  0  0  0
 23 25  1  0  0  0
 25 26  1  0  0  0
 25 49  1  0  0  0
 26 27  1  0  0  0
 26 50  1  0  0  0
 27 28  2  0  0  0
 27 29  1  0  0  0
 29 34  1  0  0  0
 29 30  2  0  0  0
 30 31  1  0  0  0
 30 51  1  0  0  0
 31 32  2  0  0  0
 31 52  1  0  0  0
 32 33  1  0  0  0
 32 36  1  0  0  0
 33 34  2  0  0  0
 33 35  1  0  0  0
 34 53  1  0  0  0
 35 54  1  0  0  0
 35 55  1  0  0  0
 36 56  1  0  0  0
M  END
> <s_m_entry_id>
34851

> <s_m_entry_name>
ligand_docking-pose.348

> <s_m_Source_Path>
/home/csk/Desktop/cluster/DUD-E-result/cdk2

> <s_m_Source_File>
ligand_docking-pose.sdf

> <i_m_Source_File_Index>
348

> <i_lp_mmshare_version>
53161

> <r_lp_tautomer_probability>
1

> <s_lp_Force_Field>
OPLS_2005

> <r_lp_Energy>
66.986973

> <b_lp_Chiralities_Consistent>
1

> <s_lp_Variant>
310825-1

> <s_i_glide_gridfile>
glide-grid_1h00

> <i_i_glide_lignum>
1647

> <i_i_glide_rotatable_bonds>
9

> <r_i_docking_score>
-7.21173971081507

> <r_i_glide_ligand_efficiency>
-0.200326103078196

> <r_i_glide_ligand_efficiency_sa>
-0.661462217628649

> <r_i_glide_ligand_efficiency_ln>
-1.57340676620925

> <r_i_glide_gscore>
-7.21173971081507

> <r_i_glide_lipo>
-2.5724060726525

> <r_i_glide_hbond>
-0.255649696537145

> <r_i_glide_metal>
0

> <r_i_glide_rewards>
-1.04150025510478

> <r_i_glide_evdw>
-52.3591499328613

> <r_i_glide_ecoul>
-8.49072265625

> <r_i_glide_erotb>
0.605683394999037

> <r_i_glide_esite>
-0.0563011864391107

> <r_i_glide_emodel>
-80.2931047294301

> <r_i_glide_energy>
-60.8498725891113

> <r_i_glide_einternal>
12.5554904937744

> <i_i_glide_confnum>
33

> <i_i_glide_posenum>
210

> <r_i_glide_eff_state_penalty>
0

> <i_f3d_flags>
0

> <s_user_duplicate_titles>
310825

> <s_m_subgroup_title>
dock_pv

> <s_m_subgroupid>
dock_pv1

> <b_m_subgroup_collapsed>
0

$$$$
137620
                    3D
 Schrodinger Suite 2021-1.
 41 43  0  0  1  0            999 V2000
   -3.3968   26.6518   12.6039 C   0  0  0  0  0  0
   -2.8548   27.6677   11.7764 O   0  0  0  0  0  0
   -1.5235   27.8974   11.7617 C   0  0  0  0  0  0
   -0.7007   27.2172   12.3824 O   0  0  0  0  0  0
   -1.1440   28.9520   10.7755 C   0  0  0  0  0  0
   -1.9957   30.0278   10.4883 C   0  0  0  0  0  0
   -1.6636   31.0183    9.5638 C   0  0  0  0  0  0
   -0.4424   30.8783    8.9000 C   0  0  0  0  0  0
    0.4545   29.7975    9.1623 C   0  0  0  0  0  0
    0.0949   28.8530   10.1346 C   0  0  0  0  0  0
    1.5908   29.9356    8.2905 C   0  0  0  0  0  0
    1.3282   31.0652    7.5472 C   0  0  0  0  0  0
    0.1588   31.6517    7.9363 N   0  0  0  0  0  0
    2.0579   31.6851    6.5752 O   0  0  0  0  0  0
    2.7363   29.0521    8.2167 C   0  0  0  0  0  0
    3.4857   29.0516    7.1941 N   0  0  0  0  0  0
    4.4574   28.0544    7.0354 C   0  0  0  0  0  0
    5.2475   27.5587    8.0847 C   0  0  0  0  0  0
    6.2369   26.6173    7.8466 C   0  0  0  0  0  0
    6.4984   26.2051    6.5449 C   0  0  0  0  0  0
    5.7026   26.6519    5.4901 C   0  0  0  0  0  0
    4.7025   27.5881    5.7405 C   0  0  0  0  0  0
    7.9311   25.1909    6.2367 S   0  0  0  0  0  0
    8.8679   25.4368    7.3383 O   0  0  0  0  0  0
    7.4496   23.8411    5.9270 O   0  0  0  0  0  0
    8.6517   25.8516    4.7937 N   0  0  0  0  0  0
   -0.1724   32.5092    7.5210 H   0  0  0  0  0  0
   -4.4763   26.5909   12.4626 H   0  0  0  0  0  0
   -2.9619   25.6812   12.3655 H   0  0  0  0  0  0
   -3.1970   26.8587   13.6564 H   0  0  0  0  0  0
   -2.9462   30.1150   10.9990 H   0  0  0  0  0  0
   -2.3366   31.8416    9.3674 H   0  0  0  0  0  0
    0.7621   28.0306   10.3560 H   0  0  0  0  0  0
    2.9070   31.2205    6.4868 H   0  0  0  0  0  0
    2.8353   28.3774    9.0639 H   0  0  0  0  0  0
    5.1037   27.9074    9.0977 H   0  0  0  0  0  0
    6.8380   26.2632    8.6737 H   0  0  0  0  0  0
    5.8950   26.3319    4.4771 H   0  0  0  0  0  0
    4.1191   27.9725    4.9167 H   0  0  0  0  0  0
    8.1004   25.6906    3.9498 H   0  0  0  0  0  0
    8.9282   26.8326    4.8947 H   0  0  0  0  0  0
  1  2  1  0  0  0
  1 28  1  0  0  0
  1 29  1  0  0  0
  1 30  1  0  0  0
  2  3  1  0  0  0
  3  4  2  0  0  0
  3  5  1  0  0  0
  5 10  1  0  0  0
  5  6  2  0  0  0
  6  7  1  0  0  0
  6 31  1  0  0  0
  7  8  2  0  0  0
  7 32  1  0  0  0
  8 13  1  0  0  0
  8  9  1  0  0  0
  9 10  2  0  0  0
  9 11  1  0  0  0
 10 33  1  0  0  0
 11 12  2  0  0  0
 11 15  1  0  0  0
 12 13  1  0  0  0
 12 14  1  0  0  0
 13 27  1  0  0  0
 14 34  1  0  0  0
 15 16  2  0  0  0
 15 35  1  0  0  0
 16 17  1  0  0  0
 17 22  1  0  0  0
 17 18  2  0  0  0
 18 19  1  0  0  0
 18 36  1  0  0  0
 19 20  2  0  0  0
 19 37  1  0  0  0
 20 21  1  0  0  0
 20 23  1  0  0  0
 21 22  2  0  0  0
 21 38  1  0  0  0
 22 39  1  0  0  0
 23 24  2  0  0  0
 23 25  2  0  0  0
 23 26  1  0  0  0
 26 40  1  0  0  0
 26 41  1  0  0  0
M  END
> <s_m_entry_id>
34852

> <s_m_entry_name>
ligand_docking-pose.349

> <s_m_Source_Path>
/home/csk/Desktop/cluster/DUD-E-result/cdk2

> <s_m_Source_File>
ligand_docking-pose.sdf

> <i_m_Source_File_Index>
349

> <i_lp_mmshare_version>
53161

> <r_lp_tautomer_probability>
1

> <s_lp_Force_Field>
OPLS_2005

> <r_lp_Energy>
24.813221

> <b_lp_Chiralities_Consistent>
1

> <s_lp_Variant>
137620-1

> <s_i_glide_gridfile>
glide-grid_1h00

> <i_i_glide_lignum>
1743

> <i_i_glide_rotatable_bonds>
6

> <r_i_docking_score>
-7.20994811504216

> <r_i_glide_ligand_efficiency>
-0.277305696732391

> <r_i_glide_ligand_efficiency_sa>
-0.82151703542448

> <r_i_glide_ligand_efficiency_ln>
-1.69323265704827

> <r_i_glide_gscore>
-7.20994811504216

> <r_i_glide_lipo>
-2.54468116363812

> <r_i_glide_hbond>
-0.586716489656842

> <r_i_glide_metal>
0

> <r_i_glide_rewards>
-1.51192265146456

> <r_i_glide_evdw>
-38.243522644043

> <r_i_glide_ecoul>
-7.01937246322632

> <r_i_glide_erotb>
0.415831947366998

> <r_i_glide_esite>
-0.017377755963532

> <r_i_glide_emodel>
-58.0099862363694

> <r_i_glide_energy>
-45.2628951072693

> <r_i_glide_einternal>
8.57050609588623

> <i_i_glide_confnum>
14

> <i_i_glide_posenum>
19

> <r_i_glide_eff_state_penalty>
0

> <i_f3d_flags>
0

> <s_user_duplicate_titles>
137620

> <s_m_subgroup_title>
dock_pv

> <s_m_subgroupid>
dock_pv1

> <b_m_subgroup_collapsed>
0

$$$$
116003
                    3D
 Schrodinger Suite 2021-1.
 49 54  0  0  1  0            999 V2000
    0.2103   22.2167   11.5067 C   0  0  0  0  0  0
   -0.5043   22.9246   12.5595 N   0  0  0  0  0  0
   -1.1124   22.2438   13.5898 C   0  0  0  0  0  0
   -1.9434   23.0801   14.2961 C   0  0  0  0  0  0
   -1.8879   24.3522   13.6486 C   0  0  0  0  0  0
   -0.8407   24.2799   12.6806 C   0  0  0  0  0  0
   -0.4236   25.4624   11.9707 C   0  0  0  0  0  0
   -1.2916   26.5941   12.0241 C   0  0  0  0  0  0
   -2.3858   26.5936   12.9173 C   0  0  0  0  0  0
   -2.6267   25.5316   13.7797 C   0  0  0  0  0  0
   -1.0372   27.7208   11.1880 C   0  0  0  0  0  0
    0.1144   27.8094   10.3875 C   0  0  0  0  0  0
    0.0343   29.0383    9.6864 C   0  0  0  0  0  0
    0.8715   29.6911    8.7621 C   0  0  0  0  0  0
    0.4589   30.8922    8.1986 C   0  0  0  0  0  0
   -0.7412   31.4719    8.5758 C   0  0  0  0  0  0
   -1.6234   30.8609    9.4660 C   0  0  0  0  0  0
   -1.1975   29.6565   10.0460 C   0  0  0  0  0  0
   -1.7975   28.8590   11.0058 N   0  0  0  0  0  0
   -2.9270   31.5633    9.7530 C   0  0  0  0  0  0
   -2.8107   32.4536   10.9870 C   0  0  0  0  0  0
   -1.9447   33.7045   10.8131 C   0  0  0  0  0  0
   -2.3420   34.6518   11.7758 O   0  0  0  0  0  0
    1.0450   26.7621   10.4677 C   0  0  0  0  0  0
    0.7991   25.6388   11.2395 C   0  0  0  0  0  0
    2.0790   24.8727   11.2448 C   0  0  0  0  0  0
    2.4355   23.9265   11.9425 O   0  0  0  0  0  0
    2.8580   25.4645   10.3300 N   0  0  0  0  0  0
    2.3889   26.6177    9.8527 C   0  0  0  0  0  0
    2.9981   27.3706    9.0995 O   0  0  0  0  0  0
   -2.6639   29.0703   11.4819 H   0  0  0  0  0  0
    0.3862   22.8617   10.6487 H   0  0  0  0  0  0
    1.1443   21.8151   11.8978 H   0  0  0  0  0  0
   -0.3977   21.3769   11.1693 H   0  0  0  0  0  0
   -0.9580   21.1761   13.6866 H   0  0  0  0  0  0
   -2.5903   22.7748   15.1051 H   0  0  0  0  0  0
   -3.0323   27.4523   12.9723 H   0  0  0  0  0  0
   -3.4398   25.5946   14.4866 H   0  0  0  0  0  0
    1.8160   29.2784    8.4541 H   0  0  0  0  0  0
    1.0965   31.3957    7.4866 H   0  0  0  0  0  0
   -1.0063   32.4241    8.1391 H   0  0  0  0  0  0
   -3.7007   30.8101    9.9087 H   0  0  0  0  0  0
   -3.2435   32.1387    8.8824 H   0  0  0  0  0  0
   -2.3554   31.8576   11.7773 H   0  0  0  0  0  0
   -3.8178   32.7194   11.3152 H   0  0  0  0  0  0
   -2.0812   34.1448    9.8259 H   0  0  0  0  0  0
   -0.8876   33.4521   10.9113 H   0  0  0  0  0  0
   -3.1631   35.0535   11.4725 H   0  0  0  0  0  0
    3.8224   25.2040   10.1734 H   0  0  0  0  0  0
  1  2  1  0  0  0
  1 32  1  0  0  0
  1 33  1  0  0  0
  1 34  1  0  0  0
  2  6  1  0  0  0
  2  3  1  0  0  0
  3  4  2  0  0  0
  3 35  1  0  0  0
  4  5  1  0  0  0
  4 36  1  0  0  0
  5 10  2  0  0  0
  5  6  1  0  0  0
  6  7  2  0  0  0
  7 25  1  0  0  0
  7  8  1  0  0  0
  8  9  2  0  0  0
  8 11  1  0  0  0
  9 10  1  0  0  0
  9 37  1  0  0  0
 10 38  1  0  0  0
 11 19  1  0  0  0
 11 12  2  0  0  0
 12 13  1  0  0  0
 12 24  1  0  0  0
 13 18  2  0  0  0
 13 14  1  0  0  0
 14 15  2  0  0  0
 14 39  1  0  0  0
 15 16  1  0  0  0
 15 40  1  0  0  0
 16 17  2  0  0  0
 16 41  1  0  0  0
 17 18  1  0  0  0
 17 20  1  0  0  0
 18 19  1  0  0  0
 19 31  1  0  0  0
 20 21  1  0  0  0
 20 42  1  0  0  0
 20 43  1  0  0  0
 21 22  1  0  0  0
 21 44  1  0  0  0
 21 45  1  0  0  0
 22 23  1  0  0  0
 22 46  1  0  0  0
 22 47  1  0  0  0
 23 48  1  0  0  0
 24 29  1  0  0  0
 24 25  2  0  0  0
 25 26  1  0  0  0
 26 27  2  0  0  0
 26 28  1  0  0  0
 28 29  1  0  0  0
 28 49  1  0  0  0
 29 30  2  0  0  0
M  END
> <s_m_entry_id>
34853

> <s_m_entry_name>
ligand_docking-pose.350

> <s_m_Source_Path>
/home/csk/Desktop/cluster/DUD-E-result/cdk2

> <s_m_Source_File>
ligand_docking-pose.sdf

> <i_m_Source_File_Index>
350

> <i_lp_mmshare_version>
53161

> <r_lp_tautomer_probability>
1

> <s_lp_Force_Field>
OPLS_2005

> <r_lp_Energy>
80.884197

> <b_lp_Chiralities_Consistent>
1

> <s_lp_Variant>
116003-1

> <s_i_glide_gridfile>
glide-grid_1h00

> <i_i_glide_lignum>
1453

> <i_i_glide_rotatable_bonds>
4

> <r_i_docking_score>
-7.20333898932043

> <r_i_glide_ligand_efficiency>
-0.240111299644014

> <r_i_glide_ligand_efficiency_sa>
-0.746081634454851

> <r_i_glide_ligand_efficiency_ln>
-1.63667710503818

> <r_i_glide_gscore>
-7.20333898932043

> <r_i_glide_lipo>
-2.8920918809347

> <r_i_glide_hbond>
-0.210146336605603

> <r_i_glide_metal>
0

> <r_i_glide_rewards>
-1.29747111588996

> <r_i_glide_evdw>
-39.8246002197266

> <r_i_glide_ecoul>
-7.30538988113403

> <r_i_glide_erotb>
0.371794242684011

> <r_i_glide_esite>
-0.0883854054177478

> <r_i_glide_emodel>
-65.3518023218438

> <r_i_glide_energy>
-47.1299901008606

> <r_i_glide_einternal>
2.71785402297974

> <i_i_glide_confnum>
24

> <i_i_glide_posenum>
201

> <r_i_glide_eff_state_penalty>
0

> <i_f3d_flags>
0

> <s_user_duplicate_titles>
116003

> <s_m_subgroup_title>
dock_pv

> <s_m_subgroupid>
dock_pv1

> <b_m_subgroup_collapsed>
0

$$$$
625509
                    3D
 Schrodinger Suite 2021-1.
 44 47  0  0  1  0            999 V2000
    2.3668   25.6778   10.0877 C   0  0  0  0  0  0
    1.3690   26.4829   10.7721 N   0  0  0  0  0  0
    0.9515   27.7602   10.4801 C   0  0  0  0  0  0
   -0.0326   28.0448   11.4110 C   0  0  0  0  0  0
   -0.1762   26.8584   12.1714 C   0  0  0  0  0  0
    0.6755   25.9350   11.7767 N   0  0  0  0  0  0
   -1.0817   26.6657   13.2639 C   0  0  0  0  0  0
   -0.7296   26.2514   14.3676 O   0  0  0  0  0  0
   -2.3420   26.9756   12.9768 N   0  0  0  0  0  0
   -0.7073   29.4191   11.4053 C   0  0  0  0  0  0
   -0.8073   29.9398    9.9384 C   0  0  0  0  0  0
    0.5034   29.7889    9.1565 C   0  0  0  0  0  0
    1.3715   28.7158    9.4243 C   0  0  0  0  0  0
    2.5215   28.5110    8.7429 N   0  0  0  0  0  0
    2.7973   29.3681    7.7312 C   0  0  0  0  0  0
    2.0402   30.4449    7.3942 N   0  0  0  0  0  0
    0.9057   30.6412    8.1213 C   0  0  0  0  0  0
    3.8418   29.0520    6.8604 N   0  0  0  0  0  0
    4.6522   27.9122    6.7781 C   0  0  0  0  0  0
    4.8636   27.3459    5.5229 C   0  0  0  0  0  0
    5.6721   26.2185    5.3933 C   0  0  0  0  0  0
    6.2807   25.6507    6.5255 C   0  0  0  0  0  0
    6.0608   26.2242    7.7758 C   0  0  0  0  0  0
    5.2563   27.3528    7.9074 C   0  0  0  0  0  0
    7.0996   24.5394    6.4997 O   0  0  0  0  0  0
    7.4332   23.9583    5.2430 C   0  0  0  0  0  0
    3.2619   26.2763    9.9454 H   0  0  0  0  0  0
    2.6288   24.7993   10.6761 H   0  0  0  0  0  0
    1.9867   25.3659    9.1155 H   0  0  0  0  0  0
   -3.0307   27.0072   13.7162 H   0  0  0  0  0  0
   -2.5811   27.3181   12.0589 H   0  0  0  0  0  0
   -1.7029   29.3829   11.8478 H   0  0  0  0  0  0
   -0.1357   30.1249   12.0111 H   0  0  0  0  0  0
   -1.1354   30.9804    9.9320 H   0  0  0  0  0  0
   -1.5824   29.3753    9.4194 H   0  0  0  0  0  0
    0.3021   31.4931    7.8397 H   0  0  0  0  0  0
    4.0415   29.7736    6.1785 H   0  0  0  0  0  0
    4.4036   27.7765    4.6447 H   0  0  0  0  0  0
    5.8188   25.8040    4.4077 H   0  0  0  0  0  0
    6.5210   25.7932    8.6527 H   0  0  0  0  0  0
    5.1096   27.7858    8.8856 H   0  0  0  0  0  0
    8.1003   23.1131    5.4010 H   0  0  0  0  0  0
    6.5457   23.5875    4.7279 H   0  0  0  0  0  0
    7.9511   24.6726    4.5994 H   0  0  0  0  0  0
  1  2  1  0  0  0
  1 27  1  0  0  0
  1 28  1  0  0  0
  1 29  1  0  0  0
  2  6  1  0  0  0
  2  3  1  0  0  0
  3 13  1  0  0  0
  3  4  2  0  0  0
  4  5  1  0  0  0
  4 10  1  0  0  0
  5  6  2  0  0  0
  5  7  1  0  0  0
  7  8  2  0  0  0
  7  9  1  0  0  0
  9 30  1  0  0  0
  9 31  1  0  0  0
 10 11  1  0  0  0
 10 32  1  0  0  0
 10 33  1  0  0  0
 11 12  1  0  0  0
 11 34  1  0  0  0
 11 35  1  0  0  0
 12 17  2  0  0  0
 12 13  1  0  0  0
 13 14  2  0  0  0
 14 15  1  0  0  0
 15 16  2  0  0  0
 15 18  1  0  0  0
 16 17  1  0  0  0
 17 36  1  0  0  0
 18 19  1  0  0  0
 18 37  1  0  0  0
 19 24  1  0  0  0
 19 20  2  0  0  0
 20 21  1  0  0  0
 20 38  1  0  0  0
 21 22  2  0  0  0
 21 39  1  0  0  0
 22 23  1  0  0  0
 22 25  1  0  0  0
 23 24  2  0  0  0
 23 40  1  0  0  0
 24 41  1  0  0  0
 25 26  1  0  0  0
 26 42  1  0  0  0
 26 43  1  0  0  0
 26 44  1  0  0  0
M  END
> <s_m_entry_id>
34856

> <s_m_entry_name>
ligand_docking-pose.353

> <s_m_Source_Path>
/home/csk/Desktop/cluster/DUD-E-result/cdk2

> <s_m_Source_File>
ligand_docking-pose.sdf

> <i_m_Source_File_Index>
353

> <i_lp_mmshare_version>
53161

> <r_lp_tautomer_probability>
0.999999987636

> <s_lp_Force_Field>
OPLS_2005

> <r_lp_Energy>
16.665027

> <b_lp_Chiralities_Consistent>
1

> <s_lp_Variant>
625509-1

> <s_i_glide_gridfile>
glide-grid_1h00

> <i_i_glide_lignum>
1430

> <i_i_glide_rotatable_bonds>
4

> <r_i_docking_score>
-7.20108078070681

> <r_i_glide_ligand_efficiency>
-0.2769646454118

> <r_i_glide_ligand_efficiency_sa>
-0.820506672229204

> <r_i_glide_ligand_efficiency_ln>
-1.69115019267571

> <r_i_glide_gscore>
-7.20108078070681

> <r_i_glide_lipo>
-2.27065097994012

> <r_i_glide_hbond>
-0.287188491457597

> <r_i_glide_metal>
0

> <r_i_glide_rewards>
-2.18639860176085

> <r_i_glide_evdw>
-38.4041175842285

> <r_i_glide_ecoul>
-5.24202442169189

> <r_i_glide_erotb>
0.310520124743669

> <r_i_glide_esite>
-0.0608532898267013

> <r_i_glide_emodel>
-63.112905200612

> <r_i_glide_energy>
-43.6461420059204

> <r_i_glide_einternal>
2.51865792274475

> <i_i_glide_confnum>
5

> <i_i_glide_posenum>
53

> <r_i_glide_eff_state_penalty>
0

> <i_f3d_flags>
0

> <s_user_duplicate_titles>
625509

> <s_m_subgroup_title>
dock_pv

> <s_m_subgroupid>
dock_pv1

> <b_m_subgroup_collapsed>
0

$$$$
574947
                    3D
 Schrodinger Suite 2021-1.
 54 57  0  0  1  0            999 V2000
   -1.6840   31.6570    9.1186 C   0  0  0  0  0  0
   -0.3425   31.0309    8.7713 C   0  0  0  0  0  0
    0.4578   31.6332    7.7933 C   0  0  0  0  0  0
    1.6357   31.1127    7.3760 N   0  0  0  0  0  0
    2.0435   29.9713    7.9792 C   0  0  0  0  0  0
    1.3566   29.3235    8.9689 N   0  0  0  0  0  0
    0.1591   29.8502    9.3626 C   0  0  0  0  0  0
   -0.5459   29.0577   10.4347 C   0  0  0  0  0  0
   -0.3992   27.6836   10.7343 C   0  0  0  0  0  0
   -1.2522   27.3219   11.7857 C   0  0  0  0  0  0
   -1.9046   28.4731   12.1418 N   0  0  0  0  0  0
   -1.4827   29.5135   11.3617 C   0  0  0  0  0  0
   -1.5248   26.0584   12.4210 C   0  0  0  0  0  0
   -2.4228   25.9495   13.2578 O   0  0  0  0  0  0
   -0.7311   25.0365   12.0480 N   0  0  0  0  0  0
   -0.8238   23.6597   12.5712 C   0  0  2  0  0  0
   -0.5694   23.5766   14.1069 C   0  0  0  0  0  0
   -0.7988   22.2931   14.6601 O   0  0  0  0  0  0
    0.0225   22.6461   11.7788 C   0  0  0  0  0  0
   -0.3862   21.3051   11.7379 C   0  0  0  0  0  0
    0.3160   20.3627   10.9914 C   0  0  0  0  0  0
    1.4399   20.7500   10.2651 C   0  0  0  0  0  0
    1.8647   22.0775   10.2923 C   0  0  0  0  0  0
    1.1618   23.0230   11.0460 C   0  0  0  0  0  0
    3.2524   22.5436    9.3769 Cl  0  0  0  0  0  0
    3.2580   29.4782    7.4808 N   0  0  0  0  0  0
    3.8494   28.2067    7.5046 C   0  0  0  0  0  0
    3.6532   27.3350    8.5805 C   0  0  0  0  0  0
    4.0583   26.0061    8.5022 C   0  0  0  0  0  0
    4.7536   25.5496    7.3864 C   0  0  0  0  0  0
    5.0029   26.4186    6.3283 C   0  0  0  0  0  0
    4.5403   27.7353    6.3716 C   0  0  0  0  0  0
    4.8182   28.7259    4.9788 Cl  0  0  0  0  0  0
    5.1912   24.2710    7.3358 F   0  0  0  0  0  0
   -2.6016   28.5442   12.8796 H   0  0  0  0  0  0
   -1.8610   23.3653   12.4007 H   0  0  0  0  0  0
   -1.9958   32.3974    8.3793 H   0  0  0  0  0  0
   -2.4668   30.8969    9.1443 H   0  0  0  0  0  0
   -1.6354   32.1477   10.0920 H   0  0  0  0  0  0
    0.1569   32.5677    7.3419 H   0  0  0  0  0  0
    0.2642   27.0154   10.2048 H   0  0  0  0  0  0
   -1.9064   30.4899   11.5417 H   0  0  0  0  0  0
   -0.1780   25.1671   11.2159 H   0  0  0  0  0  0
    0.4581   23.8488   14.3224 H   0  0  0  0  0  0
   -1.1821   24.2867   14.6606 H   0  0  0  0  0  0
   -1.7197   22.0522   14.5308 H   0  0  0  0  0  0
   -1.2542   20.9748   12.2908 H   0  0  0  0  0  0
   -0.0155   19.3322   10.9833 H   0  0  0  0  0  0
    1.9788   20.0186    9.6798 H   0  0  0  0  0  0
    1.5049   24.0470   11.0491 H   0  0  0  0  0  0
    3.6827   30.1066    6.8070 H   0  0  0  0  0  0
    3.1495   27.6584    9.4776 H   0  0  0  0  0  0
    3.8760   25.3435    9.3341 H   0  0  0  0  0  0
    5.5380   26.0606    5.4609 H   0  0  0  0  0  0
  1  2  1  0  0  0
  1 37  1  0  0  0
  1 38  1  0  0  0
  1 39  1  0  0  0
  2  7  1  0  0  0
  2  3  2  0  0  0
  3  4  1  0  0  0
  3 40  1  0  0  0
  4  5  2  0  0  0
  5  6  1  0  0  0
  5 26  1  0  0  0
  6  7  2  0  0  0
  7  8  1  0  0  0
  8 12  2  0  0  0
  8  9  1  0  0  0
  9 10  2  0  0  0
  9 41  1  0  0  0
 10 11  1  0  0  0
 10 13  1  0  0  0
 11 35  1  0  0  0
 11 12  1  0  0  0
 12 42  1  0  0  0
 13 14  2  0  0  0
 13 15  1  0  0  0
 15 16  1  0  0  0
 15 43  1  0  0  0
 16 36  1  0  0  0
 16 17  1  0  0  0
 16 19  1  0  0  0
 17 18  1  0  0  0
 17 44  1  0  0  0
 17 45  1  0  0  0
 18 46  1  0  0  0
 19 24  1  0  0  0
 19 20  2  0  0  0
 20 21  1  0  0  0
 20 47  1  0  0  0
 21 22  2  0  0  0
 21 48  1  0  0  0
 22 23  1  0  0  0
 22 49  1  0  0  0
 23 24  2  0  0  0
 23 25  1  0  0  0
 24 50  1  0  0  0
 26 27  1  0  0  0
 26 51  1  0  0  0
 27 32  1  0  0  0
 27 28  2  0  0  0
 28 29  1  0  0  0
 28 52  1  0  0  0
 29 30  2  0  0  0
 29 53  1  0  0  0
 30 31  1  0  0  0
 30 34  1  0  0  0
 31 32  2  0  0  0
 31 54  1  0  0  0
 32 33  1  0  0  0
M  END
> <s_m_entry_id>
34858

> <s_m_entry_name>
ligand_docking-pose.355

> <s_m_Source_Path>
/home/csk/Desktop/cluster/DUD-E-result/cdk2

> <s_m_Source_File>
ligand_docking-pose.sdf

> <i_m_Source_File_Index>
355

> <i_lp_mmshare_version>
53161

> <r_lp_tautomer_probability>
0.999999987636

> <s_lp_Force_Field>
OPLS_2005

> <r_lp_Energy>
12.433745

> <b_lp_Chiralities_Consistent>
1

> <s_lp_Variant>
574947-1

> <s_i_glide_gridfile>
glide-grid_1h00

> <i_i_glide_lignum>
804

> <i_i_glide_rotatable_bonds>
9

> <r_i_docking_score>
-7.1986005351293

> <r_i_glide_ligand_efficiency>
-0.211723545150862

> <r_i_glide_ligand_efficiency_sa>
-0.685902094672792

> <r_i_glide_ligand_efficiency_ln>
-1.59037277211579

> <r_i_glide_gscore>
-7.1986005351293

> <r_i_glide_lipo>
-2.78179633352128

> <r_i_glide_hbond>
-0.456

> <r_i_glide_metal>
0

> <r_i_glide_rewards>
-1.26747875267899

> <r_i_glide_evdw>
-46.0396194458008

> <r_i_glide_ecoul>
-6.08854627609253

> <r_i_glide_erotb>
0.570930172463006

> <r_i_glide_esite>
-0.048992707688122

> <r_i_glide_emodel>
-72.119271336892

> <r_i_glide_energy>
-52.1281657218933

> <r_i_glide_einternal>
7.71405220031738

> <i_i_glide_confnum>
14

> <i_i_glide_posenum>
18

> <r_i_glide_eff_state_penalty>
0

> <i_f3d_flags>
0

> <s_user_duplicate_titles>
574947

> <s_m_subgroup_title>
dock_pv

> <s_m_subgroupid>
dock_pv1

> <b_m_subgroup_collapsed>
0

$$$$
310731
                    3D
 Schrodinger Suite 2021-1.
 55 59  0  0  1  0            999 V2000
    7.6444   24.5379    6.5898 C   0  0  0  0  0  0
    6.4187   24.4581    7.3109 O   0  0  0  0  0  0
    5.6588   25.6013    7.4707 C   0  0  0  0  0  0
    4.4666   25.4675    8.1762 C   0  0  0  0  0  0
    3.6582   26.5729    8.4358 C   0  0  0  0  0  0
    3.9802   27.8170    7.8794 C   0  0  0  0  0  0
    5.1768   27.9584    7.1742 C   0  0  0  0  0  0
    6.0135   26.8626    6.9761 C   0  0  0  0  0  0
    2.9629   28.9147    7.8906 C   0  0  0  0  0  0
    1.8407   29.1822    8.6643 C   0  0  0  0  0  0
    1.2219   30.2665    8.0693 C   0  0  0  0  0  0
    1.8403   30.7017    7.0074 N   0  0  0  0  0  0
    2.8581   29.8520    6.8955 N   0  0  0  0  0  0
    0.0358   30.6521    8.7998 C   0  0  0  0  0  0
   -0.8300   31.7288    8.6395 C   0  0  0  0  0  0
   -1.8375   31.9297    9.5722 C   0  0  0  0  0  0
   -1.9867   31.0293   10.6228 C   0  0  0  0  0  0
   -1.1754   29.8961   10.7500 C   0  0  0  0  0  0
   -0.1009   29.7356    9.8455 C   0  0  0  0  0  0
    1.0529   28.7663    9.8043 C   0  0  0  0  0  0
    1.3076   27.8475   10.5789 O   0  0  0  0  0  0
   -1.4980   29.0600   11.8332 N   0  0  0  0  0  0
   -1.4321   27.7171   11.8479 C   0  0  0  0  0  0
   -1.4188   27.0208   10.8256 O   0  0  0  0  0  0
   -1.3500   27.2399   13.1060 N   0  0  0  0  0  0
   -0.9584   25.9075   13.1832 N   0  0  0  0  0  0
   -1.5348   25.1163   14.1079 C   0  0  0  0  0  0
   -2.2919   25.5244   14.9956 O   0  0  0  0  0  0
   -1.1670   23.6496   14.0218 C   0  0  0  0  0  0
   -1.3571   22.8137   15.1345 C   0  0  0  0  0  0
   -1.0513   21.4550   15.0703 C   0  0  0  0  0  0
   -0.5560   20.9100   13.8883 C   0  0  0  0  0  0
   -0.3621   21.7190   12.7716 C   0  0  0  0  0  0
   -0.6582   23.0808   12.8372 C   0  0  0  0  0  0
    0.1121   21.1547   11.5906 N   0  0  0  0  0  0
    3.5563   29.9825    6.1751 H   0  0  0  0  0  0
    8.1067   23.5517    6.5568 H   0  0  0  0  0  0
    7.4825   24.8619    5.5599 H   0  0  0  0  0  0
    8.3484   25.2166    7.0719 H   0  0  0  0  0  0
    4.1811   24.5007    8.5600 H   0  0  0  0  0  0
    2.7377   26.4267    8.9793 H   0  0  0  0  0  0
    5.4463   28.9084    6.7383 H   0  0  0  0  0  0
    6.9223   27.0115    6.4167 H   0  0  0  0  0  0
   -0.6900   32.4407    7.8391 H   0  0  0  0  0  0
   -2.4908   32.7869    9.4923 H   0  0  0  0  0  0
   -2.7421   31.2272   11.3627 H   0  0  0  0  0  0
   -2.0679   29.4807   12.5564 H   0  0  0  0  0  0
   -2.1261   27.3992   13.7372 H   0  0  0  0  0  0
   -0.7476   25.5529   12.2599 H   0  0  0  0  0  0
   -1.7514   23.2119   16.0555 H   0  0  0  0  0  0
   -1.2090   20.8180   15.9272 H   0  0  0  0  0  0
   -0.3417   19.8508   13.8378 H   0  0  0  0  0  0
   -0.5080   23.6794   11.9503 H   0  0  0  0  0  0
    0.4517   21.7378   10.8388 H   0  0  0  0  0  0
    0.1493   20.1438   11.5288 H   0  0  0  0  0  0
  1  2  1  0  0  0
  1 37  1  0  0  0
  1 38  1  0  0  0
  1 39  1  0  0  0
  2  3  1  0  0  0
  3  8  1  0  0  0
  3  4  2  0  0  0
  4  5  1  0  0  0
  4 40  1  0  0  0
  5  6  2  0  0  0
  5 41  1  0  0  0
  6  7  1  0  0  0
  6  9  1  0  0  0
  7  8  2  0  0  0
  7 42  1  0  0  0
  8 43  1  0  0  0
  9 13  1  0  0  0
  9 10  2  0  0  0
 10 20  1  0  0  0
 10 11  1  0  0  0
 11 12  2  0  0  0
 11 14  1  0  0  0
 12 13  1  0  0  0
 13 36  1  0  0  0
 14 19  2  0  0  0
 14 15  1  0  0  0
 15 16  2  0  0  0
 15 44  1  0  0  0
 16 17  1  0  0  0
 16 45  1  0  0  0
 17 18  2  0  0  0
 17 46  1  0  0  0
 18 19  1  0  0  0
 18 22  1  0  0  0
 19 20  1  0  0  0
 20 21  2  0  0  0
 22 23  1  0  0  0
 22 47  1  0  0  0
 23 24  2  0  0  0
 23 25  1  0  0  0
 25 26  1  0  0  0
 25 48  1  0  0  0
 26 27  1  0  0  0
 26 49  1  0  0  0
 27 28  2  0  0  0
 27 29  1  0  0  0
 29 34  1  0  0  0
 29 30  2  0  0  0
 30 31  1  0  0  0
 30 50  1  0  0  0
 31 32  2  0  0  0
 31 51  1  0  0  0
 32 33  1  0  0  0
 32 52  1  0  0  0
 33 34  2  0  0  0
 33 35  1  0  0  0
 34 53  1  0  0  0
 35 54  1  0  0  0
 35 55  1  0  0  0
M  END
> <s_m_entry_id>
34859

> <s_m_entry_name>
ligand_docking-pose.356

> <s_m_Source_Path>
/home/csk/Desktop/cluster/DUD-E-result/cdk2

> <s_m_Source_File>
ligand_docking-pose.sdf

> <i_m_Source_File_Index>
356

> <i_lp_mmshare_version>
53161

> <r_lp_tautomer_probability>
1

> <s_lp_Force_Field>
OPLS_2005

> <r_lp_Energy>
68.89736

> <b_lp_Chiralities_Consistent>
1

> <s_lp_Variant>
310731-1

> <s_i_glide_gridfile>
glide-grid_1h00

> <i_i_glide_lignum>
1645

> <i_i_glide_rotatable_bonds>
8

> <r_i_docking_score>
-7.19519334797312

> <r_i_glide_ligand_efficiency>
-0.205576952799232

> <r_i_glide_ligand_efficiency_sa>
-0.67245584365586

> <r_i_glide_ligand_efficiency_ln>
-1.57950462859266

> <r_i_glide_gscore>
-7.19519334797312

> <r_i_glide_lipo>
-2.85017418782391

> <r_i_glide_hbond>
-0.157994999835365

> <r_i_glide_metal>
0

> <r_i_glide_rewards>
-1.21985531852697

> <r_i_glide_evdw>
-44.5102920532227

> <r_i_glide_ecoul>
-8.59950637817383

> <r_i_glide_erotb>
0.643998367267771

> <r_i_glide_esite>
-0.0957266496674469

> <r_i_glide_emodel>
-68.8928738714388

> <r_i_glide_energy>
-53.1097984313965

> <r_i_glide_einternal>
14.4423046112061

> <i_i_glide_confnum>
30

> <i_i_glide_posenum>
32

> <r_i_glide_eff_state_penalty>
0

> <i_f3d_flags>
0

> <s_user_duplicate_titles>
310731

> <s_m_subgroup_title>
dock_pv

> <s_m_subgroupid>
dock_pv1

> <b_m_subgroup_collapsed>
0

$$$$
202914
                    3D
 Schrodinger Suite 2021-1.
 50 53  0  0  1  0            999 V2000
    6.8510   25.4457    5.4431 C   0  0  0  0  0  0
    6.2246   25.7668    6.8010 C   0  0  0  0  0  0
    6.5759   25.0984    7.7749 O   0  0  0  0  0  0
    5.2166   26.8729    6.8740 C   0  0  0  0  0  0
    4.8581   27.6205    5.7474 C   0  0  0  0  0  0
    3.9352   28.6526    5.8601 C   0  0  0  0  0  0
    3.3576   28.9714    7.0917 C   0  0  0  0  0  0
    3.7037   28.2231    8.2191 C   0  0  0  0  0  0
    4.6182   27.1785    8.1016 C   0  0  0  0  0  0
    2.4576   30.0495    7.1410 N   0  0  0  0  0  0
    1.3924   30.3756    7.9909 C   0  0  0  0  0  0
    0.8572   31.6074    7.7743 N   0  0  0  0  0  0
   -0.2119   31.8644    8.5357 C   0  0  0  0  0  0
   -0.8068   30.9810    9.4588 C   0  0  0  0  0  0
   -0.1902   29.7351    9.5765 C   0  0  0  0  0  0
    0.9428   29.4516    8.8796 N   0  0  0  0  0  0
   -0.7897   28.7971   10.3955 O   0  0  0  0  0  0
   -0.4101   27.4237   10.2969 C   0  0  0  0  0  0
    0.3967   27.0003   11.5424 C   0  0  0  0  0  0
   -0.4336   27.0363   12.8521 C   0  0  0  0  0  0
   -1.4942   25.9154   12.9101 C   0  0  0  0  0  0
   -0.8668   24.5236   12.6755 C   0  0  0  0  0  0
   -0.0050   24.4724   11.3963 C   0  0  0  0  0  0
    1.0457   25.6045   11.3779 C   0  0  0  0  0  0
   -1.9008   31.5399   10.0611 N   0  0  0  0  0  0
   -1.9416   32.7455    9.5564 C   0  0  0  0  0  0
   -0.9618   33.0060    8.6222 N   0  0  0  0  0  0
    2.6168   30.7375    6.4228 H   0  0  0  0  0  0
    6.0734   25.1786    4.7255 H   0  0  0  0  0  0
    7.5583   24.6169    5.5241 H   0  0  0  0  0  0
    7.3805   26.3188    5.0584 H   0  0  0  0  0  0
    5.2938   27.4282    4.7768 H   0  0  0  0  0  0
    3.6905   29.2236    4.9755 H   0  0  0  0  0  0
    3.2874   28.4479    9.1877 H   0  0  0  0  0  0
    4.8720   26.6071    8.9759 H   0  0  0  0  0  0
   -0.8389   33.8824    8.1343 H   0  0  0  0  0  0
   -1.3290   26.8434   10.2159 H   0  0  0  0  0  0
    0.1398   27.1923    9.3854 H   0  0  0  0  0  0
    1.2170   27.7109   11.6718 H   0  0  0  0  0  0
    0.2308   26.9449   13.7113 H   0  0  0  0  0  0
   -0.9247   28.0055   12.9547 H   0  0  0  0  0  0
   -1.9993   25.9345   13.8774 H   0  0  0  0  0  0
   -2.2732   26.1009   12.1701 H   0  0  0  0  0  0
   -0.2470   24.2624   13.5343 H   0  0  0  0  0  0
   -1.6510   23.7664   12.6250 H   0  0  0  0  0  0
    0.4914   23.5040   11.3219 H   0  0  0  0  0  0
   -0.6492   24.5518   10.5204 H   0  0  0  0  0  0
    1.6105   25.5630   10.4453 H   0  0  0  0  0  0
    1.7714   25.4415   12.1766 H   0  0  0  0  0  0
   -2.6702   33.5005    9.8084 H   0  0  0  0  0  0
  1  2  1  0  0  0
  1 29  1  0  0  0
  1 30  1  0  0  0
  1 31  1  0  0  0
  2  3  2  0  0  0
  2  4  1  0  0  0
  4  9  1  0  0  0
  4  5  2  0  0  0
  5  6  1  0  0  0
  5 32  1  0  0  0
  6  7  2  0  0  0
  6 33  1  0  0  0
  7  8  1  0  0  0
  7 10  1  0  0  0
  8  9  2  0  0  0
  8 34  1  0  0  0
  9 35  1  0  0  0
 10 11  1  0  0  0
 10 28  1  0  0  0
 11 12  2  0  0  0
 11 16  1  0  0  0
 12 13  1  0  0  0
 13 27  1  0  0  0
 13 14  2  0  0  0
 14 15  1  0  0  0
 14 25  1  0  0  0
 15 16  2  0  0  0
 15 17  1  0  0  0
 17 18  1  0  0  0
 18 19  1  0  0  0
 18 37  1  0  0  0
 18 38  1  0  0  0
 19 24  1  0  0  0
 19 20  1  0  0  0
 19 39  1  0  0  0
 20 21  1  0  0  0
 20 40  1  0  0  0
 20 41  1  0  0  0
 21 22  1  0  0  0
 21 42  1  0  0  0
 21 43  1  0  0  0
 22 23  1  0  0  0
 22 44  1  0  0  0
 22 45  1  0  0  0
 23 24  1  0  0  0
 23 46  1  0  0  0
 23 47  1  0  0  0
 24 48  1  0  0  0
 24 49  1  0  0  0
 25 26  2  0  0  0
 26 50  1  0  0  0
 26 27  1  0  0  0
 27 36  1  0  0  0
M  END
> <s_m_entry_id>
34863

> <s_m_entry_name>
ligand_docking-pose.360

> <s_m_Source_Path>
/home/csk/Desktop/cluster/DUD-E-result/cdk2

> <s_m_Source_File>
ligand_docking-pose.sdf

> <i_m_Source_File_Index>
360

> <i_lp_mmshare_version>
53161

> <r_lp_tautomer_probability>
0.990809311519196

> <s_lp_Force_Field>
OPLS_2005

> <r_lp_Energy>
22.359556

> <b_lp_Chiralities_Consistent>
1

> <s_lp_Variant>
202914-1

> <s_i_glide_gridfile>
glide-grid_1h00

> <i_i_glide_lignum>
1359

> <i_i_glide_rotatable_bonds>
6

> <r_i_docking_score>
-7.19205645035922

> <r_i_glide_ligand_efficiency>
-0.266372461124416

> <r_i_glide_ligand_efficiency_sa>
-0.799117382495327

> <r_i_glide_ligand_efficiency_ln>
-1.67419217132627

> <r_i_glide_gscore>
-7.19205645035922

> <r_i_glide_lipo>
-2.11384839961092

> <r_i_glide_hbond>
-0.093077738587242

> <r_i_glide_metal>
0

> <r_i_glide_rewards>
-2.87521601012413

> <r_i_glide_evdw>
-43.0754051208496

> <r_i_glide_ecoul>
-4.50925540924072

> <r_i_glide_erotb>
0.720244265391658

> <r_i_glide_esite>
0

> <r_i_glide_emodel>
-66.4401531977639

> <r_i_glide_energy>
-47.5846605300903

> <r_i_glide_einternal>
2.36743402481079

> <i_i_glide_confnum>
136

> <i_i_glide_posenum>
169

> <r_i_glide_eff_state_penalty>
0

> <i_f3d_flags>
0

> <s_user_duplicate_titles>
202914

> <s_m_subgroup_title>
dock_pv

> <s_m_subgroupid>
dock_pv1

> <b_m_subgroup_collapsed>
0

$$$$
116960
                    3D
 Schrodinger Suite 2021-1.
 39 44  0  0  1  0            999 V2000
    2.0878   29.9074    7.5132 C   0  0  0  0  0  0
    0.9075   30.3934    8.1942 N   0  0  0  0  0  0
    0.4600   31.6520    7.8595 C   0  0  0  0  0  0
   -0.6468   31.9872    8.5758 C   0  0  0  0  0  0
   -0.9404   30.8722    9.4033 C   0  0  0  0  0  0
    0.1005   29.8811    9.2410 C   0  0  0  0  0  0
    0.0800   28.6679   10.0643 C   0  0  0  0  0  0
   -1.0764   28.5010   10.9016 C   0  0  0  0  0  0
   -2.0801   29.4856   10.9771 C   0  0  0  0  0  0
   -2.0028   30.6625   10.2717 C   0  0  0  0  0  0
   -1.2460   27.3474   11.7123 C   0  0  0  0  0  0
   -0.3319   26.2917   11.7194 C   0  0  0  0  0  0
   -0.8238   25.3394   12.6583 C   0  0  0  0  0  0
   -0.3737   24.0877   13.1195 C   0  0  0  0  0  0
   -1.0651   23.4507   14.1505 C   0  0  0  0  0  0
   -2.1952   24.0248   14.7265 C   0  0  0  0  0  0
   -2.7012   25.2412   14.2730 C   0  0  0  0  0  0
   -2.0057   25.8817   13.2411 C   0  0  0  0  0  0
   -2.2560   27.0833   12.6172 N   0  0  0  0  0  0
   -2.8066   23.3994   15.7617 F   0  0  0  0  0  0
    0.8111   26.4260   10.9142 C   0  0  0  0  0  0
    1.0611   27.5894   10.1818 C   0  0  0  0  0  0
    2.5000   27.4457    9.7806 C   0  0  0  0  0  0
    3.2976   28.2558    9.3416 O   0  0  0  0  0  0
    2.8574   26.1850   10.0469 N   0  0  0  0  0  0
    1.9607   25.4960   10.7484 C   0  0  0  0  0  0
    2.1248   24.3547   11.1754 O   0  0  0  0  0  0
   -3.0119   27.7143   12.8569 H   0  0  0  0  0  0
    2.1224   30.2932    6.4943 H   0  0  0  0  0  0
    2.9783   30.2615    8.0321 H   0  0  0  0  0  0
    2.0643   28.8360    7.4364 H   0  0  0  0  0  0
    0.9807   32.2283    7.1085 H   0  0  0  0  0  0
   -1.1991   32.9124    8.4834 H   0  0  0  0  0  0
   -2.9284   29.3495   11.6304 H   0  0  0  0  0  0
   -2.7762   31.4078   10.3885 H   0  0  0  0  0  0
    0.5070   23.6186   12.7159 H   0  0  0  0  0  0
   -0.7112   22.5005   14.5192 H   0  0  0  0  0  0
   -3.5815   25.6772   14.7207 H   0  0  0  0  0  0
    3.8059   25.8576    9.9150 H   0  0  0  0  0  0
  1  2  1  0  0  0
  1 29  1  0  0  0
  1 30  1  0  0  0
  1 31  1  0  0  0
  2  6  1  0  0  0
  2  3  1  0  0  0
  3  4  2  0  0  0
  3 32  1  0  0  0
  4  5  1  0  0  0
  4 33  1  0  0  0
  5 10  2  0  0  0
  5  6  1  0  0  0
  6  7  2  0  0  0
  7 22  1  0  0  0
  7  8  1  0  0  0
  8  9  2  0  0  0
  8 11  1  0  0  0
  9 10  1  0  0  0
  9 34  1  0  0  0
 10 35  1  0  0  0
 11 19  1  0  0  0
 11 12  2  0  0  0
 12 13  1  0  0  0
 12 21  1  0  0  0
 13 18  2  0  0  0
 13 14  1  0  0  0
 14 15  2  0  0  0
 14 36  1  0  0  0
 15 16  1  0  0  0
 15 37  1  0  0  0
 16 17  2  0  0  0
 16 20  1  0  0  0
 17 18  1  0  0  0
 17 38  1  0  0  0
 18 19  1  0  0  0
 19 28  1  0  0  0
 21 26  1  0  0  0
 21 22  2  0  0  0
 22 23  1  0  0  0
 23 24  2  0  0  0
 23 25  1  0  0  0
 25 26  1  0  0  0
 25 39  1  0  0  0
 26 27  2  0  0  0
M  END
> <s_m_entry_id>
34864

> <s_m_entry_name>
ligand_docking-pose.361

> <s_m_Source_Path>
/home/csk/Desktop/cluster/DUD-E-result/cdk2

> <s_m_Source_File>
ligand_docking-pose.sdf

> <i_m_Source_File_Index>
361

> <i_lp_mmshare_version>
53161

> <r_lp_tautomer_probability>
1

> <s_lp_Force_Field>
OPLS_2005

> <r_lp_Energy>
91.255545

> <b_lp_Chiralities_Consistent>
1

> <s_lp_Variant>
116960-1

> <s_i_glide_gridfile>
glide-grid_1h00

> <i_i_glide_lignum>
1464

> <i_i_glide_rotatable_bonds>
0

> <r_i_docking_score>
-7.19153977453184

> <r_i_glide_ligand_efficiency>
-0.266353324982661

> <r_i_glide_ligand_efficiency_sa>
-0.799059974070125

> <r_i_glide_ligand_efficiency_ln>
-1.67407189771172

> <r_i_glide_gscore>
-7.19153977453184

> <r_i_glide_lipo>
-2.42045169156404

> <r_i_glide_hbond>
-0.219034436620657

> <r_i_glide_metal>
0

> <r_i_glide_rewards>
-1.62548140350075

> <r_i_glide_evdw>
-37.477653503418

> <r_i_glide_ecoul>
-6.12150382995605

> <r_i_glide_erotb>
0

> <r_i_glide_esite>
-0.13446399318209

> <r_i_glide_emodel>
-63.8054461940404

> <r_i_glide_energy>
-43.599157333374

> <r_i_glide_einternal>
0

> <i_i_glide_confnum>
1

> <i_i_glide_posenum>
251

> <r_i_glide_eff_state_penalty>
0

> <i_f3d_flags>
0

> <s_user_duplicate_titles>
116960

> <s_m_subgroup_title>
dock_pv

> <s_m_subgroupid>
dock_pv1

> <b_m_subgroup_collapsed>
0

$$$$
350635
                    3D
 Schrodinger Suite 2021-1.
 49 52  0  0  1  0            999 V2000
    1.5374   31.6601    6.9523 C   0  0  0  0  0  0
    0.4083   31.7073    7.9513 C   0  0  0  0  0  0
   -0.1451   30.7414    8.8342 C   0  0  0  0  0  0
    0.1320   29.4104    9.1534 C   0  0  0  0  0  0
   -0.6009   28.7523   10.1554 C   0  0  0  0  0  0
   -1.6273   29.4488   10.8075 C   0  0  0  0  0  0
   -1.9477   30.7690   10.4878 C   0  0  0  0  0  0
   -1.1967   31.4266    9.5061 C   0  0  0  0  0  0
   -1.3259   32.7177    9.0832 N   0  0  0  0  0  0
   -0.3416   32.8381    8.1766 N   0  0  0  0  0  0
   -0.2772   27.3304   10.4984 C   0  0  0  0  0  0
    1.0139   26.8221   10.3007 C   0  0  0  0  0  0
    1.2988   25.4601   10.4753 C   0  0  0  0  0  0
    0.2790   24.6559   10.9819 C   0  0  0  0  0  0
   -0.9724   25.1156   11.2369 N   0  0  0  0  0  0
   -1.2345   26.4238   10.9781 C   0  0  0  0  0  0
    2.5054   24.8844   10.1229 O   0  0  0  0  0  0
    3.1673   25.4647    8.9896 C   0  0  0  0  0  0
    4.4102   24.6738    8.5683 C   0  0  2  0  0  0
    5.4871   25.4682    7.7910 C   0  0  0  0  0  0
    5.0741   26.0403    6.4403 C   0  0  0  0  0  0
    4.7703   27.4002    6.3244 C   0  0  0  0  0  0
    4.4613   27.9386    5.0785 C   0  0  0  0  0  0
    4.4578   27.1157    3.9539 C   0  0  0  0  0  0
    4.7488   25.7582    4.0645 C   0  0  0  0  0  0
    5.0639   25.2205    5.3088 C   0  0  0  0  0  0
    4.0602   23.4472    7.8686 N   0  0  0  0  0  0
   -0.1810   33.7155    7.6967 H   0  0  0  0  0  0
    4.8571   24.4190    9.5077 H   0  0  0  0  0  0
    2.4496   31.2384    7.3739 H   0  0  0  0  0  0
    1.2781   31.0511    6.0882 H   0  0  0  0  0  0
    1.7817   32.6502    6.5764 H   0  0  0  0  0  0
    0.9321   28.9145    8.6285 H   0  0  0  0  0  0
   -2.1983   28.9700   11.5905 H   0  0  0  0  0  0
   -2.7433   31.2797   11.0086 H   0  0  0  0  0  0
    1.7937   27.4868    9.9701 H   0  0  0  0  0  0
    0.4497   23.6031   11.1499 H   0  0  0  0  0  0
   -2.2561   26.7277   11.1490 H   0  0  0  0  0  0
    3.4726   26.4888    9.2056 H   0  0  0  0  0  0
    2.4579   25.4696    8.1756 H   0  0  0  0  0  0
    6.3683   24.8421    7.6435 H   0  0  0  0  0  0
    5.8452   26.2856    8.4200 H   0  0  0  0  0  0
    4.7913   28.0454    7.1908 H   0  0  0  0  0  0
    4.2395   28.9922    4.9857 H   0  0  0  0  0  0
    4.2218   27.5265    2.9839 H   0  0  0  0  0  0
    4.7437   25.1309    3.1842 H   0  0  0  0  0  0
    5.3183   24.1736    5.3870 H   0  0  0  0  0  0
    3.1828   23.1045    8.2423 H   0  0  0  0  0  0
    3.8285   23.6925    6.9148 H   0  0  0  0  0  0
  1 30  1  0  0  0
  1 31  1  0  0  0
  1 32  1  0  0  0
  1  2  1  0  0  0
  2  3  2  0  0  0
  2 10  1  0  0  0
  3  4  1  0  0  0
  3  8  1  0  0  0
  4  5  2  0  0  0
  4 33  1  0  0  0
  5  6  1  0  0  0
  5 11  1  0  0  0
  6  7  2  0  0  0
  6 34  1  0  0  0
  7  8  1  0  0  0
  7 35  1  0  0  0
  8  9  2  0  0  0
  9 10  1  0  0  0
 10 28  1  0  0  0
 11 16  1  0  0  0
 11 12  2  0  0  0
 12 13  1  0  0  0
 12 36  1  0  0  0
 13 14  2  0  0  0
 13 17  1  0  0  0
 14 15  1  0  0  0
 14 37  1  0  0  0
 15 16  2  0  0  0
 16 38  1  0  0  0
 17 18  1  0  0  0
 18 19  1  0  0  0
 18 39  1  0  0  0
 18 40  1  0  0  0
 19 29  1  0  0  0
 19 20  1  0  0  0
 19 27  1  0  0  0
 20 21  1  0  0  0
 20 41  1  0  0  0
 20 42  1  0  0  0
 21 26  1  0  0  0
 21 22  2  0  0  0
 22 23  1  0  0  0
 22 43  1  0  0  0
 23 24  2  0  0  0
 23 44  1  0  0  0
 24 25  1  0  0  0
 24 45  1  0  0  0
 25 26  2  0  0  0
 25 46  1  0  0  0
 26 47  1  0  0  0
 27 48  1  0  0  0
 27 49  1  0  0  0
M  END
> <s_m_entry_id>
34865

> <s_m_entry_name>
ligand_docking-pose.362

> <s_m_Source_Path>
/home/csk/Desktop/cluster/DUD-E-result/cdk2

> <s_m_Source_File>
ligand_docking-pose.sdf

> <i_m_Source_File_Index>
362

> <i_lp_mmshare_version>
53161

> <r_lp_tautomer_probability>
0.0196078431372549

> <s_lp_Force_Field>
OPLS_2005

> <r_lp_Energy>
37.562217

> <b_lp_Chiralities_Consistent>
1

> <s_lp_Variant>
350635-2

> <s_i_glide_gridfile>
glide-grid_1h00

> <i_i_glide_lignum>
630

> <i_i_glide_rotatable_bonds>
6

> <r_i_docking_score>
-7.18871016374787

> <r_i_glide_ligand_efficiency>
-0.266248524583254

> <r_i_glide_ligand_efficiency_sa>
-0.798745572872251

> <r_i_glide_ligand_efficiency_ln>
-1.67341321097099

> <r_i_glide_gscore>
-7.18871016374787

> <r_i_glide_lipo>
-3.00394768470247

> <r_i_glide_hbond>
-0.374590955653366

> <r_i_glide_metal>
0

> <r_i_glide_rewards>
-1.84499969289392

> <r_i_glide_evdw>
-36.2486801147461

> <r_i_glide_ecoul>
-5.98822355270386

> <r_i_glide_erotb>
0.745495708144768

> <r_i_glide_esite>
0

> <r_i_glide_emodel>
-56.9116062190756

> <r_i_glide_energy>
-42.23690366745

> <r_i_glide_einternal>
3.72852683067322

> <i_i_glide_confnum>
22

> <i_i_glide_posenum>
307

> <r_i_glide_eff_state_penalty>
0

> <i_f3d_flags>
0

> <s_user_duplicate_titles>
350635

> <s_m_subgroup_title>
dock_pv

> <s_m_subgroupid>
dock_pv1

> <b_m_subgroup_collapsed>
0

$$$$
301128
                    3D
 Schrodinger Suite 2021-1.
 28 30  0  0  1  0            999 V2000
    0.7832   30.9486    7.7765 C   0  0  0  0  0  0
    2.0457   30.6164    7.2704 C   0  0  0  0  0  0
    2.7532   29.5822    7.8918 C   0  0  0  0  0  0
    2.2298   28.8570    8.9759 C   0  0  0  0  0  0
    3.2298   27.8954    9.3205 C   0  0  0  0  0  0
    4.2730   28.0328    8.5393 N   0  0  0  0  0  0
    4.0032   29.0385    7.6812 N   0  0  0  0  0  0
    0.9429   29.2066    9.4544 C   0  0  0  0  0  0
    0.2164   30.2525    8.8597 C   0  0  0  0  0  0
   -1.0051   30.3495    9.6156 C   0  0  0  0  0  0
   -0.9827   29.4331   10.5703 N   0  0  0  0  0  0
    0.1731   28.7361   10.4988 N   0  0  0  0  0  0
    0.4556   27.7051   11.4956 C   0  0  0  0  0  0
   -0.4904   26.4933   11.3900 C   0  0  0  0  0  0
   -0.1243   25.5525   12.2608 F   0  0  0  0  0  0
   -0.4628   25.9423   10.1769 F   0  0  0  0  0  0
   -1.7555   26.8137   11.6648 F   0  0  0  0  0  0
   -2.0865   31.2974    9.4242 C   0  0  0  0  0  0
   -2.0257   32.1825    8.5765 O   0  0  0  0  0  0
   -3.1770   31.1527   10.1761 N   0  0  0  0  0  0
    4.6839   29.3214    6.9895 H   0  0  0  0  0  0
    0.2468   31.7848    7.3599 H   0  0  0  0  0  0
    2.4579   31.1646    6.4377 H   0  0  0  0  0  0
    3.2319   27.1430   10.0949 H   0  0  0  0  0  0
    0.3878   28.1585   12.4847 H   0  0  0  0  0  0
    1.4857   27.3815   11.3781 H   0  0  0  0  0  0
   -3.1515   30.6152   11.0350 H   0  0  0  0  0  0
   -3.9420   31.7914   10.0264 H   0  0  0  0  0  0
  1  9  1  0  0  0
  1  2  2  0  0  0
  1 22  1  0  0  0
  2  3  1  0  0  0
  2 23  1  0  0  0
  3  7  1  0  0  0
  3  4  2  0  0  0
  4  5  1  0  0  0
  4  8  1  0  0  0
  5  6  2  0  0  0
  5 24  1  0  0  0
  6  7  1  0  0  0
  7 21  1  0  0  0
  8 12  1  0  0  0
  8  9  2  0  0  0
  9 10  1  0  0  0
 10 11  2  0  0  0
 10 18  1  0  0  0
 11 12  1  0  0  0
 12 13  1  0  0  0
 13 14  1  0  0  0
 13 25  1  0  0  0
 13 26  1  0  0  0
 14 15  1  0  0  0
 14 16  1  0  0  0
 14 17  1  0  0  0
 18 19  2  0  0  0
 18 20  1  0  0  0
 20 27  1  0  0  0
 20 28  1  0  0  0
M  END
> <s_m_entry_id>
34867

> <s_m_entry_name>
ligand_docking-pose.364

> <s_m_Source_Path>
/home/csk/Desktop/cluster/DUD-E-result/cdk2

> <s_m_Source_File>
ligand_docking-pose.sdf

> <i_m_Source_File_Index>
364

> <i_lp_mmshare_version>
53161

> <r_lp_tautomer_probability>
1

> <s_lp_Force_Field>
OPLS_2005

> <r_lp_Energy>
58.976906

> <b_lp_Chiralities_Consistent>
1

> <s_lp_Variant>
301128-1

> <s_i_glide_gridfile>
glide-grid_1h00

> <i_i_glide_lignum>
94

> <i_i_glide_rotatable_bonds>
3

> <r_i_docking_score>
-7.18494689445357

> <r_i_glide_ligand_efficiency>
-0.359247344722679

> <r_i_glide_ligand_efficiency_sa>
-0.975147320256422

> <r_i_glide_ligand_efficiency_ln>
-1.79815523227309

> <r_i_glide_gscore>
-7.18494689445357

> <r_i_glide_lipo>
-1.95839423512787

> <r_i_glide_hbond>
-0.0765744942193202

> <r_i_glide_metal>
0

> <r_i_glide_rewards>
-2.94353198682241

> <r_i_glide_evdw>
-33.1848411560059

> <r_i_glide_ecoul>
-5.06442213058472

> <r_i_glide_erotb>
0.225747243556669

> <r_i_glide_esite>
-0.0132880444526442

> <r_i_glide_emodel>
-54.0609517918987

> <r_i_glide_energy>
-38.2492632865906

> <r_i_glide_einternal>
1.37155985832214

> <i_i_glide_confnum>
2

> <i_i_glide_posenum>
347

> <r_i_glide_eff_state_penalty>
0

> <i_f3d_flags>
0

> <s_user_duplicate_titles>
301128

> <s_m_subgroup_title>
dock_pv

> <s_m_subgroupid>
dock_pv1

> <b_m_subgroup_collapsed>
0

$$$$
67288
                    3D
 Schrodinger Suite 2021-1.
 36 38  0  0  1  0            999 V2000
    1.9671   25.6304   10.1760 C   0  0  0  0  0  0
    0.9844   26.4937   10.9412 C   0  0  0  0  0  0
    0.5555   27.8075   10.6838 C   0  0  0  0  0  0
   -0.5558   28.2548   11.9601 S   0  0  0  0  0  0
   -0.3662   26.6868   12.6652 C   0  0  0  0  0  0
    0.4580   25.9144   12.0058 N   0  0  0  0  0  0
   -1.0689   26.2506   13.9297 C   0  0  0  0  0  0
    0.9001   28.7978    9.6118 C   0  0  0  0  0  0
    0.0138   29.8121    9.2191 C   0  0  0  0  0  0
    0.4376   30.6812    8.2139 C   0  0  0  0  0  0
    1.6580   30.5777    7.6344 N   0  0  0  0  0  0
    2.4468   29.5564    8.0547 C   0  0  0  0  0  0
    2.1188   28.6520    9.0164 N   0  0  0  0  0  0
    3.6580   29.4520    7.3760 N   0  0  0  0  0  0
    4.3330   28.3152    6.9311 C   0  0  0  0  0  0
    4.4580   28.1283    5.5526 C   0  0  0  0  0  0
    5.1525   27.0299    5.0494 C   0  0  0  0  0  0
    5.7511   26.1303    5.9289 C   0  0  0  0  0  0
    5.6458   26.3300    7.3047 C   0  0  0  0  0  0
    4.9264   27.4120    7.8116 C   0  0  0  0  0  0
    6.2722   25.4520    8.1760 N   0  0  0  0  0  0
    2.8582   25.4267   10.7692 H   0  0  0  0  0  0
    1.5355   24.6687    9.8962 H   0  0  0  0  0  0
    2.3116   26.0868    9.2500 H   0  0  0  0  0  0
   -1.0904   25.1659   14.0381 H   0  0  0  0  0  0
   -2.1038   26.5948   13.9537 H   0  0  0  0  0  0
   -0.5747   26.6520   14.8140 H   0  0  0  0  0  0
   -0.9607   29.9264    9.6695 H   0  0  0  0  0  0
   -0.1935   31.4894    7.8729 H   0  0  0  0  0  0
    3.8747   30.2756    6.8186 H   0  0  0  0  0  0
    4.0191   28.8381    4.8680 H   0  0  0  0  0  0
    5.2438   26.8858    3.9828 H   0  0  0  0  0  0
    6.3060   25.2915    5.5354 H   0  0  0  0  0  0
    4.8487   27.5653    8.8788 H   0  0  0  0  0  0
    6.7437   24.6430    7.8036 H   0  0  0  0  0  0
    6.0582   25.5413    9.1696 H   0  0  0  0  0  0
  1  2  1  0  0  0
  1 22  1  0  0  0
  1 23  1  0  0  0
  1 24  1  0  0  0
  2  6  1  0  0  0
  2  3  2  0  0  0
  3  4  1  0  0  0
  3  8  1  0  0  0
  4  5  1  0  0  0
  5  6  2  0  0  0
  5  7  1  0  0  0
  7 25  1  0  0  0
  7 26  1  0  0  0
  7 27  1  0  0  0
  8 13  1  0  0  0
  8  9  2  0  0  0
  9 10  1  0  0  0
  9 28  1  0  0  0
 10 11  2  0  0  0
 10 29  1  0  0  0
 11 12  1  0  0  0
 12 13  2  0  0  0
 12 14  1  0  0  0
 14 15  1  0  0  0
 14 30  1  0  0  0
 15 20  1  0  0  0
 15 16  2  0  0  0
 16 17  1  0  0  0
 16 31  1  0  0  0
 17 18  2  0  0  0
 17 32  1  0  0  0
 18 19  1  0  0  0
 18 33  1  0  0  0
 19 20  2  0  0  0
 19 21  1  0  0  0
 20 34  1  0  0  0
 21 35  1  0  0  0
 21 36  1  0  0  0
M  END
> <s_m_entry_id>
34873

> <s_m_entry_name>
ligand_docking-pose.370

> <s_m_Source_Path>
/home/csk/Desktop/cluster/DUD-E-result/cdk2

> <s_m_Source_File>
ligand_docking-pose.sdf

> <i_m_Source_File_Index>
370

> <i_lp_mmshare_version>
53161

> <r_lp_tautomer_probability>
0.999999987636

> <s_lp_Force_Field>
OPLS_2005

> <r_lp_Energy>
6.87218

> <b_lp_Chiralities_Consistent>
1

> <s_lp_Variant>
67288-1

> <s_i_glide_gridfile>
glide-grid_1h00

> <i_i_glide_lignum>
827

> <i_i_glide_rotatable_bonds>
3

> <r_i_docking_score>
-7.14929252116873

> <r_i_glide_ligand_efficiency>
-0.340442501008035

> <r_i_glide_ligand_efficiency_sa>
-0.939255045745526

> <r_i_glide_ligand_efficiency_ln>
-1.76764812935317

> <r_i_glide_gscore>
-7.14929252116873

> <r_i_glide_lipo>
-2.17894181930177

> <r_i_glide_hbond>
-0.456

> <r_i_glide_metal>
0

> <r_i_glide_rewards>
-2.66631634325768

> <r_i_glide_evdw>
-36.360424041748

> <r_i_glide_ecoul>
-4.34657764434814

> <r_i_glide_erotb>
0.621973490130345

> <r_i_glide_esite>
0

> <r_i_glide_emodel>
-53.583980639368

> <r_i_glide_energy>
-40.7070016860962

> <r_i_glide_einternal>
8.75878810882568

> <i_i_glide_confnum>
1

> <i_i_glide_posenum>
378

> <r_i_glide_eff_state_penalty>
0

> <i_f3d_flags>
0

> <s_user_duplicate_titles>
67288

> <s_m_subgroup_title>
dock_pv

> <s_m_subgroupid>
dock_pv1

> <b_m_subgroup_collapsed>
0

$$$$
287514
                    3D
 Schrodinger Suite 2021-1.
 45 48  0  0  1  0            999 V2000
   -1.7442   25.4362    9.5138 C   0  0  0  0  0  0
   -1.3736   25.0314   10.8217 O   0  0  0  0  0  0
   -0.0306   25.0840   11.0781 C   0  0  0  0  0  0
    0.6779   24.0530   11.7002 C   0  0  0  0  0  0
    2.0027   24.4353   11.7762 C   0  0  0  0  0  0
    2.1119   25.6806   11.2160 N   0  0  0  0  0  0
    0.8782   26.1184   10.8022 C   0  0  0  0  0  0
    0.7648   27.4303   10.1829 C   0  0  0  0  0  0
   -0.0890   28.4563   10.4192 C   0  0  0  0  0  0
   -0.2261   29.7505    9.7297 C   0  0  0  0  0  0
   -1.2968   30.3843   10.3295 C   0  0  0  0  0  0
   -1.7375   31.6390    9.9180 C   0  0  0  0  0  0
   -1.0512   32.2874    8.8922 C   0  0  0  0  0  0
    0.0574   31.6838    8.2894 C   0  0  0  0  0  0
    0.4696   30.3975    8.6881 C   0  0  0  0  0  0
    1.6950   29.8470    8.1098 C   0  0  0  0  0  0
    2.7535   29.4257    7.6634 C   0  0  0  0  0  0
    4.0459   28.9408    7.1391 C   0  0  2  0  0  0
    4.0650   28.6338    5.6287 C   0  0  0  0  0  0
    4.8824   27.3453    5.4804 C   0  0  1  0  0  0
    5.4601   27.1828    6.8907 C   0  0  0  0  0  0
    4.4583   27.7160    7.8013 N   0  0  2  0  0  0
    4.0580   26.2372    5.1653 O   0  0  0  0  0  0
    0.7657   32.3928    7.3759 F   0  0  0  0  0  0
   -1.7662   29.6016   11.3583 N   0  0  0  0  0  0
   -1.0818   28.4573   11.4899 C   0  0  0  0  0  0
   -1.2935   27.6195   12.3629 O   0  0  0  0  0  0
    2.9663   26.2233   11.1643 H   0  0  0  0  0  0
    4.7971   29.6975    7.3759 H   0  0  0  0  0  0
    5.6597   27.4768    4.7277 H   0  0  0  0  0  0
   -2.7410   25.0518    9.3112 H   0  0  0  0  0  0
   -1.7790   26.5184    9.4232 H   0  0  0  0  0  0
   -1.0756   25.0527    8.7427 H   0  0  0  0  0  0
    0.2550   23.1260   12.0563 H   0  0  0  0  0  0
    2.8594   23.9510   12.2079 H   0  0  0  0  0  0
    1.4936   27.5508    9.3995 H   0  0  0  0  0  0
   -2.5753   32.1250   10.3984 H   0  0  0  0  0  0
   -1.3520   33.2774    8.5830 H   0  0  0  0  0  0
    4.5540   29.4520    5.1019 H   0  0  0  0  0  0
    3.0653   28.5234    5.2046 H   0  0  0  0  0  0
    6.3670   27.7789    6.9772 H   0  0  0  0  0  0
    5.7485   26.1550    7.1229 H   0  0  0  0  0  0
    3.6725   27.0820    7.7630 H   0  0  0  0  0  0
    4.5813   25.4348    5.2411 H   0  0  0  0  0  0
   -2.5136   29.8717   11.9899 H   0  0  0  0  0  0
  1  2  1  0  0  0
  1 31  1  0  0  0
  1 32  1  0  0  0
  1 33  1  0  0  0
  2  3  1  0  0  0
  3  7  2  0  0  0
  3  4  1  0  0  0
  4  5  2  0  0  0
  4 34  1  0  0  0
  5  6  1  0  0  0
  5 35  1  0  0  0
  6 28  1  0  0  0
  6  7  1  0  0  0
  7  8  1  0  0  0
  8  9  2  0  0  0
  8 36  1  0  0  0
  9 26  1  0  0  0
  9 10  1  0  0  0
 10 15  2  0  0  0
 10 11  1  0  0  0
 11 12  2  0  0  0
 11 25  1  0  0  0
 12 13  1  0  0  0
 12 37  1  0  0  0
 13 14  2  0  0  0
 13 38  1  0  0  0
 14 15  1  0  0  0
 14 24  1  0  0  0
 15 16  1  0  0  0
 16 17  3  0  0  0
 17 18  1  0  0  0
 18 29  1  0  0  0
 18 22  1  0  0  0
 18 19  1  0  0  0
 19 20  1  0  0  0
 19 39  1  0  0  0
 19 40  1  0  0  0
 20 30  1  0  0  0
 20 21  1  0  0  0
 20 23  1  0  0  0
 21 22  1  0  0  0
 21 41  1  0  0  0
 21 42  1  0  0  0
 22 43  1  0  0  0
 23 44  1  0  0  0
 25 26  1  0  0  0
 25 45  1  0  0  0
 26 27  2  0  0  0
M  END
> <s_m_entry_id>
34875

> <s_m_entry_name>
ligand_docking-pose.372

> <s_m_Source_Path>
/home/csk/Desktop/cluster/DUD-E-result/cdk2

> <s_m_Source_File>
ligand_docking-pose.sdf

> <i_m_Source_File_Index>
372

> <i_lp_mmshare_version>
53161

> <r_lp_tautomer_probability>
1

> <s_lp_Force_Field>
OPLS_2005

> <r_lp_Energy>
52.60861

> <b_lp_Chiralities_Consistent>
1

> <s_lp_Variant>
287514-1

> <s_i_glide_gridfile>
glide-grid_1h00

> <i_i_glide_lignum>
1724

> <i_i_glide_rotatable_bonds>
5

> <r_i_docking_score>
-7.14758470680002

> <r_i_glide_ligand_efficiency>
-0.264725359511112

> <r_i_glide_ligand_efficiency_sa>
-0.794176077660844

> <r_i_glide_ligand_efficiency_ln>
-1.66383988259968

> <r_i_glide_gscore>
-7.14758470680002

> <r_i_glide_lipo>
-3.34252759125587

> <r_i_glide_hbond>
-0.118586903224087

> <r_i_glide_metal>
0

> <r_i_glide_rewards>
-1.35883288558613

> <r_i_glide_evdw>
-42.0140113830566

> <r_i_glide_ecoul>
-3.74219489097595

> <r_i_glide_erotb>
0.428070371138334

> <r_i_glide_esite>
-0.0936778950730379

> <r_i_glide_emodel>
-62.6026280594147

> <r_i_glide_energy>
-45.7562062740326

> <r_i_glide_einternal>
6.06675243377686

> <i_i_glide_confnum>
7

> <i_i_glide_posenum>
397

> <r_i_glide_eff_state_penalty>
0

> <i_f3d_flags>
0

> <s_user_duplicate_titles>
287514

> <s_m_subgroup_title>
dock_pv

> <s_m_subgroupid>
dock_pv1

> <b_m_subgroup_collapsed>
0

$$$$
67979
                    3D
 Schrodinger Suite 2021-1.
 34 36  0  0  1  0            999 V2000
   -3.3677   30.6024   10.1760 C   0  0  0  0  0  0
   -2.2808   29.6187   10.5355 C   0  0  0  0  0  0
   -0.9823   29.5944   10.0512 C   0  0  0  0  0  0
   -0.1634   28.2104   10.7442 S   0  0  0  0  0  0
   -1.6075   27.8272   11.6168 C   0  0  0  0  0  0
   -2.5948   28.6520   11.3760 N   0  0  0  0  0  0
   -1.7328   26.6520   12.5573 C   0  0  0  0  0  0
   -0.3224   30.5225    9.0993 C   0  0  0  0  0  0
   -0.6958   31.8670    8.9760 C   0  0  0  0  0  0
    0.0582   32.6511    8.1059 C   0  0  0  0  0  0
    1.0923   32.1464    7.3760 N   0  0  0  0  0  0
    1.3777   30.8302    7.5604 C   0  0  0  0  0  0
    0.7130   30.0006    8.3978 N   0  0  0  0  0  0
    2.4580   30.3191    6.8379 N   0  0  0  0  0  0
    3.2434   29.1722    7.0244 C   0  0  0  0  0  0
    3.4796   28.6148    8.2839 C   0  0  0  0  0  0
    4.2847   27.4834    8.4040 C   0  0  0  0  0  0
    4.8580   26.9027    7.2731 C   0  0  0  0  0  0
    4.6317   27.4628    6.0167 C   0  0  0  0  0  0
    3.8433   28.6055    5.9000 C   0  0  0  0  0  0
    5.2996   26.7336    4.6038 Cl  0  0  0  0  0  0
   -3.2302   31.5573   10.6827 H   0  0  0  0  0  0
   -3.4143   30.7963    9.1042 H   0  0  0  0  0  0
   -4.3420   30.2520   10.4771 H   0  0  0  0  0  0
   -1.7489   25.7068   12.0145 H   0  0  0  0  0  0
   -2.6465   26.6966   13.1521 H   0  0  0  0  0  0
   -0.8995   26.6108   13.2589 H   0  0  0  0  0  0
   -1.4883   32.3101    9.5553 H   0  0  0  0  0  0
   -0.1608   33.7015    7.9838 H   0  0  0  0  0  0
    2.9499   31.0120    6.2850 H   0  0  0  0  0  0
    3.0467   29.0520    9.1710 H   0  0  0  0  0  0
    4.4580   27.0525    9.3760 H   0  0  0  0  0  0
    5.4713   26.0192    7.3717 H   0  0  0  0  0  0
    3.6844   29.0434    4.9297 H   0  0  0  0  0  0
  1  2  1  0  0  0
  1 22  1  0  0  0
  1 23  1  0  0  0
  1 24  1  0  0  0
  2  6  1  0  0  0
  2  3  2  0  0  0
  3  4  1  0  0  0
  3  8  1  0  0  0
  4  5  1  0  0  0
  5  6  2  0  0  0
  5  7  1  0  0  0
  7 25  1  0  0  0
  7 26  1  0  0  0
  7 27  1  0  0  0
  8 13  1  0  0  0
  8  9  2  0  0  0
  9 10  1  0  0  0
  9 28  1  0  0  0
 10 11  2  0  0  0
 10 29  1  0  0  0
 11 12  1  0  0  0
 12 13  2  0  0  0
 12 14  1  0  0  0
 14 15  1  0  0  0
 14 30  1  0  0  0
 15 20  1  0  0  0
 15 16  2  0  0  0
 16 17  1  0  0  0
 16 31  1  0  0  0
 17 18  2  0  0  0
 17 32  1  0  0  0
 18 19  1  0  0  0
 18 33  1  0  0  0
 19 20  2  0  0  0
 19 21  1  0  0  0
 20 34  1  0  0  0
M  END
> <s_m_entry_id>
34876

> <s_m_entry_name>
ligand_docking-pose.373

> <s_m_Source_Path>
/home/csk/Desktop/cluster/DUD-E-result/cdk2

> <s_m_Source_File>
ligand_docking-pose.sdf

> <i_m_Source_File_Index>
373

> <i_lp_mmshare_version>
53161

> <r_lp_tautomer_probability>
0.999999987636

> <s_lp_Force_Field>
OPLS_2005

> <r_lp_Energy>
4.420416

> <b_lp_Chiralities_Consistent>
1

> <s_lp_Variant>
67979-1

> <s_i_glide_gridfile>
glide-grid_1h00

> <i_i_glide_lignum>
821

> <i_i_glide_rotatable_bonds>
3

> <r_i_docking_score>
-7.14639445099258

> <r_i_glide_ligand_efficiency>
-0.340304497666313

> <r_i_glide_ligand_efficiency_sa>
-0.938874304990016

> <r_i_glide_ligand_efficiency_ln>
-1.76693158735822

> <r_i_glide_gscore>
-7.14639445099258

> <r_i_glide_lipo>
-2.4028938192507

> <r_i_glide_hbond>
-0.2371531554376

> <r_i_glide_metal>
0

> <r_i_glide_rewards>
-2.85446845838297

> <r_i_glide_evdw>
-32.6860198974609

> <r_i_glide_ecoul>
-3.82793045043945

> <r_i_glide_erotb>
0.556611544517659

> <r_i_glide_esite>
0

> <r_i_glide_emodel>
-52.4572191532541

> <r_i_glide_energy>
-36.5139503479004

> <r_i_glide_einternal>
1.61614799499512

> <i_i_glide_confnum>
4

> <i_i_glide_posenum>
396

> <r_i_glide_eff_state_penalty>
0

> <i_f3d_flags>
0

> <s_user_duplicate_titles>
67979

> <s_m_subgroup_title>
dock_pv

> <s_m_subgroupid>
dock_pv1

> <b_m_subgroup_collapsed>
0

$$$$
319984
                    3D
 Schrodinger Suite 2021-1.
 57 61  0  0  1  0            999 V2000
   -1.8215   31.5619    9.4589 C   0  0  0  0  0  0
   -2.4612   30.6876   10.2562 C   0  0  0  0  0  0
   -1.9472   29.3720   10.6168 C   0  0  0  0  0  0
   -2.5983   28.6577   11.3759 O   0  0  0  0  0  0
   -0.7439   29.0300   10.0394 N   0  0  0  0  0  0
   -0.0242   29.9126    9.1625 C   0  0  0  0  0  0
   -0.5442   31.1835    8.8638 C   0  0  0  0  0  0
    0.1794   31.9947    7.9914 C   0  0  0  0  0  0
    1.3078   31.5556    7.3759 N   0  0  0  0  0  0
    1.7434   30.3136    7.7096 C   0  0  0  0  0  0
    1.1410   29.4970    8.6022 N   0  0  0  0  0  0
    2.8579   29.8517    7.0101 N   0  0  0  0  0  0
    3.6581   28.7101    7.0963 C   0  0  0  0  0  0
    3.6606   27.8506    8.1979 C   0  0  0  0  0  0
    4.4664   26.7149    8.1524 C   0  0  0  0  0  0
    5.2932   26.4667    7.0529 C   0  0  0  0  0  0
    5.2564   27.4033    6.0115 C   0  0  0  0  0  0
    4.4579   28.5009    6.0223 N   0  0  0  0  0  0
    6.0775   25.3193    7.0163 N   0  0  0  0  0  0
    7.2524   25.1788    6.1363 C   0  0  0  0  0  0
    6.9131   24.5056    4.7838 C   0  0  0  0  0  0
    6.3070   23.1931    4.9898 N   0  0  0  0  0  0
    5.1066   23.3416    5.8087 C   0  0  0  0  0  0
    5.4357   24.0027    7.1701 C   0  0  0  0  0  0
   -0.1519   27.6857   10.3627 C   0  0  0  0  0  0
    0.3470   27.5474   11.8235 C   0  0  0  0  0  0
   -0.5208   26.7250   12.7976 C   0  0  0  0  0  0
   -0.9921   25.4014   12.1821 C   0  0  0  0  0  0
   -1.7632   25.6503   10.8797 C   0  0  0  0  0  0
   -0.9441   26.4460    9.8469 C   0  0  0  0  0  0
   -2.2628   32.5282    9.2535 H   0  0  0  0  0  0
   -3.4112   30.9754   10.6827 H   0  0  0  0  0  0
   -0.1591   32.9887    7.7329 H   0  0  0  0  0  0
    3.1972   30.5017    6.3121 H   0  0  0  0  0  0
    3.0575   28.0296    9.0724 H   0  0  0  0  0  0
    4.4573   26.0213    8.9759 H   0  0  0  0  0  0
    5.8685   27.2849    5.1302 H   0  0  0  0  0  0
    7.7138   26.1517    5.9616 H   0  0  0  0  0  0
    8.0049   24.5807    6.6530 H   0  0  0  0  0  0
    7.8121   24.3866    4.1778 H   0  0  0  0  0  0
    6.2439   25.1321    4.1932 H   0  0  0  0  0  0
    6.0664   22.7870    4.0958 H   0  0  0  0  0  0
    4.6581   22.3587    5.9567 H   0  0  0  0  0  0
    4.3608   23.9263    5.2656 H   0  0  0  0  0  0
    6.0832   23.3585    7.7712 H   0  0  0  0  0  0
    4.5055   24.0931    7.7323 H   0  0  0  0  0  0
    0.7687   27.6197    9.7913 H   0  0  0  0  0  0
    0.5730   28.5264   12.2474 H   0  0  0  0  0  0
    1.3262   27.0718   11.7758 H   0  0  0  0  0  0
   -1.3839   27.3111   13.1142 H   0  0  0  0  0  0
    0.0449   26.5280   13.7089 H   0  0  0  0  0  0
   -1.6257   24.8653   12.8898 H   0  0  0  0  0  0
   -0.1337   24.7567   11.9860 H   0  0  0  0  0  0
   -2.6940   26.1727   11.0986 H   0  0  0  0  0  0
   -2.0635   24.6961   10.4451 H   0  0  0  0  0  0
   -0.2207   25.7482    9.4265 H   0  0  0  0  0  0
   -1.5423   26.7173    8.9776 H   0  0  0  0  0  0
  1  7  1  0  0  0
  1  2  2  0  0  0
  1 31  1  0  0  0
  2  3  1  0  0  0
  2 32  1  0  0  0
  3  4  2  0  0  0
  3  5  1  0  0  0
  5  6  1  0  0  0
  5 25  1  0  0  0
  6 11  1  0  0  0
  6  7  2  0  0  0
  7  8  1  0  0  0
  8  9  2  0  0  0
  8 33  1  0  0  0
  9 10  1  0  0  0
 10 11  2  0  0  0
 10 12  1  0  0  0
 12 13  1  0  0  0
 12 34  1  0  0  0
 13 18  1  0  0  0
 13 14  2  0  0  0
 14 15  1  0  0  0
 14 35  1  0  0  0
 15 16  2  0  0  0
 15 36  1  0  0  0
 16 17  1  0  0  0
 16 19  1  0  0  0
 17 18  2  0  0  0
 17 37  1  0  0  0
 19 24  1  0  0  0
 19 20  1  0  0  0
 20 21  1  0  0  0
 20 38  1  0  0  0
 20 39  1  0  0  0
 21 22  1  0  0  0
 21 40  1  0  0  0
 21 41  1  0  0  0
 22 23  1  0  0  0
 22 42  1  0  0  0
 23 24  1  0  0  0
 23 43  1  0  0  0
 23 44  1  0  0  0
 24 45  1  0  0  0
 24 46  1  0  0  0
 25 30  1  0  0  0
 25 26  1  0  0  0
 25 47  1  0  0  0
 26 27  1  0  0  0
 26 48  1  0  0  0
 26 49  1  0  0  0
 27 28  1  0  0  0
 27 50  1  0  0  0
 27 51  1  0  0  0
 28 29  1  0  0  0
 28 52  1  0  0  0
 28 53  1  0  0  0
 29 30  1  0  0  0
 29 54  1  0  0  0
 29 55  1  0  0  0
 30 56  1  0  0  0
 30 57  1  0  0  0
M  END
> <s_m_entry_id>
34880

> <s_m_entry_name>
ligand_docking-pose.377

> <s_m_Source_Path>
/home/csk/Desktop/cluster/DUD-E-result/cdk2

> <s_m_Source_File>
ligand_docking-pose.sdf

> <i_m_Source_File_Index>
377

> <i_lp_mmshare_version>
53161

> <r_lp_tautomer_probability>
0.999999772200052

> <s_lp_Force_Field>
OPLS_2005

> <r_lp_Energy>
57.263511

> <b_lp_Chiralities_Consistent>
1

> <s_lp_Variant>
319984-1

> <s_i_glide_gridfile>
glide-grid_1h00

> <i_i_glide_lignum>
603

> <i_i_glide_rotatable_bonds>
4

> <r_i_docking_score>
-7.13850953487896

> <r_i_glide_ligand_efficiency>
-0.237950317829299

> <r_i_glide_ligand_efficiency_sa>
-0.739366961523005

> <r_i_glide_ligand_efficiency_ln>
-1.62194714661559

> <r_i_glide_gscore>
-7.13850953487896

> <r_i_glide_lipo>
-2.42970034903453

> <r_i_glide_hbond>
-0.238457469462431

> <r_i_glide_metal>
0

> <r_i_glide_rewards>
-2.18201152844061

> <r_i_glide_evdw>
-40.7693710327148

> <r_i_glide_ecoul>
-4.83311700820923

> <r_i_glide_erotb>
0.478103170214918

> <r_i_glide_esite>
-0.00300725528918108

> <r_i_glide_emodel>
-61.3545351562919

> <r_i_glide_energy>
-45.6024880409241

> <r_i_glide_einternal>
6.7916784286499

> <i_i_glide_confnum>
21

> <i_i_glide_posenum>
380

> <r_i_glide_eff_state_penalty>
0

> <i_f3d_flags>
0

> <s_user_duplicate_titles>
319984

> <s_m_subgroup_title>
dock_pv

> <s_m_subgroupid>
dock_pv1

> <b_m_subgroup_collapsed>
0

$$$$
512230
                    3D
 Schrodinger Suite 2021-1.
 46 48  0  0  1  0            999 V2000
    4.4872   26.6805    6.6502 C   0  0  0  0  0  0
    4.8727   28.0668    7.1926 C   0  0  0  0  0  0
    5.5199   27.9846    8.5760 C   0  0  0  0  0  0
    3.7932   29.0520    7.1334 N   0  0  0  0  0  0
    2.6975   29.1311    8.0115 C   0  0  0  0  0  0
    2.4196   28.1638    8.9765 C   0  0  0  0  0  0
    1.2704   28.2572    9.7439 C   0  0  0  0  0  0
    0.3849   29.2785    9.6258 N   0  0  0  0  0  0
    0.6607   30.2306    8.7249 C   0  0  0  0  0  0
    1.8017   30.1703    7.9064 N   0  0  0  0  0  0
    1.8665   31.2341    7.0579 N   0  0  0  0  0  0
    0.8581   32.0018    7.4122 C   0  0  0  0  0  0
    0.0273   31.4454    8.3831 C   0  0  0  0  0  0
   -1.1615   32.0199    8.9768 C   0  0  0  0  0  0
   -2.1065   32.4766    9.4561 N   0  0  0  0  0  0
    1.0303   27.1793   10.6000 N   0  0  0  0  0  0
   -0.2703   26.8956   11.1931 C   0  0  2  0  0  0
   -0.5632   27.8798   12.3507 C   0  0  0  0  0  0
   -1.8143   27.4515   13.1466 C   0  0  0  0  0  0
   -1.7510   25.9993   13.6692 C   0  0  1  0  0  0
   -1.4857   25.0538   12.4777 C   0  0  0  0  0  0
   -0.2173   25.4322   11.6887 C   0  0  0  0  0  0
   -0.7422   25.8543   14.7010 N   0  0  0  0  0  0
    5.3764   26.0648    6.5115 H   0  0  0  0  0  0
    3.8296   26.1341    7.3257 H   0  0  0  0  0  0
    4.0001   26.7569    5.6778 H   0  0  0  0  0  0
    5.6505   28.4527    6.5277 H   0  0  0  0  0  0
    6.4582   27.4512    8.5334 H   0  0  0  0  0  0
    5.6580   28.9859    8.9758 H   0  0  0  0  0  0
    4.9523   27.4520    9.3259 H   0  0  0  0  0  0
    3.9351   29.8605    6.5327 H   0  0  0  0  0  0
    3.0082   27.2721    9.0681 H   0  0  0  0  0  0
    0.7179   32.9800    6.9761 H   0  0  0  0  0  0
    1.5907   26.3723   10.3779 H   0  0  0  0  0  0
   -1.0304   26.9819   10.4135 H   0  0  0  0  0  0
    0.2969   27.9478   13.0182 H   0  0  0  0  0  0
   -0.7237   28.8882   11.9690 H   0  0  0  0  0  0
   -2.7117   27.5839   12.5402 H   0  0  0  0  0  0
   -1.9416   28.1323   13.9876 H   0  0  0  0  0  0
   -2.7380   25.7525   14.0633 H   0  0  0  0  0  0
   -2.3419   25.0617   11.8047 H   0  0  0  0  0  0
   -1.4015   24.0262   12.8346 H   0  0  0  0  0  0
   -0.1116   24.7563   10.8382 H   0  0  0  0  0  0
    0.6613   25.2707   12.3164 H   0  0  0  0  0  0
    0.1533   26.0512   14.2750 H   0  0  0  0  0  0
   -0.8862   26.5884   15.3774 H   0  0  0  0  0  0
  1  2  1  0  0  0
  1 24  1  0  0  0
  1 25  1  0  0  0
  1 26  1  0  0  0
  2  3  1  0  0  0
  2  4  1  0  0  0
  2 27  1  0  0  0
  3 28  1  0  0  0
  3 29  1  0  0  0
  3 30  1  0  0  0
  4  5  1  0  0  0
  4 31  1  0  0  0
  5 10  1  0  0  0
  5  6  2  0  0  0
  6  7  1  0  0  0
  6 32  1  0  0  0
  7  8  2  0  0  0
  7 16  1  0  0  0
  8  9  1  0  0  0
  9 13  2  0  0  0
  9 10  1  0  0  0
 10 11  1  0  0  0
 11 12  2  0  0  0
 12 13  1  0  0  0
 12 33  1  0  0  0
 13 14  1  0  0  0
 14 15  3  0  0  0
 16 17  1  0  0  0
 16 34  1  0  0  0
 17 22  1  0  0  0
 17 18  1  0  0  0
 17 35  1  0  0  0
 18 19  1  0  0  0
 18 36  1  0  0  0
 18 37  1  0  0  0
 19 20  1  0  0  0
 19 38  1  0  0  0
 19 39  1  0  0  0
 20 21  1  0  0  0
 20 23  1  0  0  0
 20 40  1  0  0  0
 21 22  1  0  0  0
 21 41  1  0  0  0
 21 42  1  0  0  0
 22 43  1  0  0  0
 22 44  1  0  0  0
 23 45  1  0  0  0
 23 46  1  0  0  0
M  END
> <s_m_entry_id>
34882

> <s_m_entry_name>
ligand_docking-pose.379

> <s_m_Source_Path>
/home/csk/Desktop/cluster/DUD-E-result/cdk2

> <s_m_Source_File>
ligand_docking-pose.sdf

> <i_m_Source_File_Index>
379

> <i_lp_mmshare_version>
53161

> <r_lp_tautomer_probability>
1

> <s_lp_Force_Field>
OPLS_2005

> <r_lp_Energy>
19.40119

> <b_lp_Chiralities_Consistent>
1

> <s_lp_Variant>
512230-1

> <s_i_glide_gridfile>
glide-grid_1h00

> <i_i_glide_lignum>
1261

> <i_i_glide_rotatable_bonds>
4

> <r_i_docking_score>
-7.13575655405532

> <r_i_glide_ligand_efficiency>
-0.310250284958927

> <r_i_glide_ligand_efficiency_sa>
-0.882310539962071

> <r_i_glide_ligand_efficiency_ln>
-1.72549063823369

> <r_i_glide_gscore>
-7.13575655405532

> <r_i_glide_lipo>
-1.95840981379982

> <r_i_glide_hbond>
-0.32

> <r_i_glide_metal>
0

> <r_i_glide_rewards>
-3.32879633998888

> <r_i_glide_evdw>
-31.436206817627

> <r_i_glide_ecoul>
-3.49362945556641

> <r_i_glide_erotb>
0.567304358949691

> <r_i_glide_esite>
0

> <r_i_glide_emodel>
-50.6262089143684

> <r_i_glide_energy>
-34.9298362731934

> <r_i_glide_einternal>
3.006511926651

> <i_i_glide_confnum>
7

> <i_i_glide_posenum>
94

> <r_i_glide_eff_state_penalty>
0

> <i_f3d_flags>
0

> <s_user_duplicate_titles>
512230

> <s_m_subgroup_title>
dock_pv

> <s_m_subgroupid>
dock_pv1

> <b_m_subgroup_collapsed>
0

$$$$
287019
                    3D
 Schrodinger Suite 2021-1.
 39 41  0  0  1  0            999 V2000
   -3.8765   30.6593    9.6665 C   0  0  0  0  0  0
   -2.6145   31.5221    9.7668 C   0  0  2  0  0  0
   -1.3725   30.7397    9.5950 C   0  0  0  0  0  0
   -0.3424   30.1143    9.3758 C   0  0  0  0  0  0
    0.9323   29.4530    9.0753 C   0  0  0  0  0  0
    1.7687   30.0157    8.0895 C   0  0  0  0  0  0
    3.0194   29.4525    7.8127 C   0  0  0  0  0  0
    3.4701   28.3504    8.5274 C   0  0  0  0  0  0
    2.6230   27.7796    9.4666 C   0  0  0  0  0  0
    1.3646   28.2819    9.7376 C   0  0  0  0  0  0
    0.7653   27.3467   10.7060 C   0  0  0  0  0  0
   -0.4619   27.3749   11.2805 C   0  0  0  0  0  0
   -1.1044   26.4931   12.2405 C   0  0  0  0  0  0
   -1.2618   25.1083   12.3388 C   0  0  0  0  0  0
   -1.9671   24.8530   13.5285 C   0  0  0  0  0  0
   -2.3066   26.0689   14.0947 C   0  0  0  0  0  0
   -1.7910   27.0505   13.2925 N   0  0  0  0  0  0
   -0.8186   24.1883   11.4196 O   0  0  0  0  0  0
   -0.4256   22.9336   11.9606 C   0  0  0  0  0  0
    1.7835   26.3325   10.9759 C   0  0  0  0  0  0
    1.7584   25.3638   11.7342 O   0  0  0  0  0  0
    2.8507   26.6779   10.2419 N   0  0  0  0  0  0
    1.3792   31.1007    7.3752 F   0  0  0  0  0  0
   -2.6754   32.2517   10.9754 O   0  0  0  0  0  0
   -2.6273   32.2492    8.9551 H   0  0  0  0  0  0
   -1.9238   28.0442   13.4388 H   0  0  0  0  0  0
   -3.9388   30.1534    8.7039 H   0  0  0  0  0  0
   -4.7622   31.2813    9.7628 H   0  0  0  0  0  0
   -3.9115   29.9013   10.4511 H   0  0  0  0  0  0
    3.6547   29.8528    7.0377 H   0  0  0  0  0  0
    4.4454   27.9336    8.3226 H   0  0  0  0  0  0
   -1.1118   28.1898   11.0094 H   0  0  0  0  0  0
   -2.2414   23.8790   13.9038 H   0  0  0  0  0  0
   -2.8831   26.3305   14.9709 H   0  0  0  0  0  0
    0.1361   22.3763   11.2100 H   0  0  0  0  0  0
    0.2165   23.0457   12.8370 H   0  0  0  0  0  0
   -1.2963   22.3366   12.2405 H   0  0  0  0  0  0
    3.7662   26.2508   10.3683 H   0  0  0  0  0  0
   -3.1288   31.7124   11.6427 H   0  0  0  0  0  0
  1  2  1  0  0  0
  1 27  1  0  0  0
  1 28  1  0  0  0
  1 29  1  0  0  0
  2 25  1  0  0  0
  2  3  1  0  0  0
  2 24  1  0  0  0
  3  4  3  0  0  0
  4  5  1  0  0  0
  5 10  1  0  0  0
  5  6  2  0  0  0
  6  7  1  0  0  0
  6 23  1  0  0  0
  7  8  2  0  0  0
  7 30  1  0  0  0
  8  9  1  0  0  0
  8 31  1  0  0  0
  9 22  1  0  0  0
  9 10  2  0  0  0
 10 11  1  0  0  0
 11 12  2  0  0  0
 11 20  1  0  0  0
 12 13  1  0  0  0
 12 32  1  0  0  0
 13 17  1  0  0  0
 13 14  2  0  0  0
 14 15  1  0  0  0
 14 18  1  0  0  0
 15 16  2  0  0  0
 15 33  1  0  0  0
 16 17  1  0  0  0
 16 34  1  0  0  0
 17 26  1  0  0  0
 18 19  1  0  0  0
 19 35  1  0  0  0
 19 36  1  0  0  0
 19 37  1  0  0  0
 20 21  2  0  0  0
 20 22  1  0  0  0
 22 38  1  0  0  0
 24 39  1  0  0  0
M  END
> <s_m_entry_id>
34885

> <s_m_entry_name>
ligand_docking-pose.382

> <s_m_Source_Path>
/home/csk/Desktop/cluster/DUD-E-result/cdk2

> <s_m_Source_File>
ligand_docking-pose.sdf

> <i_m_Source_File_Index>
382

> <i_lp_mmshare_version>
53161

> <r_lp_tautomer_probability>
1

> <s_lp_Force_Field>
OPLS_2005

> <r_lp_Energy>
33.488045

> <b_lp_Chiralities_Consistent>
1

> <s_lp_Variant>
287019-1

> <s_i_glide_gridfile>
glide-grid_1h00

> <i_i_glide_lignum>
1309

> <i_i_glide_rotatable_bonds>
5

> <r_i_docking_score>
-7.13248049160917

> <r_i_glide_ligand_efficiency>
-0.297186687150382

> <r_i_glide_ligand_efficiency_sa>
-0.857234742779329

> <r_i_glide_ligand_efficiency_ln>
-1.70712986984545

> <r_i_glide_gscore>
-7.13248049160917

> <r_i_glide_lipo>
-2.44607514999852

> <r_i_glide_hbond>
-0.306918712220104

> <r_i_glide_metal>
0

> <r_i_glide_rewards>
-1.86109504296154

> <r_i_glide_evdw>
-34.6012229919434

> <r_i_glide_ecoul>
-7.94232177734375

> <r_i_glide_erotb>
0.528328377646983

> <r_i_glide_esite>
-0.125310547877259

> <r_i_glide_emodel>
-60.1320823081285

> <r_i_glide_energy>
-42.5435447692871

> <r_i_glide_einternal>
3.42534136772156

> <i_i_glide_confnum>
2

> <i_i_glide_posenum>
393

> <r_i_glide_eff_state_penalty>
0

> <i_f3d_flags>
0

> <s_user_duplicate_titles>
287019

> <s_m_subgroup_title>
dock_pv

> <s_m_subgroupid>
dock_pv1

> <b_m_subgroup_collapsed>
0

$$$$
116205
                    3D
 Schrodinger Suite 2021-1.
 58 63  0  0  1  0            999 V2000
   -1.7361   30.6815    8.7273 C   0  0  0  0  0  0
   -0.2942   30.7865    8.5188 N   0  0  0  0  0  0
    0.2504   31.8109    7.7760 C   0  0  0  0  0  0
    1.5077   31.4860    7.3588 C   0  0  0  0  0  0
    1.8295   30.2520    7.9791 C   0  0  0  0  0  0
    0.7459   29.9011    8.8366 C   0  0  0  0  0  0
    0.8559   28.7658    9.7216 C   0  0  0  0  0  0
    1.9086   27.8309    9.4741 C   0  0  0  0  0  0
    2.9345   28.2251    8.5761 C   0  0  0  0  0  0
    2.9406   29.4291    7.8980 C   0  0  0  0  0  0
    1.8537   26.5280   10.0940 C   0  0  0  0  0  0
    0.9071   26.2668   11.1203 C   0  0  0  0  0  0
    1.0247   24.9018   11.4632 C   0  0  0  0  0  0
    0.3571   24.0791   12.3880 C   0  0  0  0  0  0
    0.5999   22.7101   12.3905 C   0  0  0  0  0  0
    1.4903   22.1284   11.4848 C   0  0  0  0  0  0
    2.1864   22.9237   10.5758 C   0  0  0  0  0  0
    1.9699   24.3138   10.5819 C   0  0  0  0  0  0
    2.4987   25.3182    9.7711 N   0  0  0  0  0  0
    3.2852   25.0013    8.5639 C   0  0  0  0  0  0
    4.7608   25.4125    8.4933 C   0  0  0  0  0  0
    5.2042   25.4476    7.1057 N   0  0  2  0  0  0
    6.3790   26.2899    6.8685 C   0  0  0  0  0  0
    7.6576   25.8520    7.6135 C   0  0  0  0  0  0
    7.6580   26.2520    8.9760 O   0  0  0  0  0  0
    1.7450   20.7727   11.4151 O   0  0  0  0  0  0
    0.9105   19.8680   12.1366 C   0  0  0  0  0  0
    0.0674   27.3141   11.5476 C   0  0  0  0  0  0
    0.0283   28.5065   10.8570 C   0  0  0  0  0  0
   -0.9226   29.3828   11.5934 C   0  0  0  0  0  0
   -1.1977   30.5535   11.3770 O   0  0  0  0  0  0
   -1.4424   28.6359   12.5761 N   0  0  0  0  0  0
   -0.9115   27.4098   12.6713 C   0  0  0  0  0  0
   -1.2010   26.5873   13.5362 O   0  0  0  0  0  0
   -1.9999   29.7572    9.2299 H   0  0  0  0  0  0
   -2.0972   31.5487    9.2816 H   0  0  0  0  0  0
   -2.2529   30.6520    7.7760 H   0  0  0  0  0  0
   -0.3486   32.6636    7.4976 H   0  0  0  0  0  0
    2.1171   32.0589    6.6795 H   0  0  0  0  0  0
    3.7548   27.5998    8.3515 H   0  0  0  0  0  0
    3.7643   29.6832    7.2470 H   0  0  0  0  0  0
   -0.3714   24.4696   13.0753 H   0  0  0  0  0  0
    0.0599   22.1028   13.1005 H   0  0  0  0  0  0
    2.8578   22.4493    9.8767 H   0  0  0  0  0  0
    3.2579   23.9305    8.3733 H   0  0  0  0  0  0
    2.7320   25.4520    7.7760 H   0  0  0  0  0  0
    4.9973   26.3493    8.9760 H   0  0  0  0  0  0
    5.3439   24.6520    8.9760 H   0  0  0  0  0  0
    4.4506   25.7009    6.4803 H   0  0  0  0  0  0
    6.5823   26.2090    5.7996 H   0  0  0  0  0  0
    6.1653   27.3485    7.0275 H   0  0  0  0  0  0
    7.7919   24.7749    7.5206 H   0  0  0  0  0  0
    8.5265   26.3047    7.1348 H   0  0  0  0  0  0
    6.9068   25.8521    9.4356 H   0  0  0  0  0  0
    1.1883   18.8424   11.8932 H   0  0  0  0  0  0
   -0.1400   19.9918   11.8684 H   0  0  0  0  0  0
    1.0206   19.9903   13.2149 H   0  0  0  0  0  0
   -2.1635   28.9737   13.2018 H   0  0  0  0  0  0
  1  2  1  0  0  0
  1 35  1  0  0  0
  1 36  1  0  0  0
  1 37  1  0  0  0
  2  6  1  0  0  0
  2  3  1  0  0  0
  3  4  2  0  0  0
  3 38  1  0  0  0
  4  5  1  0  0  0
  4 39  1  0  0  0
  5 10  2  0  0  0
  5  6  1  0  0  0
  6  7  2  0  0  0
  7 29  1  0  0  0
  7  8  1  0  0  0
  8  9  2  0  0  0
  8 11  1  0  0  0
  9 10  1  0  0  0
  9 40  1  0  0  0
 10 41  1  0  0  0
 11 19  1  0  0  0
 11 12  2  0  0  0
 12 13  1  0  0  0
 12 28  1  0  0  0
 13 18  2  0  0  0
 13 14  1  0  0  0
 14 15  2  0  0  0
 14 42  1  0  0  0
 15 16  1  0  0  0
 15 43  1  0  0  0
 16 17  2  0  0  0
 16 26  1  0  0  0
 17 18  1  0  0  0
 17 44  1  0  0  0
 18 19  1  0  0  0
 19 20  1  0  0  0
 20 21  1  0  0  0
 20 45  1  0  0  0
 20 46  1  0  0  0
 21 22  1  0  0  0
 21 47  1  0  0  0
 21 48  1  0  0  0
 22 23  1  0  0  0
 22 49  1  0  0  0
 23 24  1  0  0  0
 23 50  1  0  0  0
 23 51  1  0  0  0
 24 25  1  0  0  0
 24 52  1  0  0  0
 24 53  1  0  0  0
 25 54  1  0  0  0
 26 27  1  0  0  0
 27 55  1  0  0  0
 27 56  1  0  0  0
 27 57  1  0  0  0
 28 33  1  0  0  0
 28 29  2  0  0  0
 29 30  1  0  0  0
 30 31  2  0  0  0
 30 32  1  0  0  0
 32 33  1  0  0  0
 32 58  1  0  0  0
 33 34  2  0  0  0
M  END
> <s_m_entry_id>
34887

> <s_m_entry_name>
ligand_docking-pose.384

> <s_m_Source_Path>
/home/csk/Desktop/cluster/DUD-E-result/cdk2

> <s_m_Source_File>
ligand_docking-pose.sdf

> <i_m_Source_File_Index>
384

> <i_lp_mmshare_version>
53161

> <r_lp_tautomer_probability>
1

> <s_lp_Force_Field>
OPLS_2005

> <r_lp_Energy>
104.929845

> <b_lp_Chiralities_Consistent>
1

> <s_lp_Variant>
116205-1

> <s_i_glide_gridfile>
glide-grid_1h00

> <i_i_glide_lignum>
1448

> <i_i_glide_rotatable_bonds>
7

> <r_i_docking_score>
-7.12410691549404

> <r_i_glide_ligand_efficiency>
-0.20953255633806

> <r_i_glide_ligand_efficiency_sa>
-0.678804141466715

> <r_i_glide_ligand_efficiency_ln>
-1.57391504206311

> <r_i_glide_gscore>
-7.12410691549404

> <r_i_glide_lipo>
-2.82368663256674

> <r_i_glide_hbond>
-0.547899040731397

> <r_i_glide_metal>
0

> <r_i_glide_rewards>
-1.12893846154998

> <r_i_glide_evdw>
-31.8072204589844

> <r_i_glide_ecoul>
-9.92510318756104

> <r_i_glide_erotb>
0.482216407768201

> <r_i_glide_esite>
-0.0266726873307384

> <r_i_glide_emodel>
-53.0590907296857

> <r_i_glide_energy>
-41.7323236465454

> <r_i_glide_einternal>
11.6405305862427

> <i_i_glide_confnum>
24

> <i_i_glide_posenum>
113

> <r_i_glide_eff_state_penalty>
0

> <i_f3d_flags>
0

> <s_user_duplicate_titles>
116205

> <s_m_subgroup_title>
dock_pv

> <s_m_subgroupid>
dock_pv1

> <b_m_subgroup_collapsed>
0

$$$$
67818
                    3D
 Schrodinger Suite 2021-1.
 42 44  0  0  1  0            999 V2000
   -3.4187   30.5638   10.1834 C   0  0  0  0  0  0
   -2.2824   29.6308   10.5267 C   0  0  0  0  0  0
   -0.9882   29.6650   10.0243 C   0  0  0  0  0  0
   -0.0840   28.3440   10.7320 S   0  0  0  0  0  0
   -1.5037   27.8954   11.6151 C   0  0  0  0  0  0
   -2.5410   28.6520   11.3760 N   0  0  0  0  0  0
   -1.5206   26.8437   12.4985 N   0  0  0  0  0  0
   -0.4031   25.9903   12.8856 C   0  0  0  0  0  0
    0.1363   25.0639   11.8110 C   0  0  0  0  0  0
    1.4072   25.0521   11.3760 C   0  0  0  0  0  0
   -0.3642   30.6027    9.0602 C   0  0  0  0  0  0
   -0.7164   31.9525    8.9668 C   0  0  0  0  0  0
    0.0580   32.7383    8.1138 C   0  0  0  0  0  0
    1.0898   32.2350    7.3760 N   0  0  0  0  0  0
    1.3464   30.9093    7.5297 C   0  0  0  0  0  0
    0.6464   30.0778    8.3315 N   0  0  0  0  0  0
    2.4580   30.3828    6.8627 N   0  0  0  0  0  0
    3.2117   29.2247    7.1129 C   0  0  0  0  0  0
    3.3006   28.6510    8.3826 C   0  0  0  0  0  0
    4.0454   27.4949    8.5760 C   0  0  0  0  0  0
    4.7396   26.9175    7.5136 C   0  0  0  0  0  0
    4.6826   27.4878    6.2321 C   0  0  0  0  0  0
    3.9187   28.6520    6.0538 C   0  0  0  0  0  0
    5.3920   26.8677    5.0867 N   0  3  0  0  0  0
    5.2580   27.3730    3.9745 O   0  5  0  0  0  0
    6.0735   25.8672    5.2938 O   0  0  0  0  0  0
   -3.5898   30.6326    9.1091 H   0  0  0  0  0  0
   -4.3420   30.2520   10.6467 H   0  0  0  0  0  0
   -3.2433   31.5695   10.5625 H   0  0  0  0  0  0
   -2.3057   26.7782   13.1311 H   0  0  0  0  0  0
   -0.6710   25.3877   13.7536 H   0  0  0  0  0  0
    0.4053   26.6362   13.2345 H   0  0  0  0  0  0
   -0.5754   24.3740   11.3807 H   0  0  0  0  0  0
    2.1480   25.7300   11.7781 H   0  0  0  0  0  0
    1.7239   24.3665   10.6037 H   0  0  0  0  0  0
   -1.4968   32.3947    9.5634 H   0  0  0  0  0  0
   -0.1364   33.7971    8.0248 H   0  0  0  0  0  0
    2.9810   31.0520    6.3100 H   0  0  0  0  0  0
    2.7912   29.0849    9.2289 H   0  0  0  0  0  0
    4.0580   27.0520    9.5592 H   0  0  0  0  0  0
    5.3101   26.0171    7.6927 H   0  0  0  0  0  0
    3.8643   29.1154    5.0792 H   0  0  0  0  0  0
  1  2  1  0  0  0
  1 27  1  0  0  0
  1 28  1  0  0  0
  1 29  1  0  0  0
  2  6  1  0  0  0
  2  3  2  0  0  0
  3  4  1  0  0  0
  3 11  1  0  0  0
  4  5  1  0  0  0
  5  6  2  0  0  0
  5  7  1  0  0  0
  7  8  1  0  0  0
  7 30  1  0  0  0
  8  9  1  0  0  0
  8 31  1  0  0  0
  8 32  1  0  0  0
  9 10  2  0  0  0
  9 33  1  0  0  0
 10 34  1  0  0  0
 10 35  1  0  0  0
 11 16  1  0  0  0
 11 12  2  0  0  0
 12 13  1  0  0  0
 12 36  1  0  0  0
 13 14  2  0  0  0
 13 37  1  0  0  0
 14 15  1  0  0  0
 15 16  2  0  0  0
 15 17  1  0  0  0
 17 18  1  0  0  0
 17 38  1  0  0  0
 18 23  1  0  0  0
 18 19  2  0  0  0
 19 20  1  0  0  0
 19 39  1  0  0  0
 20 21  2  0  0  0
 20 40  1  0  0  0
 21 22  1  0  0  0
 21 41  1  0  0  0
 22 23  2  0  0  0
 22 24  1  0  0  0
 23 42  1  0  0  0
 24 25  1  0  0  0
 24 26  2  0  0  0
M  CHG  2  24   1  25  -1
M  END
> <s_m_entry_id>
34890

> <s_m_entry_name>
ligand_docking-pose.387

> <s_m_Source_Path>
/home/csk/Desktop/cluster/DUD-E-result/cdk2

> <s_m_Source_File>
ligand_docking-pose.sdf

> <i_m_Source_File_Index>
387

> <i_lp_mmshare_version>
53161

> <r_lp_tautomer_probability>
0.999999987636

> <s_lp_Force_Field>
OPLS_2005

> <r_lp_Energy>
3.782285

> <b_lp_Chiralities_Consistent>
1

> <s_lp_Variant>
67818-1

> <s_i_glide_gridfile>
glide-grid_1h00

> <i_i_glide_lignum>
848

> <i_i_glide_rotatable_bonds>
7

> <r_i_docking_score>
-7.1219762881035

> <r_i_glide_ligand_efficiency>
-0.273922164927058

> <r_i_glide_ligand_efficiency_sa>
-0.811493335764736

> <r_i_glide_ligand_efficiency_ln>
-1.67257276215084

> <r_i_glide_gscore>
-7.1219762881035

> <r_i_glide_lipo>
-2.39924519946397

> <r_i_glide_hbond>
-0.249344200771531

> <r_i_glide_metal>
0

> <r_i_glide_rewards>
-2.562900531238

> <r_i_glide_evdw>
-39.7452239990234

> <r_i_glide_ecoul>
-5.16168880462646

> <r_i_glide_erotb>
0.851827132063393

> <r_i_glide_esite>
-0.000798968048254195

> <r_i_glide_emodel>
-63.8610912995984

> <r_i_glide_energy>
-44.9069128036499

> <r_i_glide_einternal>
2.87255239486694

> <i_i_glide_confnum>
28

> <i_i_glide_posenum>
395

> <r_i_glide_eff_state_penalty>
0

> <i_f3d_flags>
0

> <s_user_duplicate_titles>
67818

> <s_m_subgroup_title>
dock_pv

> <s_m_subgroupid>
dock_pv1

> <b_m_subgroup_collapsed>
0

$$$$
310555
                    3D
 Schrodinger Suite 2021-1.
 45 48  0  0  1  0            999 V2000
    7.8515   24.6478    6.7276 C   0  0  0  0  0  0
    7.0243   25.4085    5.8570 O   0  0  0  0  0  0
    6.1117   26.2898    6.3994 C   0  0  0  0  0  0
    5.3626   27.0476    5.4990 C   0  0  0  0  0  0
    4.4230   27.9672    5.9558 C   0  0  0  0  0  0
    4.2014   28.1109    7.3269 C   0  0  0  0  0  0
    4.9509   27.3651    8.2282 C   0  0  0  0  0  0
    5.9047   26.4610    7.7757 C   0  0  0  0  0  0
    3.0925   28.9582    7.8333 C   0  0  0  0  0  0
    2.1737   28.7652    8.8592 C   0  0  0  0  0  0
    1.2956   29.8312    8.7604 C   0  0  0  0  0  0
    1.5759   30.6516    7.7761 N   0  0  0  0  0  0
    2.6769   30.1226    7.2448 N   0  0  0  0  0  0
    0.2783   29.7369    9.7943 C   0  0  0  0  0  0
   -0.7734   30.5729   10.1392 C   0  0  0  0  0  0
   -1.5466   30.2480   11.2426 C   0  0  0  0  0  0
   -1.3117   29.0754   11.9586 C   0  0  0  0  0  0
   -0.2930   28.1824   11.5753 C   0  0  0  0  0  0
    0.5383   28.5603   10.5040 C   0  0  0  0  0  0
    1.7436   27.8800    9.9307 C   0  0  0  0  0  0
    2.2389   26.8126   10.2914 O   0  0  0  0  0  0
   -0.0496   26.9327   12.1948 N   0  0  0  0  0  0
   -0.7689   26.1519   13.0309 C   0  0  0  0  0  0
   -0.3196   25.0495   13.3473 O   0  0  0  0  0  0
   -1.9478   26.6222   13.4891 N   0  0  0  0  0  0
   -2.7137   25.7827   14.3012 N   0  0  0  0  0  0
   -3.0280   26.2555   15.5186 C   0  0  0  0  0  0
   -2.3425   27.0389   16.1765 O   0  0  0  0  0  0
   -4.1730   25.7741   15.9921 N   0  0  0  0  0  0
    3.1711   30.5738    6.4846 H   0  0  0  0  0  0
    8.5125   24.0149    6.1370 H   0  0  0  0  0  0
    8.4774   25.2933    7.3473 H   0  0  0  0  0  0
    7.2599   23.9978    7.3756 H   0  0  0  0  0  0
    5.5183   26.9199    4.4383 H   0  0  0  0  0  0
    3.8404   28.5242    5.2383 H   0  0  0  0  0  0
    4.7783   27.4570    9.2914 H   0  0  0  0  0  0
    6.4531   25.8911    8.5115 H   0  0  0  0  0  0
   -0.9686   31.4818    9.5898 H   0  0  0  0  0  0
   -2.3416   30.9128   11.5469 H   0  0  0  0  0  0
   -1.9414   28.9144   12.8155 H   0  0  0  0  0  0
    0.8145   26.5116   11.8826 H   0  0  0  0  0  0
   -2.5248   27.2327   12.9269 H   0  0  0  0  0  0
   -3.3675   25.2344   13.7610 H   0  0  0  0  0  0
   -4.5196   26.1531   16.8607 H   0  0  0  0  0  0
   -4.7361   25.1393   15.4466 H   0  0  0  0  0  0
  1  2  1  0  0  0
  1 31  1  0  0  0
  1 32  1  0  0  0
  1 33  1  0  0  0
  2  3  1  0  0  0
  3  8  1  0  0  0
  3  4  2  0  0  0
  4  5  1  0  0  0
  4 34  1  0  0  0
  5  6  2  0  0  0
  5 35  1  0  0  0
  6  7  1  0  0  0
  6  9  1  0  0  0
  7  8  2  0  0  0
  7 36  1  0  0  0
  8 37  1  0  0  0
  9 13  1  0  0  0
  9 10  2  0  0  0
 10 20  1  0  0  0
 10 11  1  0  0  0
 11 12  2  0  0  0
 11 14  1  0  0  0
 12 13  1  0  0  0
 13 30  1  0  0  0
 14 19  2  0  0  0
 14 15  1  0  0  0
 15 16  2  0  0  0
 15 38  1  0  0  0
 16 17  1  0  0  0
 16 39  1  0  0  0
 17 18  2  0  0  0
 17 40  1  0  0  0
 18 19  1  0  0  0
 18 22  1  0  0  0
 19 20  1  0  0  0
 20 21  2  0  0  0
 22 23  1  0  0  0
 22 41  1  0  0  0
 23 24  2  0  0  0
 23 25  1  0  0  0
 25 26  1  0  0  0
 25 42  1  0  0  0
 26 27  1  0  0  0
 26 43  1  0  0  0
 27 28  2  0  0  0
 27 29  1  0  0  0
 29 44  1  0  0  0
 29 45  1  0  0  0
M  END
> <s_m_entry_id>
34891

> <s_m_entry_name>
ligand_docking-pose.388

> <s_m_Source_Path>
/home/csk/Desktop/cluster/DUD-E-result/cdk2

> <s_m_Source_File>
ligand_docking-pose.sdf

> <i_m_Source_File_Index>
388

> <i_lp_mmshare_version>
53161

> <r_lp_tautomer_probability>
1

> <s_lp_Force_Field>
OPLS_2005

> <r_lp_Energy>
51.315254

> <b_lp_Chiralities_Consistent>
1

> <s_lp_Variant>
310555-1

> <s_i_glide_gridfile>
glide-grid_1h00

> <i_i_glide_lignum>
1661

> <i_i_glide_rotatable_bonds>
7

> <r_i_docking_score>
-7.12093435098724

> <r_i_glide_ligand_efficiency>
-0.245549460378871

> <r_i_glide_ligand_efficiency_sa>
-0.754405737813315

> <r_i_glide_ligand_efficiency_ln>
-1.63051339506106

> <r_i_glide_gscore>
-7.12093435098724

> <r_i_glide_lipo>
-2.33024352034369

> <r_i_glide_hbond>
-0.57531211980207

> <r_i_glide_metal>
0

> <r_i_glide_rewards>
-1.34687524813767

> <r_i_glide_evdw>
-39.9435615539551

> <r_i_glide_ecoul>
-8.35826873779297

> <r_i_glide_erotb>
0.634092198579279

> <r_i_glide_esite>
-0.251677272916395

> <r_i_glide_emodel>
-66.4218317936751

> <r_i_glide_energy>
-48.301830291748

> <r_i_glide_einternal>
4.21860694885254

> <i_i_glide_confnum>
27

> <i_i_glide_posenum>
316

> <r_i_glide_eff_state_penalty>
0

> <i_f3d_flags>
0

> <s_user_duplicate_titles>
310555

> <s_m_subgroup_title>
dock_pv

> <s_m_subgroupid>
dock_pv1

> <b_m_subgroup_collapsed>
0

$$$$
316545
                    3D
 Schrodinger Suite 2021-1.
 51 54  0  0  1  0            999 V2000
   -1.7467   32.6038    9.8931 C   0  0  0  0  0  0
   -1.4084   31.6297    8.7513 C   0  0  0  0  0  0
   -0.7292   30.3669    9.2426 C   0  0  0  0  0  0
    0.5674   29.8462    8.9243 C   0  0  0  0  0  0
    0.6910   28.6857    9.7276 C   0  0  0  0  0  0
    1.7702   27.8940    9.7814 N   0  0  0  0  0  0
    2.7851   28.3107    8.9752 C   0  0  0  0  0  0
    2.7839   29.3909    8.1519 N   0  0  0  0  0  0
    1.6683   30.1573    8.0989 C   0  0  0  0  0  0
    1.5652   31.2275    7.2603 O   0  0  0  0  0  0
    4.0535   27.4665    8.9875 C   0  0  0  0  0  0
    4.4558   26.8157    7.6676 C   0  0  0  0  0  0
    5.0458   27.5747    6.6557 C   0  0  0  0  0  0
    5.3263   26.9877    5.4210 C   0  0  0  0  0  0
    5.0386   25.6439    5.1998 C   0  0  0  0  0  0
    4.4512   24.8730    6.2070 C   0  0  0  0  0  0
    4.1766   25.4608    7.4426 C   0  0  0  0  0  0
    4.0589   23.5440    6.0077 N   0  0  0  0  0  0
    4.9861   22.3680    5.0703 S   0  0  0  0  0  0
    6.3963   22.7651    5.1275 O   0  0  0  0  0  0
    4.5523   21.0484    5.5364 O   0  0  0  0  0  0
    4.3375   22.6118    3.3261 C   0  0  0  0  0  0
   -0.5015   28.5680   10.4233 N   0  0  0  0  0  0
   -1.3351   29.5817   10.1040 N   0  0  0  0  0  0
   -0.8926   27.6109   11.3878 C   0  0  0  0  0  0
   -1.1743   26.2840   11.0187 C   0  0  0  0  0  0
   -1.5420   25.3536   11.9894 C   0  0  0  0  0  0
   -1.6669   25.7331   13.3206 C   0  0  0  0  0  0
   -1.4241   27.0524   13.6864 C   0  0  0  0  0  0
   -1.0375   27.9943   12.7313 C   0  0  0  0  0  0
   -0.7427   29.6170   13.2481 Cl  0  0  0  0  0  0
   -2.1328   24.5772   14.5125 Cl  0  0  0  0  0  0
   -1.1399   25.7583    9.3758 Cl  0  0  0  0  0  0
   -2.2509   33.4904    9.5114 H   0  0  0  0  0  0
   -2.4054   32.1451   10.6322 H   0  0  0  0  0  0
   -0.8442   32.9298   10.4131 H   0  0  0  0  0  0
   -0.7781   32.1519    8.0314 H   0  0  0  0  0  0
   -2.3239   31.3770    8.2149 H   0  0  0  0  0  0
    2.3776   31.2881    6.7510 H   0  0  0  0  0  0
    4.8851   28.0628    9.3622 H   0  0  0  0  0  0
    3.8908   26.6798    9.7194 H   0  0  0  0  0  0
    5.2603   28.6221    6.8106 H   0  0  0  0  0  0
    5.7721   27.5769    4.6332 H   0  0  0  0  0  0
    5.2645   25.2204    4.2367 H   0  0  0  0  0  0
    3.6963   24.8788    8.2174 H   0  0  0  0  0  0
    3.3792   23.1591    6.6482 H   0  0  0  0  0  0
    4.8066   21.8818    2.6696 H   0  0  0  0  0  0
    3.2574   22.4756    3.3332 H   0  0  0  0  0  0
    4.5762   23.6141    2.9779 H   0  0  0  0  0  0
   -1.7558   24.3365   11.6988 H   0  0  0  0  0  0
   -1.5462   27.3568   14.7138 H   0  0  0  0  0  0
  1  2  1  0  0  0
  1 34  1  0  0  0
  1 35  1  0  0  0
  1 36  1  0  0  0
  2  3  1  0  0  0
  2 37  1  0  0  0
  2 38  1  0  0  0
  3 24  2  0  0  0
  3  4  1  0  0  0
  4  9  2  0  0  0
  4  5  1  0  0  0
  5  6  2  0  0  0
  5 23  1  0  0  0
  6  7  1  0  0  0
  7  8  2  0  0  0
  7 11  1  0  0  0
  8  9  1  0  0  0
  9 10  1  0  0  0
 10 39  1  0  0  0
 11 12  1  0  0  0
 11 40  1  0  0  0
 11 41  1  0  0  0
 12 17  1  0  0  0
 12 13  2  0  0  0
 13 14  1  0  0  0
 13 42  1  0  0  0
 14 15  2  0  0  0
 14 43  1  0  0  0
 15 16  1  0  0  0
 15 44  1  0  0  0
 16 17  2  0  0  0
 16 18  1  0  0  0
 17 45  1  0  0  0
 18 19  1  0  0  0
 18 46  1  0  0  0
 19 20  2  0  0  0
 19 21  2  0  0  0
 19 22  1  0  0  0
 22 47  1  0  0  0
 22 48  1  0  0  0
 22 49  1  0  0  0
 23 24  1  0  0  0
 23 25  1  0  0  0
 25 30  1  0  0  0
 25 26  2  0  0  0
 26 27  1  0  0  0
 26 33  1  0  0  0
 27 28  2  0  0  0
 27 50  1  0  0  0
 28 29  1  0  0  0
 28 32  1  0  0  0
 29 30  2  0  0  0
 29 51  1  0  0  0
 30 31  1  0  0  0
M  END
> <s_m_entry_id>
34895

> <s_m_entry_name>
ligand_docking-pose.392

> <s_m_Source_Path>
/home/csk/Desktop/cluster/DUD-E-result/cdk2

> <s_m_Source_File>
ligand_docking-pose.sdf

> <i_m_Source_File_Index>
392

> <i_lp_mmshare_version>
53161

> <r_lp_tautomer_probability>
1

> <s_lp_Force_Field>
OPLS_2005

> <r_lp_Energy>
0.557496

> <b_lp_Chiralities_Consistent>
1

> <s_lp_Variant>
316545-1

> <s_i_glide_gridfile>
glide-grid_1h00

> <i_i_glide_lignum>
941

> <i_i_glide_rotatable_bonds>
7

> <r_i_docking_score>
-7.10526969579741

> <r_i_glide_ligand_efficiency>
-0.215311202902952

> <r_i_glide_ligand_efficiency_sa>
-0.690618074138998

> <r_i_glide_ligand_efficiency_ln>
-1.58017519122777

> <r_i_glide_gscore>
-7.10526969579741

> <r_i_glide_lipo>
-3.03473476408661

> <r_i_glide_hbond>
-0.194646363248727

> <r_i_glide_metal>
0

> <r_i_glide_rewards>
-1.06761059436688

> <r_i_glide_evdw>
-47.2403144836426

> <r_i_glide_ecoul>
-4.91716814041138

> <r_i_glide_erotb>
0.296767123856408

> <r_i_glide_esite>
-0.00545415270776092

> <r_i_glide_emodel>
-72.3444991180339

> <r_i_glide_energy>
-52.157482624054

> <r_i_glide_einternal>
4.04939985275269

> <i_i_glide_confnum>
1

> <i_i_glide_posenum>
36

> <r_i_glide_eff_state_penalty>
0

> <i_f3d_flags>
0

> <s_user_duplicate_titles>
316545

> <s_m_subgroup_title>
dock_pv

> <s_m_subgroupid>
dock_pv1

> <b_m_subgroup_collapsed>
0

$$$$
307298
                    3D
 Schrodinger Suite 2021-1.
 36 38  0  0  1  0            999 V2000
    2.2833   27.4023   10.3791 C   0  0  0  0  0  0
    2.4201   28.4523    9.2950 C   0  0  0  0  0  0
    1.4784   29.4519    8.8783 C   0  0  0  0  0  0
    2.0985   30.1863    7.8496 C   0  0  0  0  0  0
    3.3578   29.6857    7.6968 N   0  0  0  0  0  0
    3.5735   28.6520    8.5496 C   0  0  0  0  0  0
    5.0953   27.8524    8.5700 Cl  0  0  0  0  0  0
    1.6706   31.3448    6.9759 C   0  0  0  0  0  0
    0.0810   29.6792    9.4115 C   0  0  0  0  0  0
   -0.7791   30.6991    8.9710 C   0  0  0  0  0  0
   -2.0269   30.8093    9.5850 C   0  0  0  0  0  0
   -2.4209   29.9746   10.5759 N   0  0  0  0  0  0
   -1.5423   29.0131   10.9454 C   0  0  0  0  0  0
   -0.3155   28.8295   10.3958 N   0  0  0  0  0  0
   -1.9426   28.1958   12.0064 N   0  0  0  0  0  0
   -1.4528   26.9568   12.4413 C   0  0  0  0  0  0
   -1.5415   26.6524   13.7997 C   0  0  0  0  0  0
   -1.0777   25.4264   14.2693 C   0  0  0  0  0  0
   -0.5382   24.5026   13.3772 C   0  0  0  0  0  0
   -0.4603   24.7926   12.0174 C   0  0  0  0  0  0
   -0.9231   26.0192   11.5478 C   0  0  0  0  0  0
   -0.0855   23.3151   13.8381 F   0  0  0  0  0  0
    4.0432   30.0544    7.0469 H   0  0  0  0  0  0
    1.5855   26.6166   10.0921 H   0  0  0  0  0  0
    3.2356   26.9397   10.6387 H   0  0  0  0  0  0
    1.9017   27.8283   11.3069 H   0  0  0  0  0  0
    1.3627   32.2169    7.5522 H   0  0  0  0  0  0
    2.4579   31.6861    6.3073 H   0  0  0  0  0  0
    0.8580   31.0508    6.3264 H   0  0  0  0  0  0
   -0.5238   31.3948    8.1938 H   0  0  0  0  0  0
   -2.7280   31.5786    9.2943 H   0  0  0  0  0  0
   -2.7569   28.5401   12.5025 H   0  0  0  0  0  0
   -1.9628   27.3707   14.4893 H   0  0  0  0  0  0
   -1.1334   25.1909   15.3196 H   0  0  0  0  0  0
   -0.0436   24.0703   11.3318 H   0  0  0  0  0  0
   -0.8737   26.2366   10.4912 H   0  0  0  0  0  0
  1  2  1  0  0  0
  1 24  1  0  0  0
  1 25  1  0  0  0
  1 26  1  0  0  0
  2  6  2  0  0  0
  2  3  1  0  0  0
  3  4  2  0  0  0
  3  9  1  0  0  0
  4  5  1  0  0  0
  4  8  1  0  0  0
  5 23  1  0  0  0
  5  6  1  0  0  0
  6  7  1  0  0  0
  8 27  1  0  0  0
  8 28  1  0  0  0
  8 29  1  0  0  0
  9 14  1  0  0  0
  9 10  2  0  0  0
 10 11  1  0  0  0
 10 30  1  0  0  0
 11 12  2  0  0  0
 11 31  1  0  0  0
 12 13  1  0  0  0
 13 14  2  0  0  0
 13 15  1  0  0  0
 15 16  1  0  0  0
 15 32  1  0  0  0
 16 21  1  0  0  0
 16 17  2  0  0  0
 17 18  1  0  0  0
 17 33  1  0  0  0
 18 19  2  0  0  0
 18 34  1  0  0  0
 19 20  1  0  0  0
 19 22  1  0  0  0
 20 21  2  0  0  0
 20 35  1  0  0  0
 21 36  1  0  0  0
M  END
> <s_m_entry_id>
34897

> <s_m_entry_name>
ligand_docking-pose.394

> <s_m_Source_Path>
/home/csk/Desktop/cluster/DUD-E-result/cdk2

> <s_m_Source_File>
ligand_docking-pose.sdf

> <i_m_Source_File_Index>
394

> <i_lp_mmshare_version>
53161

> <r_lp_tautomer_probability>
0.999999987636

> <s_lp_Force_Field>
OPLS_2005

> <r_lp_Energy>
6.78369

> <b_lp_Chiralities_Consistent>
1

> <s_lp_Variant>
307298-1

> <s_i_glide_gridfile>
glide-grid_1h00

> <i_i_glide_lignum>
772

> <i_i_glide_rotatable_bonds>
3

> <r_i_docking_score>
-7.09789773096767

> <r_i_glide_ligand_efficiency>
-0.322631715043985

> <r_i_glide_ligand_efficiency_sa>
-0.904026753938586

> <r_i_glide_ligand_efficiency_ln>
-1.73498510755884

> <r_i_glide_gscore>
-7.09789773096767

> <r_i_glide_lipo>
-2.50269388310895

> <r_i_glide_hbond>
-0.400128983735988

> <r_i_glide_metal>
0

> <r_i_glide_rewards>
-2.39654893998818

> <r_i_glide_evdw>
-35.9179000854492

> <r_i_glide_ecoul>
-3.54200053215027

> <r_i_glide_erotb>
0.556762967314873

> <r_i_glide_esite>
-0.0280938073544163

> <r_i_glide_emodel>
-56.0091168811897

> <r_i_glide_energy>
-39.4599006175995

> <r_i_glide_einternal>
1.114426612854

> <i_i_glide_confnum>
2

> <i_i_glide_posenum>
374

> <r_i_glide_eff_state_penalty>
0

> <i_f3d_flags>
0

> <s_user_duplicate_titles>
307298

> <s_m_subgroup_title>
dock_pv

> <s_m_subgroupid>
dock_pv1

> <b_m_subgroup_collapsed>
0

$$$$
147425
                    3D
 Schrodinger Suite 2021-1.
 35 37  0  0  1  0            999 V2000
   -1.3862   30.9241    9.3921 C   0  0  0  0  0  0
   -0.1126   30.6497    8.7464 N   0  0  0  0  0  0
    0.5053   31.4131    7.7760 C   0  0  0  0  0  0
    1.6636   30.9509    7.3759 N   0  0  0  0  0  0
    1.8735   29.8522    8.1708 C   0  0  0  0  0  0
    0.7734   29.6304    9.0330 C   0  0  0  0  0  0
    0.6633   28.6333    9.9170 N   0  0  0  0  0  0
    1.7402   27.8009    9.9275 C   0  0  0  0  0  0
    2.8578   27.9097    9.1645 N   0  0  0  0  0  0
    2.9359   28.9343    8.2722 C   0  0  0  0  0  0
    4.0576   29.0521    7.4381 N   0  0  0  0  0  0
    5.1919   28.1378    7.5150 C   0  0  0  0  0  0
    4.8923   26.8382    6.7828 C   0  0  0  0  0  0
    4.7607   26.8318    5.3925 C   0  0  0  0  0  0
    4.4670   25.6447    4.7269 C   0  0  0  0  0  0
    4.3048   24.4517    5.4500 C   0  0  0  0  0  0
    4.4583   24.4664    6.8355 C   0  0  0  0  0  0
    4.7566   25.6504    7.5019 C   0  0  0  0  0  0
    3.9870   23.2319    4.8849 O   0  0  0  0  0  0
    3.8300   23.1493    3.4737 C   0  0  0  0  0  0
    1.6672   26.4363   10.9760 Cl  0  0  0  0  0  0
   -1.9205   31.7131    8.8585 H   0  0  0  0  0  0
   -1.9948   30.0182    9.3946 H   0  0  0  0  0  0
   -1.2093   31.2340   10.4231 H   0  0  0  0  0  0
    0.0340   32.3133    7.4094 H   0  0  0  0  0  0
    4.1489   29.8945    6.8763 H   0  0  0  0  0  0
    5.4568   27.9412    8.5563 H   0  0  0  0  0  0
    6.0558   28.6099    7.0571 H   0  0  0  0  0  0
    4.8769   27.7485    4.8312 H   0  0  0  0  0  0
    4.3626   25.6687    3.6516 H   0  0  0  0  0  0
    4.3258   23.5533    7.3963 H   0  0  0  0  0  0
    4.8560   25.6517    8.5763 H   0  0  0  0  0  0
    3.5513   22.1338    3.1926 H   0  0  0  0  0  0
    4.7682   23.3885    2.9734 H   0  0  0  0  0  0
    3.0478   23.8192    3.1109 H   0  0  0  0  0  0
  1  2  1  0  0  0
  1 22  1  0  0  0
  1 23  1  0  0  0
  1 24  1  0  0  0
  2  6  1  0  0  0
  2  3  1  0  0  0
  3  4  2  0  0  0
  3 25  1  0  0  0
  4  5  1  0  0  0
  5 10  2  0  0  0
  5  6  1  0  0  0
  6  7  2  0  0  0
  7  8  1  0  0  0
  8  9  2  0  0  0
  8 21  1  0  0  0
  9 10  1  0  0  0
 10 11  1  0  0  0
 11 12  1  0  0  0
 11 26  1  0  0  0
 12 13  1  0  0  0
 12 27  1  0  0  0
 12 28  1  0  0  0
 13 18  1  0  0  0
 13 14  2  0  0  0
 14 15  1  0  0  0
 14 29  1  0  0  0
 15 16  2  0  0  0
 15 30  1  0  0  0
 16 17  1  0  0  0
 16 19  1  0  0  0
 17 18  2  0  0  0
 17 31  1  0  0  0
 18 32  1  0  0  0
 19 20  1  0  0  0
 20 33  1  0  0  0
 20 34  1  0  0  0
 20 35  1  0  0  0
M  END
> <s_m_entry_id>
34898

> <s_m_entry_name>
ligand_docking-pose.395

> <s_m_Source_Path>
/home/csk/Desktop/cluster/DUD-E-result/cdk2

> <s_m_Source_File>
ligand_docking-pose.sdf

> <i_m_Source_File_Index>
395

> <i_lp_mmshare_version>
53161

> <r_lp_tautomer_probability>
0.999997216410988

> <s_lp_Force_Field>
OPLS_2005

> <r_lp_Energy>
13.972519

> <b_lp_Chiralities_Consistent>
1

> <s_lp_Variant>
147425-1

> <s_i_glide_gridfile>
glide-grid_1h00

> <i_i_glide_lignum>
1509

> <i_i_glide_rotatable_bonds>
4

> <r_i_docking_score>
-7.09381563647461

> <r_i_glide_ligand_efficiency>
-0.337800744594029

> <r_i_glide_ligand_efficiency_sa>
-0.931966640114213

> <r_i_glide_ligand_efficiency_ln>
-1.75393158171415

> <r_i_glide_gscore>
-7.09381563647461

> <r_i_glide_lipo>
-1.71752606274137

> <r_i_glide_hbond>
-0.32

> <r_i_glide_metal>
0

> <r_i_glide_rewards>
-3.48489955075593

> <r_i_glide_evdw>
-33.4563140869141

> <r_i_glide_ecoul>
-3.3193724155426

> <r_i_glide_erotb>
0.59933154369978

> <r_i_glide_esite>
0

> <r_i_glide_emodel>
-52.9668406377202

> <r_i_glide_energy>
-36.7756865024567

> <r_i_glide_einternal>
0.589099943637848

> <i_i_glide_confnum>
2

> <i_i_glide_posenum>
78

> <r_i_glide_eff_state_penalty>
0

> <i_f3d_flags>
0

> <s_user_duplicate_titles>
147425

> <s_m_subgroup_title>
dock_pv

> <s_m_subgroupid>
dock_pv1

> <b_m_subgroup_collapsed>
0

$$$$
116432
                    3D
 Schrodinger Suite 2021-1.
 39 44  0  0  1  0            999 V2000
    2.1100   29.9383    7.5309 C   0  0  0  0  0  0
    0.9115   30.4069    8.1986 N   0  0  0  0  0  0
    0.4584   31.6641    7.8661 C   0  0  0  0  0  0
   -0.6543   31.9932    8.5761 C   0  0  0  0  0  0
   -0.9450   30.8774    9.4034 C   0  0  0  0  0  0
    0.0979   29.8884    9.2395 C   0  0  0  0  0  0
    0.0735   28.6724   10.0610 C   0  0  0  0  0  0
   -1.0846   28.5021   10.8947 C   0  0  0  0  0  0
   -2.0845   29.4890   10.9766 C   0  0  0  0  0  0
   -2.0050   30.6665   10.2732 C   0  0  0  0  0  0
   -1.2663   27.3384   11.6884 C   0  0  0  0  0  0
   -0.3620   26.2737   11.6749 C   0  0  0  0  0  0
   -0.8817   25.2926   12.5649 C   0  0  0  0  0  0
   -0.4607   24.0119   12.9680 C   0  0  0  0  0  0
   -1.1988   23.3235   13.9288 C   0  0  0  0  0  0
   -2.3381   23.8800   14.4992 C   0  0  0  0  0  0
   -2.7983   25.1432   14.1267 C   0  0  0  0  0  0
   -2.0659   25.8280   13.1515 C   0  0  0  0  0  0
   -2.2847   27.0613   12.5799 N   0  0  0  0  0  0
    0.7945   26.4202   10.8933 C   0  0  0  0  0  0
    1.0511   27.5914   10.1762 C   0  0  0  0  0  0
    2.4897   27.4469    9.7787 C   0  0  0  0  0  0
    3.2918   28.2545    9.3468 O   0  0  0  0  0  0
    2.8506   26.1865   10.0444 N   0  0  0  0  0  0
    1.9478   25.4931   10.7329 C   0  0  0  0  0  0
    2.1130   24.3498   11.1541 O   0  0  0  0  0  0
   -3.0371   27.6935   12.8279 H   0  0  0  0  0  0
    2.1775   30.3690    6.5276 H   0  0  0  0  0  0
    2.9879   30.2669    8.0876 H   0  0  0  0  0  0
    2.0942   28.8687    7.4081 H   0  0  0  0  0  0
    0.9833   32.2490    7.1261 H   0  0  0  0  0  0
   -1.2066   32.9183    8.4875 H   0  0  0  0  0  0
   -2.9345   29.3506   11.6260 H   0  0  0  0  0  0
   -2.7781   31.4131   10.3910 H   0  0  0  0  0  0
    0.4206   23.5486   12.5613 H   0  0  0  0  0  0
   -0.8797   22.3394   14.2364 H   0  0  0  0  0  0
   -2.8842   23.3113   15.2367 H   0  0  0  0  0  0
   -3.6916   25.5650   14.5650 H   0  0  0  0  0  0
    3.8023   25.8642    9.9187 H   0  0  0  0  0  0
  1  2  1  0  0  0
  1 28  1  0  0  0
  1 29  1  0  0  0
  1 30  1  0  0  0
  2  6  1  0  0  0
  2  3  1  0  0  0
  3  4  2  0  0  0
  3 31  1  0  0  0
  4  5  1  0  0  0
  4 32  1  0  0  0
  5 10  2  0  0  0
  5  6  1  0  0  0
  6  7  2  0  0  0
  7 21  1  0  0  0
  7  8  1  0  0  0
  8  9  2  0  0  0
  8 11  1  0  0  0
  9 10  1  0  0  0
  9 33  1  0  0  0
 10 34  1  0  0  0
 11 19  1  0  0  0
 11 12  2  0  0  0
 12 13  1  0  0  0
 12 20  1  0  0  0
 13 18  2  0  0  0
 13 14  1  0  0  0
 14 15  2  0  0  0
 14 35  1  0  0  0
 15 16  1  0  0  0
 15 36  1  0  0  0
 16 17  2  0  0  0
 16 37  1  0  0  0
 17 18  1  0  0  0
 17 38  1  0  0  0
 18 19  1  0  0  0
 19 27  1  0  0  0
 20 25  1  0  0  0
 20 21  2  0  0  0
 21 22  1  0  0  0
 22 23  2  0  0  0
 22 24  1  0  0  0
 24 25  1  0  0  0
 24 39  1  0  0  0
 25 26  2  0  0  0
M  END
> <s_m_entry_id>
34901

> <s_m_entry_name>
ligand_docking-pose.398

> <s_m_Source_Path>
/home/csk/Desktop/cluster/DUD-E-result/cdk2

> <s_m_Source_File>
ligand_docking-pose.sdf

> <i_m_Source_File_Index>
398

> <i_lp_mmshare_version>
53161

> <r_lp_tautomer_probability>
1

> <s_lp_Force_Field>
OPLS_2005

> <r_lp_Energy>
91.09479

> <b_lp_Chiralities_Consistent>
1

> <s_lp_Variant>
116432-1

> <s_i_glide_gridfile>
glide-grid_1h00

> <i_i_glide_lignum>
1451

> <i_i_glide_rotatable_bonds>
0

> <r_i_docking_score>
-7.08039471038753

> <r_i_glide_ligand_efficiency>
-0.272322873476444

> <r_i_glide_ligand_efficiency_sa>
-0.806755441135199

> <r_i_glide_ligand_efficiency_ln>
-1.66280746506453

> <r_i_glide_gscore>
-7.08039471038753

> <r_i_glide_lipo>
-2.45201497034915

> <r_i_glide_hbond>
-0.21290608223856

> <r_i_glide_metal>
0

> <r_i_glide_rewards>
-1.75552460142918

> <r_i_glide_evdw>
-37.6521034240723

> <r_i_glide_ecoul>
-4.73300647735596

> <r_i_glide_erotb>
0

> <r_i_glide_esite>
-0.06739291356363

> <r_i_glide_emodel>
-61.2335363516634

> <r_i_glide_energy>
-42.3851099014282

> <r_i_glide_einternal>
0

> <i_i_glide_confnum>
1

> <i_i_glide_posenum>
183

> <r_i_glide_eff_state_penalty>
0

> <i_f3d_flags>
0

> <s_user_duplicate_titles>
116432

> <s_m_subgroup_title>
dock_pv

> <s_m_subgroupid>
dock_pv1

> <b_m_subgroup_collapsed>
0

$$$$
301259
                    3D
 Schrodinger Suite 2021-1.
 37 40  0  0  1  0            999 V2000
   -0.7621   23.8493   13.9993 C   0  0  0  0  0  0
   -0.7515   25.0781   13.1089 C   0  0  0  0  0  0
   -0.3606   24.9714   11.7725 C   0  0  0  0  0  0
   -0.3350   26.1038   10.9632 C   0  0  0  0  0  0
   -0.6891   27.3480   11.4944 C   0  0  0  0  0  0
   -1.0960   27.4515   12.8302 C   0  0  0  0  0  0
   -1.1210   26.3169   13.6360 C   0  0  0  0  0  0
   -0.6522   28.4977   10.6755 N   0  0  0  0  0  0
    0.3379   28.9331    9.8236 C   0  0  0  0  0  0
   -0.1449   30.0898    9.2250 C   0  0  0  0  0  0
   -1.4279   30.2847    9.7920 C   0  0  0  0  0  0
   -1.7073   29.3229   10.6532 N   0  0  0  0  0  0
   -2.3230   31.3794    9.4688 C   0  0  0  0  0  0
   -2.0824   32.1914    8.5800 O   0  0  0  0  0  0
   -3.4523   31.4525   10.1760 N   0  0  0  0  0  0
    0.6531   30.8838    8.1841 C   0  0  0  0  0  0
    1.9802   30.2096    7.6949 C   0  0  0  0  0  0
    2.4579   29.0566    8.5719 C   0  0  0  0  0  0
    1.6675   28.4389    9.5558 C   0  0  0  0  0  0
    2.4778   27.4523   10.0869 C   0  0  0  0  0  0
    3.6446   27.5263    9.3760 N   0  0  0  0  0  0
    3.6494   28.5061    8.4695 N   0  0  0  0  0  0
    4.4624   26.9543    9.5683 H   0  0  0  0  0  0
   -0.1578   23.0424   13.5826 H   0  0  0  0  0  0
   -0.3428   24.0884   14.9773 H   0  0  0  0  0  0
   -1.7823   23.4932   14.1450 H   0  0  0  0  0  0
   -0.0770   24.0155   11.3580 H   0  0  0  0  0  0
   -0.0386   26.0109    9.9278 H   0  0  0  0  0  0
   -1.3890   28.4054   13.2479 H   0  0  0  0  0  0
   -1.4303   26.4055   14.6667 H   0  0  0  0  0  0
   -3.5421   30.9710   11.0675 H   0  0  0  0  0  0
   -4.1015   32.1914    9.9530 H   0  0  0  0  0  0
    0.0231   31.0596    7.3169 H   0  0  0  0  0  0
    0.8581   31.8791    8.5757 H   0  0  0  0  0  0
    1.8358   29.8472    6.6794 H   0  0  0  0  0  0
    2.7612   30.9660    7.6134 H   0  0  0  0  0  0
    2.3538   26.7438   10.8935 H   0  0  0  0  0  0
  1  2  1  0  0  0
  1 24  1  0  0  0
  1 25  1  0  0  0
  1 26  1  0  0  0
  2  7  1  0  0  0
  2  3  2  0  0  0
  3  4  1  0  0  0
  3 27  1  0  0  0
  4  5  2  0  0  0
  4 28  1  0  0  0
  5  6  1  0  0  0
  5  8  1  0  0  0
  6  7  2  0  0  0
  6 29  1  0  0  0
  7 30  1  0  0  0
  8 12  1  0  0  0
  8  9  1  0  0  0
  9 19  1  0  0  0
  9 10  2  0  0  0
 10 11  1  0  0  0
 10 16  1  0  0  0
 11 12  2  0  0  0
 11 13  1  0  0  0
 13 14  2  0  0  0
 13 15  1  0  0  0
 15 31  1  0  0  0
 15 32  1  0  0  0
 16 17  1  0  0  0
 16 33  1  0  0  0
 16 34  1  0  0  0
 17 18  1  0  0  0
 17 35  1  0  0  0
 17 36  1  0  0  0
 18 22  2  0  0  0
 18 19  1  0  0  0
 19 20  2  0  0  0
 20 21  1  0  0  0
 20 37  1  0  0  0
 21 23  1  0  0  0
 21 22  1  0  0  0
M  END
> <s_m_entry_id>
34904

> <s_m_entry_name>
ligand_docking-pose.401

> <s_m_Source_Path>
/home/csk/Desktop/cluster/DUD-E-result/cdk2

> <s_m_Source_File>
ligand_docking-pose.sdf

> <i_m_Source_File_Index>
401

> <i_lp_mmshare_version>
53161

> <r_lp_tautomer_probability>
0.5

> <s_lp_Force_Field>
OPLS_2005

> <r_lp_Energy>
22.756126

> <b_lp_Chiralities_Consistent>
1

> <s_lp_Variant>
301259-1

> <s_i_glide_gridfile>
glide-grid_1h00

> <i_i_glide_lignum>
726

> <i_i_glide_rotatable_bonds>
2

> <r_i_docking_score>
-7.07473672975114

> <r_i_glide_ligand_efficiency>
-0.321578942261415

> <r_i_glide_ligand_efficiency_sa>
-0.901076843198621

> <r_i_glide_ligand_efficiency_ln>
-1.72932371404348

> <r_i_glide_gscore>
-7.07473672975114

> <r_i_glide_lipo>
-2.39935995112939

> <r_i_glide_hbond>
-0.289896983712131

> <r_i_glide_metal>
0

> <r_i_glide_rewards>
-2.17097058413818

> <r_i_glide_evdw>
-35.8271789550781

> <r_i_glide_ecoul>
-3.94355511665344

> <r_i_glide_erotb>
0.212358723571313

> <r_i_glide_esite>
-0.0439757190908253

> <r_i_glide_emodel>
-56.8637676105375

> <r_i_glide_energy>
-39.7707340717316

> <r_i_glide_einternal>
0.0659465119242668

> <i_i_glide_confnum>
4

> <i_i_glide_posenum>
365

> <r_i_glide_eff_state_penalty>
0

> <i_f3d_flags>
0

> <s_user_duplicate_titles>
301259

> <s_m_subgroup_title>
dock_pv

> <s_m_subgroupid>
dock_pv1

> <b_m_subgroup_collapsed>
0

$$$$
300996
                    3D
 Schrodinger Suite 2021-1.
 29 31  0  0  1  0            999 V2000
    0.6125   31.0668    7.7874 C   0  0  0  0  0  0
    1.8513   30.6826    7.2538 C   0  0  0  0  0  0
    2.5401   29.6375    7.8759 C   0  0  0  0  0  0
    2.0136   28.9462    8.9761 C   0  0  0  0  0  0
    2.9828   27.9626    9.3317 C   0  0  0  0  0  0
    4.0212   28.0540    8.5367 N   0  0  0  0  0  0
    3.7707   29.0508    7.6596 N   0  0  0  0  0  0
    0.7552   29.3436    9.4862 C   0  0  0  0  0  0
    0.0560   30.4126    8.9040 C   0  0  0  0  0  0
   -1.1201   30.5771    9.7214 C   0  0  0  0  0  0
   -1.1220   29.6464   10.6538 N   0  0  0  0  0  0
    0.0006   28.9027   10.5563 N   0  0  0  0  0  0
    0.2613   27.8041   11.4939 C   0  0  0  0  0  0
   -0.5696   27.8295   12.8057 C   0  0  0  0  0  0
   -1.9417   27.5485   12.5758 O   0  0  0  0  0  0
   -2.1732   31.5527    9.5734 C   0  0  0  0  0  0
   -2.2534   32.2522    8.5760 O   0  0  0  0  0  0
   -3.0353   31.7128   10.5760 N   0  0  0  0  0  0
    4.4543   29.3038    6.9600 H   0  0  0  0  0  0
    0.0963   31.9191    7.3752 H   0  0  0  0  0  0
    2.2742   31.2066    6.4103 H   0  0  0  0  0  0
    2.9612   27.2354   10.1300 H   0  0  0  0  0  0
    1.3054   27.9303   11.7759 H   0  0  0  0  0  0
    0.2156   26.8393   10.9886 H   0  0  0  0  0  0
   -0.5209   28.8283   13.2439 H   0  0  0  0  0  0
   -0.1483   27.1547   13.5528 H   0  0  0  0  0  0
   -2.4882   28.0288   13.2147 H   0  0  0  0  0  0
   -3.0251   31.1482   11.4228 H   0  0  0  0  0  0
   -3.7404   32.4277   10.4841 H   0  0  0  0  0  0
  1  9  1  0  0  0
  1  2  2  0  0  0
  1 20  1  0  0  0
  2  3  1  0  0  0
  2 21  1  0  0  0
  3  7  1  0  0  0
  3  4  2  0  0  0
  4  5  1  0  0  0
  4  8  1  0  0  0
  5  6  2  0  0  0
  5 22  1  0  0  0
  6  7  1  0  0  0
  7 19  1  0  0  0
  8 12  1  0  0  0
  8  9  2  0  0  0
  9 10  1  0  0  0
 10 11  2  0  0  0
 10 16  1  0  0  0
 11 12  1  0  0  0
 12 13  1  0  0  0
 13 14  1  0  0  0
 13 23  1  0  0  0
 13 24  1  0  0  0
 14 15  1  0  0  0
 14 25  1  0  0  0
 14 26  1  0  0  0
 15 27  1  0  0  0
 16 17  2  0  0  0
 16 18  1  0  0  0
 18 28  1  0  0  0
 18 29  1  0  0  0
M  END
> <s_m_entry_id>
34907

> <s_m_entry_name>
ligand_docking-pose.404

> <s_m_Source_Path>
/home/csk/Desktop/cluster/DUD-E-result/cdk2

> <s_m_Source_File>
ligand_docking-pose.sdf

> <i_m_Source_File_Index>
404

> <i_lp_mmshare_version>
53161

> <r_lp_tautomer_probability>
1

> <s_lp_Force_Field>
OPLS_2005

> <r_lp_Energy>
56.27882

> <b_lp_Chiralities_Consistent>
1

> <s_lp_Variant>
300996-1

> <s_i_glide_gridfile>
glide-grid_1h00

> <i_i_glide_lignum>
95

> <i_i_glide_rotatable_bonds>
4

> <r_i_docking_score>
-7.0693077764031

> <r_i_glide_ligand_efficiency>
-0.392739320911283

> <r_i_glide_ligand_efficiency_sa>
-1.02926819445404

> <r_i_glide_ligand_efficiency_ln>
-1.81712911164717

> <r_i_glide_gscore>
-7.0693077764031

> <r_i_glide_lipo>
-2.10695318015837

> <r_i_glide_hbond>
-0.269710386987566

> <r_i_glide_metal>
0

> <r_i_glide_rewards>
-2.58637937592622

> <r_i_glide_evdw>
-30.8397560119629

> <r_i_glide_ecoul>
-7.3333854675293

> <r_i_glide_erotb>
0.578750955991495

> <r_i_glide_esite>
-0.043020168594893

> <r_i_glide_emodel>
-55.0986114677388

> <r_i_glide_energy>
-38.1731414794922

> <r_i_glide_einternal>
1.01581990718842

> <i_i_glide_confnum>
1

> <i_i_glide_posenum>
260

> <r_i_glide_eff_state_penalty>
0

> <i_f3d_flags>
0

> <s_user_duplicate_titles>
300996

> <s_m_subgroup_title>
dock_pv

> <s_m_subgroupid>
dock_pv1

> <b_m_subgroup_collapsed>
0

$$$$
226639
                    3D
 Schrodinger Suite 2021-1.
 41 44  0  0  1  0            999 V2000
    0.7323   25.2061   12.0852 C   0  0  0  0  0  0
    0.4339   23.9925   12.6899 C   0  0  0  0  0  0
    0.8790   22.8085   12.1105 C   0  0  0  0  0  0
    1.6022   22.8269   10.9219 C   0  0  0  0  0  0
    1.8892   24.0437   10.3212 C   0  0  0  0  0  0
    1.4878   25.2536   10.9143 C   0  0  0  0  0  0
    1.6816   26.4960   10.3146 N   0  0  0  0  0  0
    2.7955   26.7698    9.7760 C   0  0  0  0  0  0
    2.9908   27.9822    9.0171 C   0  0  0  0  0  0
    2.0566   29.0521    8.7859 C   0  0  0  0  0  0
    0.7660   29.3363    9.2608 C   0  0  0  0  0  0
    0.0580   30.4190    8.7407 C   0  0  0  0  0  0
    0.6405   31.2380    7.7759 C   0  0  0  0  0  0
    1.9194   31.0010    7.2718 C   0  0  0  0  0  0
    2.6196   29.9155    7.8046 C   0  0  0  0  0  0
    3.8910   29.4518    7.5680 N   0  0  0  0  0  0
    4.1108   28.3217    8.2977 C   0  0  0  0  0  0
    5.3201   27.7005    8.1760 O   0  0  0  0  0  0
   -1.3221   30.6871    9.2092 C   0  0  0  0  0  0
   -2.2247   31.7298    9.0790 C   0  0  0  0  0  0
   -3.3585   31.4520    9.6904 N   0  0  0  0  0  0
   -3.1701   30.2521   10.1761 C   0  0  0  0  0  0
   -1.9464   29.7299    9.9358 O   0  0  0  0  0  0
    0.4497   21.2435   12.8222 S   0  0  0  0  0  0
    1.6313   20.3826   12.7174 O   0  0  0  0  0  0
   -0.2094   21.4933   14.1083 O   0  0  0  0  0  0
   -0.7422   20.6520   11.7089 N   0  0  0  0  0  0
    4.5825   29.8450    6.9432 H   0  0  0  0  0  0
    0.3809   26.1260   12.5313 H   0  0  0  0  0  0
   -0.1532   23.9810   13.5968 H   0  0  0  0  0  0
    1.9107   21.9062   10.4476 H   0  0  0  0  0  0
    2.4113   24.0480    9.3753 H   0  0  0  0  0  0
    3.6579   26.1095    9.7760 H   0  0  0  0  0  0
    0.3119   28.6935   10.0001 H   0  0  0  0  0  0
    0.0842   32.0792    7.3882 H   0  0  0  0  0  0
    2.3550   31.6379    6.5176 H   0  0  0  0  0  0
    5.4260   27.0710    8.8975 H   0  0  0  0  0  0
   -2.0637   32.6649    8.5647 H   0  0  0  0  0  0
   -3.8260   29.6571   10.7939 H   0  0  0  0  0  0
   -0.2932   20.1637   10.9316 H   0  0  0  0  0  0
   -1.3460   19.9552   12.1760 H   0  0  0  0  0  0
  1  6  1  0  0  0
  1  2  2  0  0  0
  1 29  1  0  0  0
  2  3  1  0  0  0
  2 30  1  0  0  0
  3  4  2  0  0  0
  3 24  1  0  0  0
  4  5  1  0  0  0
  4 31  1  0  0  0
  5  6  2  0  0  0
  5 32  1  0  0  0
  6  7  1  0  0  0
  7  8  2  0  0  0
  8  9  1  0  0  0
  8 33  1  0  0  0
  9 17  2  0  0  0
  9 10  1  0  0  0
 10 15  2  0  0  0
 10 11  1  0  0  0
 11 12  2  0  0  0
 11 34  1  0  0  0
 12 13  1  0  0  0
 12 19  1  0  0  0
 13 14  2  0  0  0
 13 35  1  0  0  0
 14 15  1  0  0  0
 14 36  1  0  0  0
 15 16  1  0  0  0
 16 28  1  0  0  0
 16 17  1  0  0  0
 17 18  1  0  0  0
 18 37  1  0  0  0
 19 23  1  0  0  0
 19 20  2  0  0  0
 20 21  1  0  0  0
 20 38  1  0  0  0
 21 22  2  0  0  0
 22 23  1  0  0  0
 22 39  1  0  0  0
 24 25  2  0  0  0
 24 26  2  0  0  0
 24 27  1  0  0  0
 27 40  1  0  0  0
 27 41  1  0  0  0
M  END
> <s_m_entry_id>
34908

> <s_m_entry_name>
ligand_docking-pose.405

> <s_m_Source_Path>
/home/csk/Desktop/cluster/DUD-E-result/cdk2

> <s_m_Source_File>
ligand_docking-pose.sdf

> <i_m_Source_File_Index>
405

> <i_lp_mmshare_version>
53161

> <r_lp_tautomer_probability>
1

> <s_lp_Force_Field>
OPLS_2005

> <r_lp_Energy>
23.671134

> <b_lp_Chiralities_Consistent>
1

> <s_lp_Variant>
226639-1

> <s_i_glide_gridfile>
glide-grid_1h00

> <i_i_glide_lignum>
462

> <i_i_glide_rotatable_bonds>
5

> <r_i_docking_score>
-7.06857712060081

> <r_i_glide_ligand_efficiency>
-0.261799152614845

> <r_i_glide_ligand_efficiency_sa>
-0.785397456981688

> <r_i_glide_ligand_efficiency_ln>
-1.64544821907436

> <r_i_glide_gscore>
-7.06857712060081

> <r_i_glide_lipo>
-2.64835691155092

> <r_i_glide_hbond>
-0.395349243432435

> <r_i_glide_metal>
0

> <r_i_glide_rewards>
-0.800989455302435

> <r_i_glide_evdw>
-36.7239646911621

> <r_i_glide_ecoul>
-10.2508859634399

> <r_i_glide_erotb>
0.398450197647783

> <r_i_glide_esite>
-0.248500578888709

> <r_i_glide_emodel>
-65.4825446027883

> <r_i_glide_energy>
-46.9748506546021

> <r_i_glide_einternal>
0.362519323825836

> <i_i_glide_confnum>
1

> <i_i_glide_posenum>
270

> <r_i_glide_eff_state_penalty>
0

> <i_f3d_flags>
0

> <s_user_duplicate_titles>
226639

> <s_m_subgroup_title>
dock_pv

> <s_m_subgroupid>
dock_pv1

> <b_m_subgroup_collapsed>
0

$$$$
67382
                    3D
 Schrodinger Suite 2021-1.
 34 36  0  0  1  0            999 V2000
   -3.3784   30.6041   10.1760 C   0  0  0  0  0  0
   -2.2916   29.6203   10.5344 C   0  0  0  0  0  0
   -0.9962   29.5981   10.0446 C   0  0  0  0  0  0
   -0.1719   28.2153   10.7342 S   0  0  0  0  0  0
   -1.6117   27.8287   11.6122 C   0  0  0  0  0  0
   -2.6012   28.6520   11.3760 N   0  0  0  0  0  0
   -1.7314   26.6520   12.5517 C   0  0  0  0  0  0
   -0.3424   30.5269    9.0893 C   0  0  0  0  0  0
   -0.6987   31.8757    8.9760 C   0  0  0  0  0  0
    0.0629   32.6520    8.1058 C   0  0  0  0  0  0
    1.0947   32.1420    7.3760 N   0  0  0  0  0  0
    1.3590   30.8204    7.5480 C   0  0  0  0  0  0
    0.6703   29.9953    8.3690 N   0  0  0  0  0  0
    2.4580   30.2981    6.8589 N   0  0  0  0  0  0
    3.2466   29.1642    7.1144 C   0  0  0  0  0  0
    3.3103   28.5691    8.3781 C   0  0  0  0  0  0
    4.0711   27.4244    8.5760 C   0  0  0  0  0  0
    4.8207   26.8889    7.5291 C   0  0  0  0  0  0
    4.7914   27.4975    6.2753 C   0  0  0  0  0  0
    4.0102   28.6347    6.0708 C   0  0  0  0  0  0
    5.5004   26.9726    5.2520 F   0  0  0  0  0  0
   -3.2149   31.5747   10.6426 H   0  0  0  0  0  0
   -3.4627   30.7583    9.1001 H   0  0  0  0  0  0
   -4.3420   30.2787   10.5321 H   0  0  0  0  0  0
   -1.7497   25.7076   12.0077 H   0  0  0  0  0  0
   -2.6422   26.6951   13.1510 H   0  0  0  0  0  0
   -0.8947   26.6103   13.2493 H   0  0  0  0  0  0
   -1.4805   32.3272    9.5630 H   0  0  0  0  0  0
   -0.1408   33.7065    7.9925 H   0  0  0  0  0  0
    2.9611   30.9780    6.3001 H   0  0  0  0  0  0
    2.7674   28.9714    9.2188 H   0  0  0  0  0  0
    4.0580   26.9602    9.5479 H   0  0  0  0  0  0
    5.4148   26.0011    7.6860 H   0  0  0  0  0  0
    3.9957   29.0944    5.0943 H   0  0  0  0  0  0
  1  2  1  0  0  0
  1 22  1  0  0  0
  1 23  1  0  0  0
  1 24  1  0  0  0
  2  6  1  0  0  0
  2  3  2  0  0  0
  3  4  1  0  0  0
  3  8  1  0  0  0
  4  5  1  0  0  0
  5  6  2  0  0  0
  5  7  1  0  0  0
  7 25  1  0  0  0
  7 26  1  0  0  0
  7 27  1  0  0  0
  8 13  1  0  0  0
  8  9  2  0  0  0
  9 10  1  0  0  0
  9 28  1  0  0  0
 10 11  2  0  0  0
 10 29  1  0  0  0
 11 12  1  0  0  0
 12 13  2  0  0  0
 12 14  1  0  0  0
 14 15  1  0  0  0
 14 30  1  0  0  0
 15 20  1  0  0  0
 15 16  2  0  0  0
 16 17  1  0  0  0
 16 31  1  0  0  0
 17 18  2  0  0  0
 17 32  1  0  0  0
 18 19  1  0  0  0
 18 33  1  0  0  0
 19 20  2  0  0  0
 19 21  1  0  0  0
 20 34  1  0  0  0
M  END
> <s_m_entry_id>
34910

> <s_m_entry_name>
ligand_docking-pose.407

> <s_m_Source_Path>
/home/csk/Desktop/cluster/DUD-E-result/cdk2

> <s_m_Source_File>
ligand_docking-pose.sdf

> <i_m_Source_File_Index>
407

> <i_lp_mmshare_version>
53161

> <r_lp_tautomer_probability>
0.999999987636

> <s_lp_Force_Field>
OPLS_2005

> <r_lp_Energy>
4.973461

> <b_lp_Chiralities_Consistent>
1

> <s_lp_Variant>
67382-1

> <s_i_glide_gridfile>
glide-grid_1h00

> <i_i_glide_lignum>
825

> <i_i_glide_rotatable_bonds>
3

> <r_i_docking_score>
-7.05748796664547

> <r_i_glide_ligand_efficiency>
-0.336070855554546

> <r_i_glide_ligand_efficiency_sa>
-0.92719400742557

> <r_i_glide_ligand_efficiency_ln>
-1.74494963875586

> <r_i_glide_gscore>
-7.05748796664547

> <r_i_glide_lipo>
-2.24590473819639

> <r_i_glide_hbond>
-0.248274812805948

> <r_i_glide_metal>
0

> <r_i_glide_rewards>
-3.01367064184497

> <r_i_glide_evdw>
-31.5976734161377

> <r_i_glide_ecoul>
-3.86984324455261

> <r_i_glide_erotb>
0.611233869430136

> <r_i_glide_esite>
-0.000511485738519973

> <r_i_glide_emodel>
-50.6250768029879

> <r_i_glide_energy>
-35.4675166606903

> <r_i_glide_einternal>
1.85443818569183

> <i_i_glide_confnum>
4

> <i_i_glide_posenum>
376

> <r_i_glide_eff_state_penalty>
0

> <i_f3d_flags>
0

> <s_user_duplicate_titles>
67382

> <s_m_subgroup_title>
dock_pv

> <s_m_subgroupid>
dock_pv1

> <b_m_subgroup_collapsed>
0

$$$$
137622
                    3D
 Schrodinger Suite 2021-1.
 43 45  0  0  1  0            999 V2000
    4.0077   22.2982    7.2616 C   0  0  0  0  0  0
    5.2581   23.0059    6.9770 N   0  0  0  0  0  0
    6.2187   22.2798    6.1461 C   0  0  0  0  0  0
    5.2177   24.4255    6.9281 C   0  0  0  0  0  0
    5.9327   25.1428    5.9581 C   0  0  0  0  0  0
    5.8919   26.5317    5.8561 C   0  0  0  0  0  0
    5.1007   27.2113    6.7800 C   0  0  0  0  0  0
    4.3799   26.5409    7.8090 C   0  0  0  0  0  0
    4.4583   25.1388    7.8664 C   0  0  0  0  0  0
    3.6586   27.5333    8.5765 C   0  0  0  0  0  0
    3.9562   28.7345    7.9529 C   0  0  0  0  0  0
    4.8239   28.5494    6.9143 N   0  0  0  0  0  0
    3.5391   30.0147    8.1760 O   0  0  0  0  0  0
    2.7984   27.2574    9.7244 C   0  0  0  0  0  0
    1.6815   27.8401    9.9329 N   0  0  0  0  0  0
    0.8405   27.3919   10.9735 C   0  0  0  0  0  0
    0.5852   26.0287   11.2156 C   0  0  0  0  0  0
   -0.2918   25.6182   12.2150 C   0  0  0  0  0  0
   -0.9690   26.5670   12.9801 C   0  0  0  0  0  0
   -0.7806   27.9262   12.7198 C   0  0  0  0  0  0
    0.1062   28.3263   11.7160 C   0  0  0  0  0  0
   -2.0838   26.0257   14.2830 S   0  0  0  0  0  0
   -1.8911   24.5826   14.4623 O   0  0  0  0  0  0
   -1.9418   26.9446   15.4178 O   0  0  0  0  0  0
   -3.6857   26.2520   13.6353 N   0  0  0  0  0  0
    5.1616   29.3105    6.3428 H   0  0  0  0  0  0
    3.2806   22.4730    6.4654 H   0  0  0  0  0  0
    4.1664   21.2216    7.3357 H   0  0  0  0  0  0
    3.5421   22.6236    8.1902 H   0  0  0  0  0  0
    5.9232   22.3152    5.0962 H   0  0  0  0  0  0
    7.2158   22.7155    6.2267 H   0  0  0  0  0  0
    6.2945   21.2348    6.4482 H   0  0  0  0  0  0
    6.5282   24.6228    5.2241 H   0  0  0  0  0  0
    6.4405   27.0520    5.0830 H   0  0  0  0  0  0
    3.9164   24.6242    8.6412 H   0  0  0  0  0  0
    3.8069   30.5957    7.4566 H   0  0  0  0  0  0
    3.1892   26.4629   10.3554 H   0  0  0  0  0  0
    1.0812   25.2743   10.6236 H   0  0  0  0  0  0
   -0.4423   24.5620   12.3852 H   0  0  0  0  0  0
   -1.3194   28.6702   13.2913 H   0  0  0  0  0  0
    0.2427   29.3796   11.5198 H   0  0  0  0  0  0
   -3.9419   27.2505   13.6076 H   0  0  0  0  0  0
   -3.8589   25.7564   12.7551 H   0  0  0  0  0  0
  1  2  1  0  0  0
  1 27  1  0  0  0
  1 28  1  0  0  0
  1 29  1  0  0  0
  2  3  1  0  0  0
  2  4  1  0  0  0
  3 30  1  0  0  0
  3 31  1  0  0  0
  3 32  1  0  0  0
  4  9  1  0  0  0
  4  5  2  0  0  0
  5  6  1  0  0  0
  5 33  1  0  0  0
  6  7  2  0  0  0
  6 34  1  0  0  0
  7 12  1  0  0  0
  7  8  1  0  0  0
  8  9  2  0  0  0
  8 10  1  0  0  0
  9 35  1  0  0  0
 10 11  2  0  0  0
 10 14  1  0  0  0
 11 12  1  0  0  0
 11 13  1  0  0  0
 12 26  1  0  0  0
 13 36  1  0  0  0
 14 15  2  0  0  0
 14 37  1  0  0  0
 15 16  1  0  0  0
 16 21  1  0  0  0
 16 17  2  0  0  0
 17 18  1  0  0  0
 17 38  1  0  0  0
 18 19  2  0  0  0
 18 39  1  0  0  0
 19 20  1  0  0  0
 19 22  1  0  0  0
 20 21  2  0  0  0
 20 40  1  0  0  0
 21 41  1  0  0  0
 22 23  2  0  0  0
 22 24  2  0  0  0
 22 25  1  0  0  0
 25 42  1  0  0  0
 25 43  1  0  0  0
M  END
> <s_m_entry_id>
34912

> <s_m_entry_name>
ligand_docking-pose.409

> <s_m_Source_Path>
/home/csk/Desktop/cluster/DUD-E-result/cdk2

> <s_m_Source_File>
ligand_docking-pose.sdf

> <i_m_Source_File_Index>
409

> <i_lp_mmshare_version>
53161

> <r_lp_tautomer_probability>
1

> <s_lp_Force_Field>
OPLS_2005

> <r_lp_Energy>
24.607598

> <b_lp_Chiralities_Consistent>
1

> <s_lp_Variant>
137622-1

> <s_i_glide_gridfile>
glide-grid_1h00

> <i_i_glide_lignum>
1515

> <i_i_glide_rotatable_bonds>
5

> <r_i_docking_score>
-7.05424515091683

> <r_i_glide_ligand_efficiency>
-0.282169806036673

> <r_i_glide_ligand_efficiency_sa>
-0.825069517154051

> <r_i_glide_ligand_efficiency_ln>
-1.67206749943564

> <r_i_glide_gscore>
-7.05424515091683

> <r_i_glide_lipo>
-1.55394508542459

> <r_i_glide_hbond>
-0.750897767409753

> <r_i_glide_metal>
0

> <r_i_glide_rewards>
-0.765428603998324

> <r_i_glide_evdw>
-34.940357208252

> <r_i_glide_ecoul>
-15.2122917175293

> <r_i_glide_erotb>
0.298228615703743

> <r_i_glide_esite>
-0.253340691745919

> <r_i_glide_emodel>
-67.472176500854

> <r_i_glide_energy>
-50.1526489257812

> <r_i_glide_einternal>
7.82463121414185

> <i_i_glide_confnum>
6

> <i_i_glide_posenum>
154

> <r_i_glide_eff_state_penalty>
0

> <i_f3d_flags>
0

> <s_user_duplicate_titles>
137622

> <s_m_subgroup_title>
dock_pv

> <s_m_subgroupid>
dock_pv1

> <b_m_subgroup_collapsed>
0

$$$$
625578
                    3D
 Schrodinger Suite 2021-1.
 43 46  0  0  1  0            999 V2000
    4.3422   28.2247    4.5876 C   0  0  0  0  0  0
    4.9075   27.4822    5.7868 C   0  0  0  0  0  0
    5.6919   26.3460    5.5624 C   0  0  0  0  0  0
    6.2613   25.6603    6.6320 C   0  0  0  0  0  0
    6.0453   26.1056    7.9322 C   0  0  0  0  0  0
    5.2498   27.2270    8.1693 C   0  0  0  0  0  0
    4.6702   27.9210    7.1028 C   0  0  0  0  0  0
    3.8697   29.0520    7.3332 N   0  0  0  0  0  0
    2.7395   29.1957    8.1447 C   0  0  0  0  0  0
    1.9396   30.2487    7.8388 N   0  0  0  0  0  0
    0.7733   30.3481    8.5289 C   0  0  0  0  0  0
    0.3908   29.4432    9.5237 C   0  0  0  0  0  0
    1.2905   28.3896    9.7614 C   0  0  0  0  0  0
    2.4592   28.2507    9.0811 N   0  0  0  0  0  0
    0.8819   27.3989   10.7912 C   0  0  0  0  0  0
   -0.1001   27.6493   11.7394 C   0  0  0  0  0  0
   -0.2089   26.4573   12.4921 C   0  0  0  0  0  0
    0.6453   25.5492   12.0609 N   0  0  0  0  0  0
    1.3143   26.1213   11.0498 N   0  0  0  0  0  0
    2.3079   25.3404   10.3270 C   0  0  0  0  0  0
   -1.0690   26.2544   13.6242 C   0  0  0  0  0  0
   -0.6670   25.8153   14.6995 O   0  0  0  0  0  0
   -2.3423   26.5778   13.4137 N   0  0  0  0  0  0
   -0.7959   29.0127   11.7629 C   0  0  0  0  0  0
   -0.9281   29.5333   10.3012 C   0  0  0  0  0  0
    4.6067   27.7535    3.6404 H   0  0  0  0  0  0
    3.2581   28.2525    4.6641 H   0  0  0  0  0  0
    4.7096   29.2507    4.5791 H   0  0  0  0  0  0
    5.8773   25.9997    4.5556 H   0  0  0  0  0  0
    6.8749   24.7899    6.4508 H   0  0  0  0  0  0
    6.4872   25.5788    8.7647 H   0  0  0  0  0  0
    5.0880   27.5584    9.1842 H   0  0  0  0  0  0
    4.0079   29.8094    6.6755 H   0  0  0  0  0  0
    0.1410   31.1862    8.2734 H   0  0  0  0  0  0
    3.2073   25.9378   10.1794 H   0  0  0  0  0  0
    2.5762   24.4453   10.8874 H   0  0  0  0  0  0
    1.9030   25.0529    9.3563 H   0  0  0  0  0  0
   -3.0013   26.5506   14.1756 H   0  0  0  0  0  0
   -2.6258   26.9616   12.5255 H   0  0  0  0  0  0
   -1.7829   28.9630   12.2234 H   0  0  0  0  0  0
   -0.2215   29.7214   12.3614 H   0  0  0  0  0  0
   -1.3022   30.5583   10.3052 H   0  0  0  0  0  0
   -1.6795   28.9397    9.7784 H   0  0  0  0  0  0
  1  2  1  0  0  0
  1 26  1  0  0  0
  1 27  1  0  0  0
  1 28  1  0  0  0
  2  7  1  0  0  0
  2  3  2  0  0  0
  3  4  1  0  0  0
  3 29  1  0  0  0
  4  5  2  0  0  0
  4 30  1  0  0  0
  5  6  1  0  0  0
  5 31  1  0  0  0
  6  7  2  0  0  0
  6 32  1  0  0  0
  7  8  1  0  0  0
  8  9  1  0  0  0
  8 33  1  0  0  0
  9 14  1  0  0  0
  9 10  2  0  0  0
 10 11  1  0  0  0
 11 12  2  0  0  0
 11 34  1  0  0  0
 12 25  1  0  0  0
 12 13  1  0  0  0
 13 14  2  0  0  0
 13 15  1  0  0  0
 15 19  1  0  0  0
 15 16  2  0  0  0
 16 17  1  0  0  0
 16 24  1  0  0  0
 17 18  2  0  0  0
 17 21  1  0  0  0
 18 19  1  0  0  0
 19 20  1  0  0  0
 20 35  1  0  0  0
 20 36  1  0  0  0
 20 37  1  0  0  0
 21 22  2  0  0  0
 21 23  1  0  0  0
 23 38  1  0  0  0
 23 39  1  0  0  0
 24 25  1  0  0  0
 24 40  1  0  0  0
 24 41  1  0  0  0
 25 42  1  0  0  0
 25 43  1  0  0  0
M  END
> <s_m_entry_id>
34914

> <s_m_entry_name>
ligand_docking-pose.411

> <s_m_Source_Path>
/home/csk/Desktop/cluster/DUD-E-result/cdk2

> <s_m_Source_File>
ligand_docking-pose.sdf

> <i_m_Source_File_Index>
411

> <i_lp_mmshare_version>
53161

> <r_lp_tautomer_probability>
0.999999987636

> <s_lp_Force_Field>
OPLS_2005

> <r_lp_Energy>
13.969704

> <b_lp_Chiralities_Consistent>
1

> <s_lp_Variant>
625578-1

> <s_i_glide_gridfile>
glide-grid_1h00

> <i_i_glide_lignum>
731

> <i_i_glide_rotatable_bonds>
3

> <r_i_docking_score>
-7.04970419597064

> <r_i_glide_ligand_efficiency>
-0.281988167838826

> <r_i_glide_ligand_efficiency_sa>
-0.824538403842178

> <r_i_glide_ligand_efficiency_ln>
-1.67099115703195

> <r_i_glide_gscore>
-7.04970419597064

> <r_i_glide_lipo>
-1.95648117962981

> <r_i_glide_hbond>
-0.32

> <r_i_glide_metal>
0

> <r_i_glide_rewards>
-2.45340614791365

> <r_i_glide_evdw>
-39.064697265625

> <r_i_glide_ecoul>
-4.31836700439453

> <r_i_glide_erotb>
0.337362792519036

> <r_i_glide_esite>
-0.0561897470057886

> <r_i_glide_emodel>
-61.2673792571642

> <r_i_glide_energy>
-43.3830642700195

> <r_i_glide_einternal>
2.18603682518005

> <i_i_glide_confnum>
10

> <i_i_glide_posenum>
379

> <r_i_glide_eff_state_penalty>
0

> <i_f3d_flags>
0

> <s_user_duplicate_titles>
625578

> <s_m_subgroup_title>
dock_pv

> <s_m_subgroupid>
dock_pv1

> <b_m_subgroup_collapsed>
0

$$$$
549093
                    3D
 Schrodinger Suite 2021-1.
 52 55  0  0  1  0            999 V2000
   -2.4436   32.2737   10.1622 C   0  0  0  0  0  0
   -2.1071   31.3545    8.9765 C   0  0  0  0  0  0
   -1.2415   30.1824    9.3986 C   0  0  0  0  0  0
    0.0941   29.8216    9.0221 C   0  0  0  0  0  0
    0.3913   28.6681    9.7895 C   0  0  0  0  0  0
    1.5612   28.0113    9.7981 N   0  0  0  0  0  0
    2.4899   28.5707    8.9756 C   0  0  0  0  0  0
    2.3197   29.6640    8.1891 N   0  0  0  0  0  0
    1.1182   30.2829    8.1777 C   0  0  0  0  0  0
    0.8584   31.3921    7.4214 O   0  0  0  0  0  0
    3.8748   27.9149    8.9456 C   0  0  0  0  0  0
    4.4047   27.4930    7.5702 C   0  0  0  0  0  0
    4.8393   26.1825    7.3418 C   0  0  0  0  0  0
    5.3006   25.8048    6.0778 C   0  0  0  0  0  0
    5.2993   26.7292    5.0306 C   0  0  0  0  0  0
    4.8582   28.0365    5.2608 C   0  0  0  0  0  0
    4.4556   28.4179    6.5262 C   0  0  0  0  0  0
    5.8592   26.3581    3.7970 N   0  0  0  0  0  0
    5.4986   26.8202    2.5797 C   0  0  0  0  0  0
    4.4554   27.4475    2.3750 O   0  0  0  0  0  0
    6.4918   26.5113    1.4350 C   0  0  0  0  0  0
    6.0582   27.0513    0.1587 N   0  0  0  0  0  0
   -0.7510   28.4034   10.5254 N   0  0  0  0  0  0
   -1.7101   29.3140   10.2635 N   0  0  0  0  0  0
   -0.9768   27.4054   11.4892 C   0  0  0  0  0  0
   -1.1472   26.0645   11.1033 C   0  0  0  0  0  0
   -1.3643   25.0900   12.0781 C   0  0  0  0  0  0
   -1.4375   25.4397   13.4245 C   0  0  0  0  0  0
   -1.2932   26.7723   13.8029 C   0  0  0  0  0  0
   -1.0644   27.7591   12.8453 C   0  0  0  0  0  0
   -0.8815   29.4012   13.3726 Cl  0  0  0  0  0  0
   -1.7167   24.2301   14.6247 Cl  0  0  0  0  0  0
   -1.1411   25.5770    9.4414 Cl  0  0  0  0  0  0
   -3.1397   33.0567    9.8693 H   0  0  0  0  0  0
   -2.9148   31.7190   10.9743 H   0  0  0  0  0  0
   -1.5494   32.7493   10.5661 H   0  0  0  0  0  0
   -1.6430   31.9463    8.1903 H   0  0  0  0  0  0
   -3.0345   30.9840    8.5394 H   0  0  0  0  0  0
   -0.0128   31.7479    7.5951 H   0  0  0  0  0  0
    3.8725   27.0545    9.6136 H   0  0  0  0  0  0
    4.5847   28.6215    9.3740 H   0  0  0  0  0  0
    4.8274   25.4572    8.1431 H   0  0  0  0  0  0
    5.6560   24.7959    5.9161 H   0  0  0  0  0  0
    4.9000   28.7908    4.4925 H   0  0  0  0  0  0
    4.1935   29.4514    6.6720 H   0  0  0  0  0  0
    6.6513   25.7362    3.8464 H   0  0  0  0  0  0
    6.6002   25.4292    1.3441 H   0  0  0  0  0  0
    7.4735   26.9182    1.6863 H   0  0  0  0  0  0
    6.7646   26.8349   -0.5308 H   0  0  0  0  0  0
    5.2586   26.4806   -0.1115 H   0  0  0  0  0  0
   -1.4959   24.0592   11.7832 H   0  0  0  0  0  0
   -1.3672   27.0482   14.8429 H   0  0  0  0  0  0
  1  2  1  0  0  0
  1 34  1  0  0  0
  1 35  1  0  0  0
  1 36  1  0  0  0
  2  3  1  0  0  0
  2 37  1  0  0  0
  2 38  1  0  0  0
  3 24  2  0  0  0
  3  4  1  0  0  0
  4  9  2  0  0  0
  4  5  1  0  0  0
  5  6  2  0  0  0
  5 23  1  0  0  0
  6  7  1  0  0  0
  7  8  2  0  0  0
  7 11  1  0  0  0
  8  9  1  0  0  0
  9 10  1  0  0  0
 10 39  1  0  0  0
 11 12  1  0  0  0
 11 40  1  0  0  0
 11 41  1  0  0  0
 12 17  1  0  0  0
 12 13  2  0  0  0
 13 14  1  0  0  0
 13 42  1  0  0  0
 14 15  2  0  0  0
 14 43  1  0  0  0
 15 16  1  0  0  0
 15 18  1  0  0  0
 16 17  2  0  0  0
 16 44  1  0  0  0
 17 45  1  0  0  0
 18 19  1  0  0  0
 18 46  1  0  0  0
 19 20  2  0  0  0
 19 21  1  0  0  0
 21 22  1  0  0  0
 21 47  1  0  0  0
 21 48  1  0  0  0
 22 49  1  0  0  0
 22 50  1  0  0  0
 23 24  1  0  0  0
 23 25  1  0  0  0
 25 30  1  0  0  0
 25 26  2  0  0  0
 26 27  1  0  0  0
 26 33  1  0  0  0
 27 28  2  0  0  0
 27 51  1  0  0  0
 28 29  1  0  0  0
 28 32  1  0  0  0
 29 30  2  0  0  0
 29 52  1  0  0  0
 30 31  1  0  0  0
M  END
> <s_m_entry_id>
34915

> <s_m_entry_name>
ligand_docking-pose.412

> <s_m_Source_Path>
/home/csk/Desktop/cluster/DUD-E-result/cdk2

> <s_m_Source_File>
ligand_docking-pose.sdf

> <i_m_Source_File_Index>
412

> <i_lp_mmshare_version>
53161

> <r_lp_tautomer_probability>
1

> <s_lp_Force_Field>
OPLS_2005

> <r_lp_Energy>
13.252495

> <b_lp_Chiralities_Consistent>
1

> <s_lp_Variant>
549093-1

> <s_i_glide_gridfile>
glide-grid_1h00

> <i_i_glide_lignum>
937

> <i_i_glide_rotatable_bonds>
8

> <r_i_docking_score>
-7.04658735514277

> <r_i_glide_ligand_efficiency>
-0.213532950155841

> <r_i_glide_ligand_efficiency_sa>
-0.68491426741188

> <r_i_glide_ligand_efficiency_ln>
-1.56712454250708

> <r_i_glide_gscore>
-7.04658735514277

> <r_i_glide_lipo>
-3.00733630280857

> <r_i_glide_hbond>
-0.0224957429144031

> <r_i_glide_metal>
0

> <r_i_glide_rewards>
-1.07496005755397

> <r_i_glide_evdw>
-49.9412002563477

> <r_i_glide_ecoul>
-5.26720142364502

> <r_i_glide_erotb>
0.399810514943091

> <r_i_glide_esite>
-0.0544655404447796

> <r_i_glide_emodel>
-73.1893390717655

> <r_i_glide_energy>
-55.2084016799927

> <r_i_glide_einternal>
11.34312915802

> <i_i_glide_confnum>
3

> <i_i_glide_posenum>
172

> <r_i_glide_eff_state_penalty>
0

> <i_f3d_flags>
0

> <s_user_duplicate_titles>
549093

> <s_m_subgroup_title>
dock_pv

> <s_m_subgroupid>
dock_pv1

> <b_m_subgroup_collapsed>
0

$$$$
226612
                    3D
 Schrodinger Suite 2021-1.
 39 43  0  0  1  0            999 V2000
    1.3585   24.0133   10.9858 C   0  0  0  0  0  0
    0.9919   22.8715   11.6958 C   0  0  0  0  0  0
    0.0871   22.9531   12.7561 C   0  0  0  0  0  0
   -0.4687   24.2032   13.0861 C   0  0  0  0  0  0
   -0.1021   25.3308   12.3493 C   0  0  0  0  0  0
    0.8342   25.2717   11.3152 C   0  0  0  0  0  0
    1.0695   26.4342   10.5764 N   0  0  0  0  0  0
    2.2301   26.7655   10.1885 C   0  0  0  0  0  0
    2.4764   27.9401    9.3542 C   0  0  0  0  0  0
    1.6373   29.0802    8.9927 C   0  0  0  0  0  0
    2.3033   29.8502    7.9956 C   0  0  0  0  0  0
    1.7236   30.9634    7.3753 C   0  0  0  0  0  0
    0.4590   31.3842    7.7988 C   0  0  0  0  0  0
   -0.2305   30.6928    8.8021 C   0  0  0  0  0  0
    0.3472   29.5457    9.4036 C   0  0  0  0  0  0
   -0.7418   28.9704   10.6691 S   0  0  0  0  0  0
   -1.8202   30.2777   10.2591 C   0  0  0  0  0  0
   -1.4431   31.0676    9.2965 N   0  0  0  0  0  0
    3.5387   29.2696    7.8308 N   0  0  0  0  0  0
    3.6447   28.1670    8.6385 C   0  0  0  0  0  0
    4.8163   27.4568    8.5761 O   0  0  0  0  0  0
   -1.5076   24.1933   14.1898 C   0  0  0  0  0  0
   -1.3178   22.5345   15.0105 S   0  0  0  0  0  0
   -0.4053   22.6523   16.1557 O   0  0  0  0  0  0
   -2.6419   21.9308   15.1835 O   0  0  0  0  0  0
   -0.4414   21.7727   13.5548 C   0  0  0  0  0  0
    4.2857   29.5655    7.2183 H   0  0  0  0  0  0
    2.0317   23.9203   10.1464 H   0  0  0  0  0  0
    1.4009   21.9168   11.4006 H   0  0  0  0  0  0
   -0.5524   26.2856   12.5788 H   0  0  0  0  0  0
    3.1244   26.1924   10.4155 H   0  0  0  0  0  0
    2.2571   31.5157    6.6144 H   0  0  0  0  0  0
    0.0384   32.2827    7.3762 H   0  0  0  0  0  0
   -2.7408   30.4182   10.8084 H   0  0  0  0  0  0
    4.9708   26.9777    9.4070 H   0  0  0  0  0  0
   -2.5210   24.2783   13.7982 H   0  0  0  0  0  0
   -1.3334   24.9762   14.9262 H   0  0  0  0  0  0
    0.3540   21.1293   13.9310 H   0  0  0  0  0  0
   -1.1520   21.1641   12.9932 H   0  0  0  0  0  0
  1  6  1  0  0  0
  1  2  2  0  0  0
  1 28  1  0  0  0
  2  3  1  0  0  0
  2 29  1  0  0  0
  3 26  1  0  0  0
  3  4  2  0  0  0
  4  5  1  0  0  0
  4 22  1  0  0  0
  5  6  2  0  0  0
  5 30  1  0  0  0
  6  7  1  0  0  0
  7  8  2  0  0  0
  8  9  1  0  0  0
  8 31  1  0  0  0
  9 20  2  0  0  0
  9 10  1  0  0  0
 10 15  2  0  0  0
 10 11  1  0  0  0
 11 12  2  0  0  0
 11 19  1  0  0  0
 12 13  1  0  0  0
 12 32  1  0  0  0
 13 14  2  0  0  0
 13 33  1  0  0  0
 14 18  1  0  0  0
 14 15  1  0  0  0
 15 16  1  0  0  0
 16 17  1  0  0  0
 17 18  2  0  0  0
 17 34  1  0  0  0
 19 27  1  0  0  0
 19 20  1  0  0  0
 20 21  1  0  0  0
 21 35  1  0  0  0
 22 23  1  0  0  0
 22 36  1  0  0  0
 22 37  1  0  0  0
 23 24  2  0  0  0
 23 25  2  0  0  0
 23 26  1  0  0  0
 26 38  1  0  0  0
 26 39  1  0  0  0
M  END
> <s_m_entry_id>
34917

> <s_m_entry_name>
ligand_docking-pose.414

> <s_m_Source_Path>
/home/csk/Desktop/cluster/DUD-E-result/cdk2

> <s_m_Source_File>
ligand_docking-pose.sdf

> <i_m_Source_File_Index>
414

> <i_lp_mmshare_version>
53161

> <r_lp_tautomer_probability>
1

> <s_lp_Force_Field>
OPLS_2005

> <r_lp_Energy>
48.233723

> <b_lp_Chiralities_Consistent>
1

> <s_lp_Variant>
226612-1

> <s_i_glide_gridfile>
glide-grid_1h00

> <i_i_glide_lignum>
36

> <i_i_glide_rotatable_bonds>
3

> <r_i_docking_score>
-7.0454039539888

> <r_i_glide_ligand_efficiency>
-0.270977075153416

> <r_i_glide_ligand_efficiency_sa>
-0.80276851889869

> <r_i_glide_ligand_efficiency_ln>
-1.65459000073832

> <r_i_glide_gscore>
-7.0454039539888

> <r_i_glide_lipo>
-2.59961081454464

> <r_i_glide_hbond>
-0.228739343154482

> <r_i_glide_metal>
0

> <r_i_glide_rewards>
-1.0948628389364

> <r_i_glide_evdw>
-43.2780227661133

> <r_i_glide_ecoul>
-7.59175443649292

> <r_i_glide_erotb>
0.264328294225768

> <r_i_glide_esite>
-0.0838549477994557

> <r_i_glide_emodel>
-69.6214778233077

> <r_i_glide_energy>
-50.8697772026062

> <r_i_glide_einternal>
4.21852827072144

> <i_i_glide_confnum>
12

> <i_i_glide_posenum>
331

> <r_i_glide_eff_state_penalty>
0

> <i_f3d_flags>
0

> <s_user_duplicate_titles>
226612

> <s_m_subgroup_title>
dock_pv

> <s_m_subgroupid>
dock_pv1

> <b_m_subgroup_collapsed>
0

$$$$
625512
                    3D
 Schrodinger Suite 2021-1.
 42 45  0  0  1  0            999 V2000
    2.3562   25.6233   10.0867 C   0  0  0  0  0  0
    1.3674   26.4388   10.7741 N   0  0  0  0  0  0
    0.9634   27.7194   10.4809 C   0  0  0  0  0  0
   -0.0185   28.0097   11.4155 C   0  0  0  0  0  0
   -0.1712   26.8276   12.1773 C   0  0  0  0  0  0
    0.6690   25.8956   11.7784 N   0  0  0  0  0  0
   -1.0766   26.6460   13.2745 C   0  0  0  0  0  0
   -0.7166   26.2517   14.3836 O   0  0  0  0  0  0
   -2.3417   26.9450   12.9876 N   0  0  0  0  0  0
   -0.6759   29.3914   11.4139 C   0  0  0  0  0  0
   -0.7808   29.9070    9.9486 C   0  0  0  0  0  0
    0.5270   29.7505    9.1624 C   0  0  0  0  0  0
    1.3944   28.6755    9.4265 C   0  0  0  0  0  0
    2.5482   28.4733    8.7429 N   0  0  0  0  0  0
    2.8258   29.3422    7.7372 C   0  0  0  0  0  0
    2.0601   30.4136    7.4018 N   0  0  0  0  0  0
    0.9261   30.6059    8.1281 C   0  0  0  0  0  0
    3.8793   29.0520    6.8647 N   0  0  0  0  0  0
    4.6386   27.8872    6.6961 C   0  0  0  0  0  0
    4.8575   27.4391    5.3966 C   0  0  0  0  0  0
    5.5808   26.2718    5.1717 C   0  0  0  0  0  0
    6.1036   25.5417    6.2481 C   0  0  0  0  0  0
    5.9039   26.0183    7.5523 C   0  0  0  0  0  0
    5.1769   27.1855    7.7741 C   0  0  0  0  0  0
    6.8543   24.2859    6.0078 N   0  3  0  0  0  0
    7.2046   23.6193    6.9757 O   0  5  0  0  0  0
    7.0868   23.9520    4.8483 O   0  0  0  0  0  0
    3.2580   26.2128    9.9395 H   0  0  0  0  0  0
    2.6125   24.7419   10.6764 H   0  0  0  0  0  0
    1.9683   25.3105    9.1170 H   0  0  0  0  0  0
   -3.0205   26.9937   13.7355 H   0  0  0  0  0  0
   -2.5896   27.2682   12.0662 H   0  0  0  0  0  0
   -1.6691   29.3661   11.8630 H   0  0  0  0  0  0
   -0.0929   30.0912   12.0141 H   0  0  0  0  0  0
   -1.1086   30.9471    9.9453 H   0  0  0  0  0  0
   -1.5592   29.3459    9.4310 H   0  0  0  0  0  0
    0.3215   31.4550    7.8491 H   0  0  0  0  0  0
    4.0563   29.7809    6.1829 H   0  0  0  0  0  0
    4.4548   27.9837    4.5557 H   0  0  0  0  0  0
    5.7254   25.9381    4.1537 H   0  0  0  0  0  0
    6.3057   25.4859    8.4034 H   0  0  0  0  0  0
    5.0332   27.5410    8.7839 H   0  0  0  0  0  0
  1  2  1  0  0  0
  1 28  1  0  0  0
  1 29  1  0  0  0
  1 30  1  0  0  0
  2  6  1  0  0  0
  2  3  1  0  0  0
  3 13  1  0  0  0
  3  4  2  0  0  0
  4  5  1  0  0  0
  4 10  1  0  0  0
  5  6  2  0  0  0
  5  7  1  0  0  0
  7  8  2  0  0  0
  7  9  1  0  0  0
  9 31  1  0  0  0
  9 32  1  0  0  0
 10 11  1  0  0  0
 10 33  1  0  0  0
 10 34  1  0  0  0
 11 12  1  0  0  0
 11 35  1  0  0  0
 11 36  1  0  0  0
 12 17  2  0  0  0
 12 13  1  0  0  0
 13 14  2  0  0  0
 14 15  1  0  0  0
 15 16  2  0  0  0
 15 18  1  0  0  0
 16 17  1  0  0  0
 17 37  1  0  0  0
 18 19  1  0  0  0
 18 38  1  0  0  0
 19 24  1  0  0  0
 19 20  2  0  0  0
 20 21  1  0  0  0
 20 39  1  0  0  0
 21 22  2  0  0  0
 21 40  1  0  0  0
 22 23  1  0  0  0
 22 25  1  0  0  0
 23 24  2  0  0  0
 23 41  1  0  0  0
 24 42  1  0  0  0
 25 26  1  0  0  0
 25 27  2  0  0  0
M  CHG  2  25   1  26  -1
M  END
> <s_m_entry_id>
34918

> <s_m_entry_name>
ligand_docking-pose.415

> <s_m_Source_Path>
/home/csk/Desktop/cluster/DUD-E-result/cdk2

> <s_m_Source_File>
ligand_docking-pose.sdf

> <i_m_Source_File_Index>
415

> <i_lp_mmshare_version>
53161

> <r_lp_tautomer_probability>
0.999999987636

> <s_lp_Force_Field>
OPLS_2005

> <r_lp_Energy>
14.966799

> <b_lp_Chiralities_Consistent>
1

> <s_lp_Variant>
625512-1

> <s_i_glide_gridfile>
glide-grid_1h00

> <i_i_glide_lignum>
1426

> <i_i_glide_rotatable_bonds>
4

> <r_i_docking_score>
-7.04390391423735

> <r_i_glide_ligand_efficiency>
-0.260885330156939

> <r_i_glide_ligand_efficiency_sa>
-0.782655989610982

> <r_i_glide_ligand_efficiency_ln>
-1.63970470340255

> <r_i_glide_gscore>
-7.04390391423735

> <r_i_glide_lipo>
-2.111756301102

> <r_i_glide_hbond>
-0.285942697104695

> <r_i_glide_metal>
0

> <r_i_glide_rewards>
-2.07813829568139

> <r_i_glide_evdw>
-39.4316253662109

> <r_i_glide_ecoul>
-5.46392631530762

> <r_i_glide_erotb>
0.288214300613065

> <r_i_glide_esite>
-0.0651107053556422

> <r_i_glide_emodel>
-64.0241696579712

> <r_i_glide_energy>
-44.8955516815186

> <r_i_glide_einternal>
2.67252230644226

> <i_i_glide_confnum>
12

> <i_i_glide_posenum>
258

> <r_i_glide_eff_state_penalty>
0

> <i_f3d_flags>
0

> <s_user_duplicate_titles>
625512

> <s_m_subgroup_title>
dock_pv

> <s_m_subgroupid>
dock_pv1

> <b_m_subgroup_collapsed>
0

$$$$
114400
                    3D
 Schrodinger Suite 2021-1.
 38 41  0  0  1  0            999 V2000
   -1.8102   29.3475   11.4285 C   0  0  0  0  0  0
   -0.8530   28.1943   11.2599 C   0  0  0  0  0  0
    0.2520   28.0745   10.3960 C   0  0  0  0  0  0
    0.7710   26.8152   10.6813 N   0  0  0  0  0  0
    1.8224   26.0827   10.1773 C   0  0  0  0  0  0
    2.0569   24.7922   10.6412 C   0  0  0  0  0  0
    1.2410   24.2442   11.6252 C   0  0  0  0  0  0
    0.1754   24.9722   12.1547 C   0  0  0  0  0  0
   -0.0692   26.2717   11.6726 C   0  0  0  0  0  0
   -1.0484   27.1337   12.0122 N   0  0  0  0  0  0
    0.7807   29.0513    9.3776 C   0  0  0  0  0  0
   -0.0198   30.0714    8.8431 C   0  0  0  0  0  0
    0.5393   30.8817    7.8548 C   0  0  0  0  0  0
    1.7966   30.6950    7.3880 N   0  0  0  0  0  0
    2.5015   29.6833    7.9520 C   0  0  0  0  0  0
    2.0592   28.8702    8.9486 N   0  0  0  0  0  0
    3.7476   29.4518    7.3759 N   0  0  0  0  0  0
    4.3559   28.2290    7.0936 C   0  0  0  0  0  0
    4.4756   27.8487    5.7560 C   0  0  0  0  0  0
    5.0836   26.6395    5.4289 C   0  0  0  0  0  0
    5.5764   25.8211    6.4437 C   0  0  0  0  0  0
    5.4656   26.2059    7.7770 C   0  0  0  0  0  0
    4.8545   27.4133    8.1072 C   0  0  0  0  0  0
    6.3318   24.3203    6.0522 Cl  0  0  0  0  0  0
   -1.3005   30.3100   11.4070 H   0  0  0  0  0  0
   -2.5769   29.3537   10.6546 H   0  0  0  0  0  0
   -2.3371   29.3060   12.3812 H   0  0  0  0  0  0
    2.4299   26.5222    9.4043 H   0  0  0  0  0  0
    2.8710   24.2203   10.2217 H   0  0  0  0  0  0
    1.4289   23.2396   11.9769 H   0  0  0  0  0  0
   -0.4634   24.5436   12.9120 H   0  0  0  0  0  0
   -1.0416   30.2273    9.1433 H   0  0  0  0  0  0
   -0.0209   31.6899    7.4100 H   0  0  0  0  0  0
    4.0419   30.1984    6.7510 H   0  0  0  0  0  0
    4.0985   28.4872    4.9706 H   0  0  0  0  0  0
    5.1755   26.3407    4.3945 H   0  0  0  0  0  0
    5.8508   25.5723    8.5626 H   0  0  0  0  0  0
    4.7706   27.7098    9.1428 H   0  0  0  0  0  0
  1  2  1  0  0  0
  1 25  1  0  0  0
  1 26  1  0  0  0
  1 27  1  0  0  0
  2 10  1  0  0  0
  2  3  2  0  0  0
  3  4  1  0  0  0
  3 11  1  0  0  0
  4  9  1  0  0  0
  4  5  1  0  0  0
  5  6  2  0  0  0
  5 28  1  0  0  0
  6  7  1  0  0  0
  6 29  1  0  0  0
  7  8  2  0  0  0
  7 30  1  0  0  0
  8  9  1  0  0  0
  8 31  1  0  0  0
  9 10  2  0  0  0
 11 16  1  0  0  0
 11 12  2  0  0  0
 12 13  1  0  0  0
 12 32  1  0  0  0
 13 14  2  0  0  0
 13 33  1  0  0  0
 14 15  1  0  0  0
 15 16  2  0  0  0
 15 17  1  0  0  0
 17 18  1  0  0  0
 17 34  1  0  0  0
 18 23  1  0  0  0
 18 19  2  0  0  0
 19 20  1  0  0  0
 19 35  1  0  0  0
 20 21  2  0  0  0
 20 36  1  0  0  0
 21 22  1  0  0  0
 21 24  1  0  0  0
 22 23  2  0  0  0
 22 37  1  0  0  0
 23 38  1  0  0  0
M  END
> <s_m_entry_id>
34922

> <s_m_entry_name>
ligand_docking-pose.419

> <s_m_Source_Path>
/home/csk/Desktop/cluster/DUD-E-result/cdk2

> <s_m_Source_File>
ligand_docking-pose.sdf

> <i_m_Source_File_Index>
419

> <i_lp_mmshare_version>
53161

> <r_lp_tautomer_probability>
0.999999987636

> <s_lp_Force_Field>
OPLS_2005

> <r_lp_Energy>
10.20153

> <b_lp_Chiralities_Consistent>
1

> <s_lp_Variant>
114400-1

> <s_i_glide_gridfile>
glide-grid_1h00

> <i_i_glide_lignum>
791

> <i_i_glide_rotatable_bonds>
3

> <r_i_docking_score>
-7.03417222966905

> <r_i_glide_ligand_efficiency>
-0.293090509569544

> <r_i_glide_ligand_efficiency_sa>
-0.845419322080111

> <r_i_glide_ligand_efficiency_ln>
-1.68360019169098

> <r_i_glide_gscore>
-7.03417222966905

> <r_i_glide_lipo>
-2.22439460964246

> <r_i_glide_hbond>
-0.32

> <r_i_glide_metal>
0

> <r_i_glide_rewards>
-2.58136396249123

> <r_i_glide_evdw>
-38.1637802124023

> <r_i_glide_ecoul>
-3.35000419616699

> <r_i_glide_erotb>
0.502275982509808

> <r_i_glide_esite>
0

> <r_i_glide_emodel>
-57.3780854888869

> <r_i_glide_energy>
-41.5137844085693

> <r_i_glide_einternal>
3.03929781913757

> <i_i_glide_confnum>
14

> <i_i_glide_posenum>
342

> <r_i_glide_eff_state_penalty>
0

> <i_f3d_flags>
0

> <s_user_duplicate_titles>
114400

> <s_m_subgroup_title>
dock_pv

> <s_m_subgroupid>
dock_pv1

> <b_m_subgroup_collapsed>
0

$$$$
226522
                    3D
 Schrodinger Suite 2021-1.
 50 52  0  0  1  0            999 V2000
    3.9315   27.3513    8.1957 C   0  0  0  0  0  0
    3.9075   28.2604    6.9467 C   0  0  0  0  0  0
    5.2609   28.2726    6.2763 C   0  0  0  0  0  0
    3.4311   29.6950    7.2179 C   0  0  0  0  0  0
    2.2435   29.6684    7.9599 O   0  0  0  0  0  0
    1.2346   30.5437    7.7964 C   0  0  0  0  0  0
    1.2614   31.5221    7.0451 O   0  0  0  0  0  0
    0.1157   30.2052    8.7294 C   0  0  0  0  0  0
   -0.9065   31.1267    8.9755 C   0  0  0  0  0  0
   -1.9512   30.8512    9.8569 C   0  0  0  0  0  0
   -1.9388   29.5983   10.4775 C   0  0  0  0  0  0
   -0.9227   28.6278   10.2596 C   0  0  0  0  0  0
    0.1005   28.9570    9.3762 C   0  0  0  0  0  0
   -1.2051   27.4587   11.0554 C   0  0  0  0  0  0
   -2.3893   27.7658   11.7009 C   0  0  0  0  0  0
   -2.7965   29.0341   11.3761 N   0  0  0  0  0  0
   -3.1661   27.0520   12.5760 O   0  0  0  0  0  0
   -0.4008   26.2477   11.1615 C   0  0  0  0  0  0
   -0.9038   25.1723   11.6153 N   0  0  0  0  0  0
   -0.1247   24.0387   11.8582 C   0  0  0  0  0  0
   -0.4340   23.2956   12.9993 C   0  0  0  0  0  0
    0.2698   22.1413   13.3199 C   0  0  0  0  0  0
    1.2860   21.6989   12.4767 C   0  0  0  0  0  0
    1.5647   22.3843   11.2923 C   0  0  0  0  0  0
    0.8586   23.5451   10.9831 C   0  0  0  0  0  0
    2.2327   20.2569   12.9450 S   0  0  0  0  0  0
    3.4531   20.2576   12.1305 O   0  0  0  0  0  0
    2.3047   20.2506   14.4107 O   0  0  0  0  0  0
    1.2580   18.8976   12.4481 N   0  0  0  0  0  0
   -3.5493   29.5098   11.8634 H   0  0  0  0  0  0
    4.5873   27.7530    8.9697 H   0  0  0  0  0  0
    4.2876   26.3497    7.9524 H   0  0  0  0  0  0
    2.9405   27.2369    8.6333 H   0  0  0  0  0  0
    3.2580   27.8520    6.1853 H   0  0  0  0  0  0
    6.0142   28.6407    6.9758 H   0  0  0  0  0  0
    5.5663   27.2758    5.9562 H   0  0  0  0  0  0
    5.2579   28.9148    5.3938 H   0  0  0  0  0  0
    4.1833   30.2520    7.7765 H   0  0  0  0  0  0
    3.2579   30.1918    6.2627 H   0  0  0  0  0  0
   -0.8895   32.0900    8.4824 H   0  0  0  0  0  0
   -2.7297   31.5767   10.0472 H   0  0  0  0  0  0
    0.8762   28.2258    9.2080 H   0  0  0  0  0  0
   -3.4038   27.6335   13.3169 H   0  0  0  0  0  0
    0.6380   26.3698   10.8633 H   0  0  0  0  0  0
   -1.2202   23.6356   13.6579 H   0  0  0  0  0  0
    0.0301   21.6005   14.2245 H   0  0  0  0  0  0
    2.3237   22.0268   10.6121 H   0  0  0  0  0  0
    1.0814   24.0675   10.0636 H   0  0  0  0  0  0
    0.3610   18.7746   12.9348 H   0  0  0  0  0  0
    1.1542   18.7910   11.4376 H   0  0  0  0  0  0
  1  2  1  0  0  0
  1 31  1  0  0  0
  1 32  1  0  0  0
  1 33  1  0  0  0
  2  3  1  0  0  0
  2  4  1  0  0  0
  2 34  1  0  0  0
  3 35  1  0  0  0
  3 36  1  0  0  0
  3 37  1  0  0  0
  4  5  1  0  0  0
  4 38  1  0  0  0
  4 39  1  0  0  0
  5  6  1  0  0  0
  6  7  2  0  0  0
  6  8  1  0  0  0
  8 13  1  0  0  0
  8  9  2  0  0  0
  9 10  1  0  0  0
  9 40  1  0  0  0
 10 11  2  0  0  0
 10 41  1  0  0  0
 11 16  1  0  0  0
 11 12  1  0  0  0
 12 13  2  0  0  0
 12 14  1  0  0  0
 13 42  1  0  0  0
 14 15  2  0  0  0
 14 18  1  0  0  0
 15 16  1  0  0  0
 15 17  1  0  0  0
 16 30  1  0  0  0
 17 43  1  0  0  0
 18 19  2  0  0  0
 18 44  1  0  0  0
 19 20  1  0  0  0
 20 25  1  0  0  0
 20 21  2  0  0  0
 21 22  1  0  0  0
 21 45  1  0  0  0
 22 23  2  0  0  0
 22 46  1  0  0  0
 23 24  1  0  0  0
 23 26  1  0  0  0
 24 25  2  0  0  0
 24 47  1  0  0  0
 25 48  1  0  0  0
 26 27  2  0  0  0
 26 28  2  0  0  0
 26 29  1  0  0  0
 29 49  1  0  0  0
 29 50  1  0  0  0
M  END
> <s_m_entry_id>
34923

> <s_m_entry_name>
ligand_docking-pose.420

> <s_m_Source_Path>
/home/csk/Desktop/cluster/DUD-E-result/cdk2

> <s_m_Source_File>
ligand_docking-pose.sdf

> <i_m_Source_File_Index>
420

> <i_lp_mmshare_version>
53161

> <r_lp_tautomer_probability>
1

> <s_lp_Force_Field>
OPLS_2005

> <r_lp_Energy>
26.264503

> <b_lp_Chiralities_Consistent>
1

> <s_lp_Variant>
226522-1

> <s_i_glide_gridfile>
glide-grid_1h00

> <i_i_glide_lignum>
1226

> <i_i_glide_rotatable_bonds>
8

> <r_i_docking_score>
-7.03287745852306

> <r_i_glide_ligand_efficiency>
-0.24251301581114

> <r_i_glide_ligand_efficiency_sa>
-0.745076818088086

> <r_i_glide_ligand_efficiency_ln>
-1.61035059961689

> <r_i_glide_gscore>
-7.03287745852306

> <r_i_glide_lipo>
-1.92573382183373

> <r_i_glide_hbond>
-0.330995262417705

> <r_i_glide_metal>
0

> <r_i_glide_rewards>
-1.42966890023358

> <r_i_glide_evdw>
-35.6838836669922

> <r_i_glide_ecoul>
-12.3928728103638

> <r_i_glide_erotb>
0.572011359021197

> <r_i_glide_esite>
-0.275365728155067

> <r_i_glide_emodel>
-64.0003521806812

> <r_i_glide_energy>
-48.076756477356

> <r_i_glide_einternal>
7.78462076187134

> <i_i_glide_confnum>
23

> <i_i_glide_posenum>
148

> <r_i_glide_eff_state_penalty>
0

> <i_f3d_flags>
0

> <s_user_duplicate_titles>
226522

> <s_m_subgroup_title>
dock_pv

> <s_m_subgroupid>
dock_pv1

> <b_m_subgroup_collapsed>
0

$$$$
317174
                    3D
 Schrodinger Suite 2021-1.
 55 58  0  0  1  0            999 V2000
   -2.4356   32.2777   10.1671 C   0  0  0  0  0  0
   -2.1160   31.3701    8.9749 C   0  0  0  0  0  0
   -1.2109   30.2235    9.3762 C   0  0  0  0  0  0
    0.1381   29.9217    9.0008 C   0  0  0  0  0  0
    0.4757   28.7543    9.7373 C   0  0  0  0  0  0
    1.6668   28.1347    9.7124 N   0  0  0  0  0  0
    2.5600   28.7335    8.8741 C   0  0  0  0  0  0
    2.3559   29.8521    8.1359 N   0  0  0  0  0  0
    1.1456   30.4543    8.1758 C   0  0  0  0  0  0
    0.8580   31.5930    7.4791 O   0  0  0  0  0  0
    3.9671   28.1403    8.7878 C   0  0  0  0  0  0
    4.4579   27.6021    7.4346 C   0  0  0  0  0  0
    4.1807   28.2517    6.2220 C   0  0  0  0  0  0
    4.6538   27.7383    5.0163 C   0  0  0  0  0  0
    5.4448   26.5915    5.0065 C   0  0  0  0  0  0
    5.7650   25.9559    6.2075 C   0  0  0  0  0  0
    5.2470   26.4455    7.4114 C   0  0  0  0  0  0
    6.7032   24.7560    6.2040 C   0  0  0  0  0  0
    8.1419   25.2327    6.4360 C   0  0  0  0  0  0
    8.4565   25.8513    7.4552 O   0  0  0  0  0  0
    8.9716   24.9060    5.4188 O   0  0  0  0  0  0
   10.3395   25.3142    5.4224 C   0  0  0  0  0  0
   10.5005   26.7738    4.9747 C   0  0  0  0  0  0
   -0.6585   28.4421   10.4688 N   0  0  0  0  0  0
   -1.6498   29.3230   10.2200 N   0  0  0  0  0  0
   -0.8619   27.4331   11.4292 C   0  0  0  0  0  0
   -1.0744   26.1017   11.0391 C   0  0  0  0  0  0
   -1.2780   25.1212   12.0126 C   0  0  0  0  0  0
   -1.3056   25.4616   13.3628 C   0  0  0  0  0  0
   -1.1400   26.7883   13.7469 C   0  0  0  0  0  0
   -0.9232   27.7800   12.7902 C   0  0  0  0  0  0
   -0.7426   29.4234   13.3149 Cl  0  0  0  0  0  0
   -1.5601   24.2436   14.5594 Cl  0  0  0  0  0  0
   -1.1409   25.6325    9.3761 Cl  0  0  0  0  0  0
   -3.1420   33.0551    9.8919 H   0  0  0  0  0  0
   -2.8917   31.7124   10.9766 H   0  0  0  0  0  0
   -1.5374   32.7539   10.5618 H   0  0  0  0  0  0
   -1.6878   31.9713    8.1764 H   0  0  0  0  0  0
   -3.0509   30.9809    8.5694 H   0  0  0  0  0  0
    0.0006   31.9492    7.7091 H   0  0  0  0  0  0
    4.0577   27.3590    9.5447 H   0  0  0  0  0  0
    4.6776   28.9159    9.0768 H   0  0  0  0  0  0
    3.6118   29.1675    6.1798 H   0  0  0  0  0  0
    4.4315   28.2481    4.0918 H   0  0  0  0  0  0
    5.8338   26.2183    4.0699 H   0  0  0  0  0  0
    5.4967   25.9481    8.3404 H   0  0  0  0  0  0
    6.6276   24.2262    5.2534 H   0  0  0  0  0  0
    6.4278   24.0546    6.9908 H   0  0  0  0  0  0
   10.8829   24.6691    4.7313 H   0  0  0  0  0  0
   10.7888   25.1624    6.4071 H   0  0  0  0  0  0
   11.5528   27.0534    4.9582 H   0  0  0  0  0  0
    9.9924   27.4526    5.6566 H   0  0  0  0  0  0
   10.0942   26.9312    3.9760 H   0  0  0  0  0  0
   -1.4404   24.0971   11.7139 H   0  0  0  0  0  0
   -1.1874   27.0519   14.7934 H   0  0  0  0  0  0
  1  2  1  0  0  0
  1 35  1  0  0  0
  1 36  1  0  0  0
  1 37  1  0  0  0
  2  3  1  0  0  0
  2 38  1  0  0  0
  2 39  1  0  0  0
  3 25  2  0  0  0
  3  4  1  0  0  0
  4  9  2  0  0  0
  4  5  1  0  0  0
  5  6  2  0  0  0
  5 24  1  0  0  0
  6  7  1  0  0  0
  7  8  2  0  0  0
  7 11  1  0  0  0
  8  9  1  0  0  0
  9 10  1  0  0  0
 10 40  1  0  0  0
 11 12  1  0  0  0
 11 41  1  0  0  0
 11 42  1  0  0  0
 12 17  1  0  0  0
 12 13  2  0  0  0
 13 14  1  0  0  0
 13 43  1  0  0  0
 14 15  2  0  0  0
 14 44  1  0  0  0
 15 16  1  0  0  0
 15 45  1  0  0  0
 16 17  2  0  0  0
 16 18  1  0  0  0
 17 46  1  0  0  0
 18 19  1  0  0  0
 18 47  1  0  0  0
 18 48  1  0  0  0
 19 20  2  0  0  0
 19 21  1  0  0  0
 21 22  1  0  0  0
 22 23  1  0  0  0
 22 49  1  0  0  0
 22 50  1  0  0  0
 23 51  1  0  0  0
 23 52  1  0  0  0
 23 53  1  0  0  0
 24 25  1  0  0  0
 24 26  1  0  0  0
 26 31  1  0  0  0
 26 27  2  0  0  0
 27 28  1  0  0  0
 27 34  1  0  0  0
 28 29  2  0  0  0
 28 54  1  0  0  0
 29 30  1  0  0  0
 29 33  1  0  0  0
 30 31  2  0  0  0
 30 55  1  0  0  0
 31 32  1  0  0  0
M  END
> <s_m_entry_id>
34924

> <s_m_entry_name>
ligand_docking-pose.421

> <s_m_Source_Path>
/home/csk/Desktop/cluster/DUD-E-result/cdk2

> <s_m_Source_File>
ligand_docking-pose.sdf

> <i_m_Source_File_Index>
421

> <i_lp_mmshare_version>
53161

> <r_lp_tautomer_probability>
1

> <s_lp_Force_Field>
OPLS_2005

> <r_lp_Energy>
6.325058

> <b_lp_Chiralities_Consistent>
1

> <s_lp_Variant>
317174-1

> <s_i_glide_gridfile>
glide-grid_1h00

> <i_i_glide_lignum>
928

> <i_i_glide_rotatable_bonds>
9

> <r_i_docking_score>
-7.03281179032823

> <r_i_glide_ligand_efficiency>
-0.206847405597889

> <r_i_glide_ligand_efficiency_sa>
-0.670105295450874

> <r_i_glide_ligand_efficiency_ln>
-1.55374538817246

> <r_i_glide_gscore>
-7.03281179032823

> <r_i_glide_lipo>
-3.38792157647996

> <r_i_glide_hbond>
0

> <r_i_glide_metal>
0

> <r_i_glide_rewards>
-1.16284064351625

> <r_i_glide_evdw>
-54.6769180297852

> <r_i_glide_ecoul>
-1.36313939094543

> <r_i_glide_erotb>
0.456267239799056

> <r_i_glide_esite>
0

> <r_i_glide_emodel>
-76.1463828786406

> <r_i_glide_energy>
-56.0400574207306

> <r_i_glide_einternal>
6.01774549484253

> <i_i_glide_confnum>
18

> <i_i_glide_posenum>
383

> <r_i_glide_eff_state_penalty>
0

> <i_f3d_flags>
0

> <s_user_duplicate_titles>
317174

> <s_m_subgroup_title>
dock_pv

> <s_m_subgroupid>
dock_pv1

> <b_m_subgroup_collapsed>
0

$$$$
301242
                    3D
 Schrodinger Suite 2021-1.
 40 43  0  0  1  0            999 V2000
    6.3292   25.8150    5.1780 C   0  0  0  0  0  0
    6.5059   25.2215    6.9532 S   0  0  0  0  0  0
    7.6936   25.8519    7.5391 O   0  0  0  0  0  0
    6.3495   23.7625    6.9757 O   0  0  0  0  0  0
    5.0889   25.9326    7.7761 C   0  0  0  0  0  0
    5.0670   27.3067    8.0052 C   0  0  0  0  0  0
    4.0174   27.8746    8.7156 C   0  0  0  0  0  0
    2.9607   27.0828    9.1707 C   0  0  0  0  0  0
    3.0070   25.6923    8.9760 C   0  0  0  0  0  0
    4.0575   25.1219    8.2567 C   0  0  0  0  0  0
    1.8417   27.6837    9.7985 N   0  0  0  0  0  0
    1.1665   28.8482    9.4851 C   0  0  0  0  0  0
    0.1787   28.9942   10.4658 C   0  0  0  0  0  0
    0.2664   27.8109   11.2511 C   0  0  0  0  0  0
    1.2589   27.0551   10.8286 N   0  0  0  0  0  0
   -0.5439   27.4304   12.3968 C   0  0  0  0  0  0
   -0.3425   26.4034   13.0441 O   0  0  0  0  0  0
   -1.5420   28.2529   12.7110 N   0  0  0  0  0  0
   -0.7551   30.2199   10.5103 C   0  0  0  0  0  0
   -0.8647   31.0097    9.1682 C   0  0  0  0  0  0
    0.3715   30.8378    8.3104 C   0  0  0  0  0  0
    1.3303   29.8523    8.4287 C   0  0  0  0  0  0
    2.2211   30.1403    7.3762 C   0  0  0  0  0  0
    1.9540   31.2735    6.7700 N   0  0  0  0  0  0
    0.8581   31.7140    7.3795 N   0  0  0  0  0  0
    0.4147   32.5855    7.1267 H   0  0  0  0  0  0
    7.1607   25.4187    4.5971 H   0  0  0  0  0  0
    5.3848   25.4516    4.7775 H   0  0  0  0  0  0
    6.3569   26.9039    5.1661 H   0  0  0  0  0  0
    5.8685   27.9296    7.6452 H   0  0  0  0  0  0
    4.0360   28.9334    8.9164 H   0  0  0  0  0  0
    2.2103   25.0560    9.3350 H   0  0  0  0  0  0
    4.0715   24.0544    8.0938 H   0  0  0  0  0  0
   -1.6777   29.1063   12.1937 H   0  0  0  0  0  0
   -2.1739   28.0427   13.4724 H   0  0  0  0  0  0
   -0.4013   30.8882   11.2954 H   0  0  0  0  0  0
   -1.7684   29.9457   10.8011 H   0  0  0  0  0  0
   -1.0689   32.0635    9.3657 H   0  0  0  0  0  0
   -1.7306   30.6501    8.6106 H   0  0  0  0  0  0
    3.0726   29.5625    7.0558 H   0  0  0  0  0  0
  1  2  1  0  0  0
  1 27  1  0  0  0
  1 28  1  0  0  0
  1 29  1  0  0  0
  2  3  2  0  0  0
  2  4  2  0  0  0
  2  5  1  0  0  0
  5 10  1  0  0  0
  5  6  2  0  0  0
  6  7  1  0  0  0
  6 30  1  0  0  0
  7  8  2  0  0  0
  7 31  1  0  0  0
  8  9  1  0  0  0
  8 11  1  0  0  0
  9 10  2  0  0  0
  9 32  1  0  0  0
 10 33  1  0  0  0
 11 15  1  0  0  0
 11 12  1  0  0  0
 12 13  2  0  0  0
 12 22  1  0  0  0
 13 14  1  0  0  0
 13 19  1  0  0  0
 14 15  2  0  0  0
 14 16  1  0  0  0
 16 17  2  0  0  0
 16 18  1  0  0  0
 18 34  1  0  0  0
 18 35  1  0  0  0
 19 20  1  0  0  0
 19 36  1  0  0  0
 19 37  1  0  0  0
 20 38  1  0  0  0
 20 39  1  0  0  0
 20 21  1  0  0  0
 21 25  1  0  0  0
 21 22  2  0  0  0
 22 23  1  0  0  0
 23 40  1  0  0  0
 23 24  2  0  0  0
 24 25  1  0  0  0
 25 26  1  0  0  0
M  END
> <s_m_entry_id>
34926

> <s_m_entry_name>
ligand_docking-pose.423

> <s_m_Source_Path>
/home/csk/Desktop/cluster/DUD-E-result/cdk2

> <s_m_Source_File>
ligand_docking-pose.sdf

> <i_m_Source_File_Index>
423

> <i_lp_mmshare_version>
53161

> <r_lp_tautomer_probability>
0.5

> <s_lp_Force_Field>
OPLS_2005

> <r_lp_Energy>
22.179675

> <b_lp_Chiralities_Consistent>
1

> <s_lp_Variant>
301242-2

> <s_i_glide_gridfile>
glide-grid_1h00

> <i_i_glide_lignum>
1762

> <i_i_glide_rotatable_bonds>
3

> <r_i_docking_score>
-7.02626326114352

> <r_i_glide_ligand_efficiency>
-0.281050530445741

> <r_i_glide_ligand_efficiency_sa>
-0.821796735475727

> <r_i_glide_ligand_efficiency_ln>
-1.66543495300979

> <r_i_glide_gscore>
-7.02626326114352

> <r_i_glide_lipo>
-1.94167278839374

> <r_i_glide_hbond>
-0.107985404716503

> <r_i_glide_metal>
0

> <r_i_glide_rewards>
-2.42928016547811

> <r_i_glide_evdw>
-37.6851043701172

> <r_i_glide_ecoul>
-5.16664838790894

> <r_i_glide_erotb>
0.149879195034357

> <r_i_glide_esite>
-0.0379516208973153

> <r_i_glide_emodel>
-60.3607845439507

> <r_i_glide_energy>
-42.8517527580261

> <r_i_glide_einternal>
2.78167176246643

> <i_i_glide_confnum>
8

> <i_i_glide_posenum>
284

> <r_i_glide_eff_state_penalty>
0

> <i_f3d_flags>
0

> <s_user_duplicate_titles>
301242

> <s_m_subgroup_title>
dock_pv

> <s_m_subgroupid>
dock_pv1

> <b_m_subgroup_collapsed>
0

$$$$
301181
                    3D
 Schrodinger Suite 2021-1.
 34 37  0  0  1  0            999 V2000
   -0.3024   25.0849   11.9240 C   0  0  0  0  0  0
   -0.2791   26.1946   11.0783 C   0  0  0  0  0  0
   -0.6601   27.4528   11.5603 C   0  0  0  0  0  0
   -1.0811   27.5846   12.8918 C   0  0  0  0  0  0
   -1.0990   26.4741   13.7352 C   0  0  0  0  0  0
   -0.7101   25.2245   13.2514 C   0  0  0  0  0  0
   -1.6036   26.6508   15.3760 Cl  0  0  0  0  0  0
   -0.6489   28.5765   10.7059 N   0  0  0  0  0  0
    0.3221   29.0097    9.8309 C   0  0  0  0  0  0
   -0.1821   30.1572    9.2312 C   0  0  0  0  0  0
   -1.4652   30.3329    9.7989 C   0  0  0  0  0  0
   -1.7184   29.3815   10.6781 N   0  0  0  0  0  0
   -2.3828   31.4048    9.4685 C   0  0  0  0  0  0
   -2.1615   32.2183    8.5766 O   0  0  0  0  0  0
   -3.5123   31.4521   10.1760 N   0  0  0  0  0  0
    0.5935   30.9509    8.1759 C   0  0  0  0  0  0
    1.8835   30.2520    7.6321 C   0  0  0  0  0  0
    2.4196   29.1497    8.5417 C   0  0  0  0  0  0
    1.6582   28.5362    9.5519 C   0  0  0  0  0  0
    2.4992   27.5837   10.0972 C   0  0  0  0  0  0
    3.6577   27.6779    9.3760 N   0  0  0  0  0  0
    3.6257   28.6327    8.4421 N   0  0  0  0  0  0
    4.4881   27.1238    9.5625 H   0  0  0  0  0  0
   -0.0066   24.1164   11.5488 H   0  0  0  0  0  0
    0.0287   26.0719   10.0492 H   0  0  0  0  0  0
   -1.3962   28.5453   13.2777 H   0  0  0  0  0  0
   -0.7253   24.3630   13.9019 H   0  0  0  0  0  0
   -3.5699   30.9910   11.0809 H   0  0  0  0  0  0
   -4.1842   32.1707    9.9529 H   0  0  0  0  0  0
   -0.0673   31.1664    7.3443 H   0  0  0  0  0  0
    0.8498   31.9311    8.5742 H   0  0  0  0  0  0
    1.6634   29.8362    6.6530 H   0  0  0  0  0  0
    2.6542   31.0014    7.4461 H   0  0  0  0  0  0
    2.4033   26.8904   10.9204 H   0  0  0  0  0  0
  1  6  1  0  0  0
  1  2  2  0  0  0
  1 24  1  0  0  0
  2  3  1  0  0  0
  2 25  1  0  0  0
  3  4  2  0  0  0
  3  8  1  0  0  0
  4  5  1  0  0  0
  4 26  1  0  0  0
  5  6  2  0  0  0
  5  7  1  0  0  0
  6 27  1  0  0  0
  8 12  1  0  0  0
  8  9  1  0  0  0
  9 19  1  0  0  0
  9 10  2  0  0  0
 10 11  1  0  0  0
 10 16  1  0  0  0
 11 12  2  0  0  0
 11 13  1  0  0  0
 13 14  2  0  0  0
 13 15  1  0  0  0
 15 28  1  0  0  0
 15 29  1  0  0  0
 16 17  1  0  0  0
 16 30  1  0  0  0
 16 31  1  0  0  0
 17 18  1  0  0  0
 17 32  1  0  0  0
 17 33  1  0  0  0
 18 22  2  0  0  0
 18 19  1  0  0  0
 19 20  2  0  0  0
 20 21  1  0  0  0
 20 34  1  0  0  0
 21 23  1  0  0  0
 21 22  1  0  0  0
M  END
> <s_m_entry_id>
34930

> <s_m_entry_name>
ligand_docking-pose.427

> <s_m_Source_Path>
/home/csk/Desktop/cluster/DUD-E-result/cdk2

> <s_m_Source_File>
ligand_docking-pose.sdf

> <i_m_Source_File_Index>
427

> <i_lp_mmshare_version>
53161

> <r_lp_tautomer_probability>
0.5

> <s_lp_Force_Field>
OPLS_2005

> <r_lp_Energy>
21.897753

> <b_lp_Chiralities_Consistent>
1

> <s_lp_Variant>
301181-1

> <s_i_glide_gridfile>
glide-grid_1h00

> <i_i_glide_lignum>
298

> <i_i_glide_rotatable_bonds>
2

> <r_i_docking_score>
-7.02229093803399

> <r_i_glide_ligand_efficiency>
-0.319195042637909

> <r_i_glide_ligand_efficiency_sa>
-0.894397062700103

> <r_i_glide_ligand_efficiency_ln>
-1.71650404954107

> <r_i_glide_gscore>
-7.02229093803399

> <r_i_glide_lipo>
-2.29390510560094

> <r_i_glide_hbond>
-0.280015164743277

> <r_i_glide_metal>
0

> <r_i_glide_rewards>
-2.03495586688905

> <r_i_glide_evdw>
-36.1929016113281

> <r_i_glide_ecoul>
-5.00667858123779

> <r_i_glide_erotb>
0.188740596479625

> <r_i_glide_esite>
-0.0415085295282733

> <r_i_glide_emodel>
-59.3480708756045

> <r_i_glide_energy>
-41.1995801925659

> <r_i_glide_einternal>
0.177527040243149

> <i_i_glide_confnum>
3

> <i_i_glide_posenum>
238

> <r_i_glide_eff_state_penalty>
0

> <i_f3d_flags>
0

> <s_user_duplicate_titles>
301181

> <s_m_subgroup_title>
dock_pv

> <s_m_subgroupid>
dock_pv1

> <b_m_subgroup_collapsed>
0

$$$$
316153
                    3D
 Schrodinger Suite 2021-1.
 47 50  0  0  1  0            999 V2000
   -1.8387   32.5313   10.1423 C   0  0  0  0  0  0
   -1.6488   31.5440    8.9792 C   0  0  0  0  0  0
   -0.8937   30.2949    9.3933 C   0  0  0  0  0  0
    0.4166   29.8503    9.0225 C   0  0  0  0  0  0
    0.6415   28.6762    9.7844 C   0  0  0  0  0  0
    1.7745   27.9478    9.7761 N   0  0  0  0  0  0
    2.7297   28.4481    8.9393 C   0  0  0  0  0  0
    2.6198   29.5562    8.1643 N   0  0  0  0  0  0
    1.4609   30.2520    8.1736 C   0  0  0  0  0  0
    1.2579   31.3383    7.3761 O   0  0  0  0  0  0
    4.0534   27.6776    8.8069 C   0  0  0  0  0  0
    4.4479   27.2752    7.3818 C   0  0  0  0  0  0
    4.7017   28.2505    6.4153 C   0  0  0  0  0  0
    4.8596   27.8900    5.0813 C   0  0  0  0  0  0
    4.8177   26.5528    4.7003 C   0  0  0  0  0  0
    4.6231   25.5554    5.6654 C   0  0  0  0  0  0
    4.4579   25.9249    7.0067 C   0  0  0  0  0  0
    4.5482   24.0860    5.2730 C   0  0  0  0  0  0
    4.9650   26.2596    3.3703 O   0  0  0  0  0  0
   -0.5264   28.4817   10.5100 N   0  0  0  0  0  0
   -1.4281   29.4519   10.2403 N   0  0  0  0  0  0
   -0.8487   27.4859   11.4535 C   0  0  0  0  0  0
   -1.1115   26.1670   11.0439 C   0  0  0  0  0  0
   -1.4098   25.1931   11.9964 C   0  0  0  0  0  0
   -1.4929   25.5251   13.3464 C   0  0  0  0  0  0
   -1.2864   26.8414   13.7485 C   0  0  0  0  0  0
   -0.9682   27.8273   12.8130 C   0  0  0  0  0  0
   -0.7424   29.4518   13.3725 Cl  0  0  0  0  0  0
   -1.8763   24.3169   14.5173 Cl  0  0  0  0  0  0
   -1.1416   25.7115    9.3761 Cl  0  0  0  0  0  0
   -2.3434   33.4392    9.8111 H   0  0  0  0  0  0
   -2.4381   32.0945   10.9431 H   0  0  0  0  0  0
   -0.8800   32.8261   10.5711 H   0  0  0  0  0  0
   -1.1277   32.0592    8.1756 H   0  0  0  0  0  0
   -2.6238   31.2780    8.5685 H   0  0  0  0  0  0
    2.0303   31.4523    6.8198 H   0  0  0  0  0  0
    4.8534   28.2815    9.2355 H   0  0  0  0  0  0
    3.9958   26.7709    9.4019 H   0  0  0  0  0  0
    4.7306   29.2964    6.6829 H   0  0  0  0  0  0
    5.0311   28.6544    4.3411 H   0  0  0  0  0  0
    4.2660   25.1629    7.7484 H   0  0  0  0  0  0
    5.4989   23.7601    4.8498 H   0  0  0  0  0  0
    4.3057   23.4450    6.1219 H   0  0  0  0  0  0
    3.7800   23.9376    4.5124 H   0  0  0  0  0  0
    4.8128   25.3406    3.1323 H   0  0  0  0  0  0
   -1.6059   24.1793   11.6824 H   0  0  0  0  0  0
   -1.3855   27.1001   14.7901 H   0  0  0  0  0  0
  1  2  1  0  0  0
  1 31  1  0  0  0
  1 32  1  0  0  0
  1 33  1  0  0  0
  2  3  1  0  0  0
  2 34  1  0  0  0
  2 35  1  0  0  0
  3 21  2  0  0  0
  3  4  1  0  0  0
  4  9  2  0  0  0
  4  5  1  0  0  0
  5  6  2  0  0  0
  5 20  1  0  0  0
  6  7  1  0  0  0
  7  8  2  0  0  0
  7 11  1  0  0  0
  8  9  1  0  0  0
  9 10  1  0  0  0
 10 36  1  0  0  0
 11 12  1  0  0  0
 11 37  1  0  0  0
 11 38  1  0  0  0
 12 17  1  0  0  0
 12 13  2  0  0  0
 13 14  1  0  0  0
 13 39  1  0  0  0
 14 15  2  0  0  0
 14 40  1  0  0  0
 15 16  1  0  0  0
 15 19  1  0  0  0
 16 17  2  0  0  0
 16 18  1  0  0  0
 17 41  1  0  0  0
 18 42  1  0  0  0
 18 43  1  0  0  0
 18 44  1  0  0  0
 19 45  1  0  0  0
 20 21  1  0  0  0
 20 22  1  0  0  0
 22 27  1  0  0  0
 22 23  2  0  0  0
 23 24  1  0  0  0
 23 30  1  0  0  0
 24 25  2  0  0  0
 24 46  1  0  0  0
 25 26  1  0  0  0
 25 29  1  0  0  0
 26 27  2  0  0  0
 26 47  1  0  0  0
 27 28  1  0  0  0
M  END
> <s_m_entry_id>
34932

> <s_m_entry_name>
ligand_docking-pose.429

> <s_m_Source_Path>
/home/csk/Desktop/cluster/DUD-E-result/cdk2

> <s_m_Source_File>
ligand_docking-pose.sdf

> <i_m_Source_File_Index>
429

> <i_lp_mmshare_version>
53161

> <r_lp_tautomer_probability>
0.999999999997365

> <s_lp_Force_Field>
OPLS_2005

> <r_lp_Energy>
5.458322

> <b_lp_Chiralities_Consistent>
1

> <s_lp_Variant>
316153-1

> <s_i_glide_gridfile>
glide-grid_1h00

> <i_i_glide_lignum>
932

> <i_i_glide_rotatable_bonds>
6

> <r_i_docking_score>
-7.01800267039873

> <r_i_glide_ligand_efficiency>
-0.233933422346624

> <r_i_glide_ligand_efficiency_sa>
-0.72688553332037

> <r_i_glide_ligand_efficiency_ln>
-1.59456667397823

> <r_i_glide_gscore>
-7.01800267039873

> <r_i_glide_lipo>
-3.28272427615537

> <r_i_glide_hbond>
0

> <r_i_glide_metal>
0

> <r_i_glide_rewards>
-1.32838068625966

> <r_i_glide_evdw>
-48.7354888916016

> <r_i_glide_ecoul>
-1.67511224746704

> <r_i_glide_erotb>
0.281143573716436

> <r_i_glide_esite>
0

> <r_i_glide_emodel>
-68.3753547396212

> <r_i_glide_energy>
-50.4106011390686

> <r_i_glide_einternal>
3.99211549758911

> <i_i_glide_confnum>
5

> <i_i_glide_posenum>
374

> <r_i_glide_eff_state_penalty>
0

> <i_f3d_flags>
0

> <s_user_duplicate_titles>
316153

> <s_m_subgroup_title>
dock_pv

> <s_m_subgroupid>
dock_pv1

> <b_m_subgroup_collapsed>
0

$$$$
226517
                    3D
 Schrodinger Suite 2021-1.
 43 47  0  0  1  0            999 V2000
    0.8349   31.0509    7.7760 C   0  0  0  0  0  0
    2.0608   30.6129    7.2851 C   0  0  0  0  0  0
    2.6499   29.5152    7.9248 C   0  0  0  0  0  0
    1.9906   28.8110    8.9767 C   0  0  0  0  0  0
    0.7251   29.2558    9.3934 C   0  0  0  0  0  0
    0.1725   30.3908    8.8056 C   0  0  0  0  0  0
   -1.0849   30.9652    9.3253 C   0  0  0  0  0  0
   -1.5547   32.2556    9.4912 C   0  0  0  0  0  0
   -2.7420   32.2516   10.0563 N   0  0  0  0  0  0
   -3.0325   30.9786   10.1760 C   0  0  0  0  0  0
   -2.0518   30.1321    9.7764 O   0  0  0  0  0  0
    2.8234   27.7119    9.3755 C   0  0  0  0  0  0
    3.9636   27.8269    8.6029 C   0  0  0  0  0  0
    3.8637   28.8891    7.7432 N   0  0  0  0  0  0
    5.1139   27.0887    8.5760 O   0  0  0  0  0  0
    2.4577   26.7029   10.3464 C   0  0  0  0  0  0
    2.0580   25.5589    9.9614 N   0  0  0  0  0  0
    1.4845   24.6490   10.8608 C   0  0  0  0  0  0
    1.6577   23.2827   10.6296 C   0  0  0  0  0  0
    1.0092   22.3260   11.4108 C   0  0  0  0  0  0
    0.1552   22.7102   12.4467 C   0  0  0  0  0  0
   -0.0666   24.0813   12.6748 C   0  0  0  0  0  0
    0.5795   25.0210   11.8706 C   0  0  0  0  0  0
   -1.0921   24.4129   13.7431 C   0  0  0  0  0  0
   -1.2853   22.8377   14.7114 S   0  0  0  0  0  0
   -0.3399   22.8291   15.8329 O   0  0  0  0  0  0
   -2.7098   22.5848   14.9481 O   0  0  0  0  0  0
   -0.6564   21.7665   13.3210 C   0  0  0  0  0  0
    4.5976   29.1298    7.0933 H   0  0  0  0  0  0
    0.3923   31.9408    7.3534 H   0  0  0  0  0  0
    2.5421   31.1316    6.4723 H   0  0  0  0  0  0
    0.2052   28.7491   10.1932 H   0  0  0  0  0  0
   -1.0375   33.1688    9.2393 H   0  0  0  0  0  0
   -3.9238   30.5233   10.5781 H   0  0  0  0  0  0
    5.2480   26.6635    9.4476 H   0  0  0  0  0  0
    2.4867   27.0443   11.3760 H   0  0  0  0  0  0
    2.2827   22.9619    9.8084 H   0  0  0  0  0  0
    1.1611   21.2795   11.1888 H   0  0  0  0  0  0
    0.3662   26.0692   12.0205 H   0  0  0  0  0  0
   -2.0578   24.6889   13.3215 H   0  0  0  0  0  0
   -0.7529   25.1979   14.4169 H   0  0  0  0  0  0
   -0.0584   20.9608   13.7456 H   0  0  0  0  0  0
   -1.5075   21.3296   12.7994 H   0  0  0  0  0  0
  1  6  1  0  0  0
  1  2  2  0  0  0
  1 30  1  0  0  0
  2  3  1  0  0  0
  2 31  1  0  0  0
  3 14  1  0  0  0
  3  4  2  0  0  0
  4  5  1  0  0  0
  4 12  1  0  0  0
  5  6  2  0  0  0
  5 32  1  0  0  0
  6  7  1  0  0  0
  7 11  1  0  0  0
  7  8  2  0  0  0
  8  9  1  0  0  0
  8 33  1  0  0  0
  9 10  2  0  0  0
 10 11  1  0  0  0
 10 34  1  0  0  0
 12 13  2  0  0  0
 12 16  1  0  0  0
 13 14  1  0  0  0
 13 15  1  0  0  0
 14 29  1  0  0  0
 15 35  1  0  0  0
 16 17  2  0  0  0
 16 36  1  0  0  0
 17 18  1  0  0  0
 18 23  1  0  0  0
 18 19  2  0  0  0
 19 20  1  0  0  0
 19 37  1  0  0  0
 20 21  2  0  0  0
 20 38  1  0  0  0
 21 28  1  0  0  0
 21 22  1  0  0  0
 22 23  2  0  0  0
 22 24  1  0  0  0
 23 39  1  0  0  0
 24 25  1  0  0  0
 24 40  1  0  0  0
 24 41  1  0  0  0
 25 26  2  0  0  0
 25 27  2  0  0  0
 25 28  1  0  0  0
 28 42  1  0  0  0
 28 43  1  0  0  0
M  END
> <s_m_entry_id>
34934

> <s_m_entry_name>
ligand_docking-pose.431

> <s_m_Source_Path>
/home/csk/Desktop/cluster/DUD-E-result/cdk2

> <s_m_Source_File>
ligand_docking-pose.sdf

> <i_m_Source_File_Index>
431

> <i_lp_mmshare_version>
53161

> <r_lp_tautomer_probability>
1

> <s_lp_Force_Field>
OPLS_2005

> <r_lp_Energy>
22.200283

> <b_lp_Chiralities_Consistent>
1

> <s_lp_Variant>
226517-1

> <s_i_glide_gridfile>
glide-grid_1h00

> <i_i_glide_lignum>
19

> <i_i_glide_rotatable_bonds>
4

> <r_i_docking_score>
-7.00212424594708

> <r_i_glide_ligand_efficiency>
-0.250075865926682

> <r_i_glide_ligand_efficiency_sa>
-0.759377615761751

> <r_i_glide_ligand_efficiency_ln>
-1.61629586726595

> <r_i_glide_gscore>
-7.00212424594708

> <r_i_glide_lipo>
-2.65355676539653

> <r_i_glide_hbond>
-0.16

> <r_i_glide_metal>
0

> <r_i_glide_rewards>
-0.885036969696969

> <r_i_glide_evdw>
-43.725227355957

> <r_i_glide_ecoul>
-9.63331890106201

> <r_i_glide_erotb>
0.378634780842231

> <r_i_glide_esite>
-0.0509060887386646

> <r_i_glide_emodel>
-68.3861766539258

> <r_i_glide_energy>
-53.358546257019

> <r_i_glide_einternal>
9.81363010406494

> <i_i_glide_confnum>
9

> <i_i_glide_posenum>
183

> <r_i_glide_eff_state_penalty>
0

> <i_f3d_flags>
0

> <s_user_duplicate_titles>
226517

> <s_m_subgroup_title>
dock_pv

> <s_m_subgroupid>
dock_pv1

> <b_m_subgroup_collapsed>
0

$$$$
301002
                    3D
 Schrodinger Suite 2021-1.
 32 35  0  0  1  0            999 V2000
   -0.6172   27.2517   12.3858 C   0  0  0  0  0  0
   -0.5610   26.0526   13.0906 C   0  0  0  0  0  0
    0.0812   24.9509   12.5304 C   0  0  0  0  0  0
    0.6929   25.0493   11.2824 C   0  0  0  0  0  0
    0.6380   26.2480   10.5764 C   0  0  0  0  0  0
   -0.0396   27.3488   11.1098 C   0  0  0  0  0  0
   -0.1654   28.5530   10.3701 N   0  0  0  0  0  0
    0.6458   29.1827    9.4295 C   0  0  0  0  0  0
   -0.1028   30.2521    8.8876 C   0  0  0  0  0  0
    0.4591   31.0444    7.8679 C   0  0  0  0  0  0
    1.7460   30.7969    7.3759 C   0  0  0  0  0  0
    2.4892   29.7697    7.9612 C   0  0  0  0  0  0
    1.9744   28.9539    8.9806 C   0  0  0  0  0  0
    3.0332   28.0613    9.3333 C   0  0  0  0  0  0
    4.0806   28.2784    8.5769 N   0  0  0  0  0  0
    3.7743   29.3079    7.7621 N   0  0  0  0  0  0
   -1.3540   30.2197    9.5940 C   0  0  0  0  0  0
   -1.3532   29.1979   10.4180 N   0  0  0  0  0  0
   -2.5015   31.0744    9.4760 C   0  0  0  0  0  0
   -3.6552   30.6518    9.5016 O   0  0  0  0  0  0
   -2.2121   32.3689    9.3637 N   0  0  0  0  0  0
    0.1230   23.4532   13.3892 Cl  0  0  0  0  0  0
    4.4560   29.6679    7.1057 H   0  0  0  0  0  0
   -1.1327   28.0942   12.8268 H   0  0  0  0  0  0
   -1.0253   25.9784   14.0624 H   0  0  0  0  0  0
    1.1967   24.1963   10.8528 H   0  0  0  0  0  0
    1.0919   26.2955    9.6012 H   0  0  0  0  0  0
   -0.1031   31.8638    7.4473 H   0  0  0  0  0  0
    2.1630   31.4109    6.5918 H   0  0  0  0  0  0
    3.0679   27.3050   10.1039 H   0  0  0  0  0  0
   -1.2541   32.6814    9.3804 H   0  0  0  0  0  0
   -2.9680   33.0374    9.3314 H   0  0  0  0  0  0
  1  6  1  0  0  0
  1  2  2  0  0  0
  1 24  1  0  0  0
  2  3  1  0  0  0
  2 25  1  0  0  0
  3  4  2  0  0  0
  3 22  1  0  0  0
  4  5  1  0  0  0
  4 26  1  0  0  0
  5  6  2  0  0  0
  5 27  1  0  0  0
  6  7  1  0  0  0
  7 18  1  0  0  0
  7  8  1  0  0  0
  8 13  2  0  0  0
  8  9  1  0  0  0
  9 10  2  0  0  0
  9 17  1  0  0  0
 10 11  1  0  0  0
 10 28  1  0  0  0
 11 12  2  0  0  0
 11 29  1  0  0  0
 12 16  1  0  0  0
 12 13  1  0  0  0
 13 14  1  0  0  0
 14 15  2  0  0  0
 14 30  1  0  0  0
 15 16  1  0  0  0
 16 23  1  0  0  0
 17 18  2  0  0  0
 17 19  1  0  0  0
 19 20  2  0  0  0
 19 21  1  0  0  0
 21 31  1  0  0  0
 21 32  1  0  0  0
M  END
> <s_m_entry_id>
34937

> <s_m_entry_name>
ligand_docking-pose.434

> <s_m_Source_Path>
/home/csk/Desktop/cluster/DUD-E-result/cdk2

> <s_m_Source_File>
ligand_docking-pose.sdf

> <i_m_Source_File_Index>
434

> <i_lp_mmshare_version>
53161

> <r_lp_tautomer_probability>
1

> <s_lp_Force_Field>
OPLS_2005

> <r_lp_Energy>
58.889776

> <b_lp_Chiralities_Consistent>
1

> <s_lp_Variant>
301002-1

> <s_i_glide_gridfile>
glide-grid_1h00

> <i_i_glide_lignum>
392

> <i_i_glide_rotatable_bonds>
2

> <r_i_docking_score>
-6.98847778975973

> <r_i_glide_ligand_efficiency>
-0.317658081352715

> <r_i_glide_ligand_efficiency_sa>
-0.890090436733733

> <r_i_glide_ligand_efficiency_ln>
-1.70823888273829

> <r_i_glide_gscore>
-6.98847778975973

> <r_i_glide_lipo>
-2.51616165269118

> <r_i_glide_hbond>
-0.16906067603006

> <r_i_glide_metal>
0

> <r_i_glide_rewards>
-2.06315895683951

> <r_i_glide_evdw>
-38.5109825134277

> <r_i_glide_ecoul>
-3.36959075927734

> <r_i_glide_erotb>
0.190891235364011

> <r_i_glide_esite>
0

> <r_i_glide_emodel>
-58.0210476881462

> <r_i_glide_energy>
-41.8805732727051

> <r_i_glide_einternal>
4.00929307937622

> <i_i_glide_confnum>
2

> <i_i_glide_posenum>
235

> <r_i_glide_eff_state_penalty>
0

> <i_f3d_flags>
0

> <s_user_duplicate_titles>
301002

> <s_m_subgroup_title>
dock_pv

> <s_m_subgroupid>
dock_pv1

> <b_m_subgroup_collapsed>
0

$$$$
287506
                    3D
 Schrodinger Suite 2021-1.
 48 50  0  0  1  0            999 V2000
    4.1492   28.1670    4.5174 C   0  0  0  0  0  0
    3.4061   28.7632    5.5871 O   0  0  0  0  0  0
    3.9364   28.5129    6.8282 C   0  0  0  0  0  0
    5.2273   28.0069    7.0855 C   0  0  0  0  0  0
    5.2919   27.6505    8.4004 C   0  0  0  0  0  0
    4.1174   28.0167    8.9760 N   0  0  0  0  0  0
    3.2703   28.5888    8.0668 C   0  0  0  0  0  0
    1.9468   28.9279    8.5759 C   0  0  0  0  0  0
    1.0533   29.9245    8.3715 C   0  0  0  0  0  0
   -0.2740   30.1090    8.9854 C   0  0  0  0  0  0
   -0.6810   31.3771    8.6266 C   0  0  0  0  0  0
   -1.8776   31.9277    9.0766 C   0  0  0  0  0  0
   -2.7060   31.1538    9.8870 C   0  0  0  0  0  0
   -2.3361   29.8520   10.2333 C   0  0  0  0  0  0
   -1.1094   29.3179    9.7998 C   0  0  0  0  0  0
   -0.7722   27.9450   10.1721 C   0  0  0  0  0  0
   -0.5263   26.8123   10.5618 C   0  0  0  0  0  0
   -0.2806   25.4988   11.1879 C   0  0  2  0  0  0
    0.0730   25.6689   12.6953 C   0  0  0  0  0  0
   -0.3421   24.5480   13.4605 O   0  0  0  0  0  0
    0.7479   24.8049   10.3992 N   0  0  1  0  0  0
    1.1743   23.5193   10.9629 C   0  0  0  0  0  0
    1.9177   22.6015    9.9657 C   0  0  0  0  0  0
    3.0408   23.2262    9.3761 O   0  0  0  0  0  0
   -3.1924   29.1098   10.9761 F   0  0  0  0  0  0
    0.2507   31.9149    7.7760 N   0  0  0  0  0  0
    1.2267   31.0520    7.4680 C   0  0  0  0  0  0
    2.0580   31.2630    6.5999 O   0  0  0  0  0  0
    3.8899   27.8480    9.9469 H   0  0  0  0  0  0
   -1.2271   24.9619   11.0978 H   0  0  0  0  0  0
    3.6550   28.2520    3.5567 H   0  0  0  0  0  0
    5.1222   28.6487    4.4052 H   0  0  0  0  0  0
    4.3051   27.0984    4.6788 H   0  0  0  0  0  0
    6.0135   27.8387    6.3648 H   0  0  0  0  0  0
    6.0611   27.1610    8.9760 H   0  0  0  0  0  0
    1.6463   28.1852    9.2960 H   0  0  0  0  0  0
   -2.1795   32.9270    8.7995 H   0  0  0  0  0  0
   -3.6430   31.5558   10.2450 H   0  0  0  0  0  0
    1.1401   25.8511   12.8266 H   0  0  0  0  0  0
   -0.4344   26.5306   13.1354 H   0  0  0  0  0  0
   -1.3004   24.5606   13.5266 H   0  0  0  0  0  0
    0.4525   24.6996    9.4383 H   0  0  0  0  0  0
    0.2941   22.9715   11.3045 H   0  0  0  0  0  0
    1.7907   23.6679   11.8507 H   0  0  0  0  0  0
    1.2581   22.2585    9.1698 H   0  0  0  0  0  0
    2.2579   21.7055   10.4855 H   0  0  0  0  0  0
    2.7167   23.7977    8.6690 H   0  0  0  0  0  0
    0.1577   32.8127    7.3244 H   0  0  0  0  0  0
  1  2  1  0  0  0
  1 31  1  0  0  0
  1 32  1  0  0  0
  1 33  1  0  0  0
  2  3  1  0  0  0
  3  7  2  0  0  0
  3  4  1  0  0  0
  4  5  2  0  0  0
  4 34  1  0  0  0
  5  6  1  0  0  0
  5 35  1  0  0  0
  6 29  1  0  0  0
  6  7  1  0  0  0
  7  8  1  0  0  0
  8  9  2  0  0  0
  8 36  1  0  0  0
  9 27  1  0  0  0
  9 10  1  0  0  0
 10 15  2  0  0  0
 10 11  1  0  0  0
 11 12  2  0  0  0
 11 26  1  0  0  0
 12 13  1  0  0  0
 12 37  1  0  0  0
 13 14  2  0  0  0
 13 38  1  0  0  0
 14 15  1  0  0  0
 14 25  1  0  0  0
 15 16  1  0  0  0
 16 17  3  0  0  0
 17 18  1  0  0  0
 18 30  1  0  0  0
 18 19  1  0  0  0
 18 21  1  0  0  0
 19 20  1  0  0  0
 19 39  1  0  0  0
 19 40  1  0  0  0
 20 41  1  0  0  0
 21 22  1  0  0  0
 21 42  1  0  0  0
 22 23  1  0  0  0
 22 43  1  0  0  0
 22 44  1  0  0  0
 23 24  1  0  0  0
 23 45  1  0  0  0
 23 46  1  0  0  0
 24 47  1  0  0  0
 26 27  1  0  0  0
 26 48  1  0  0  0
 27 28  2  0  0  0
M  END
> <s_m_entry_id>
34939

> <s_m_entry_name>
ligand_docking-pose.436

> <s_m_Source_Path>
/home/csk/Desktop/cluster/DUD-E-result/cdk2

> <s_m_Source_File>
ligand_docking-pose.sdf

> <i_m_Source_File_Index>
436

> <i_lp_mmshare_version>
53161

> <r_lp_tautomer_probability>
1

> <s_lp_Force_Field>
OPLS_2005

> <r_lp_Energy>
44.774463

> <b_lp_Chiralities_Consistent>
1

> <s_lp_Variant>
287506-1

> <s_i_glide_gridfile>
glide-grid_1h00

> <i_i_glide_lignum>
1726

> <i_i_glide_rotatable_bonds>
10

> <r_i_docking_score>
-6.98313771377449

> <r_i_glide_ligand_efficiency>
-0.249397775491946

> <r_i_glide_ligand_efficiency_sa>
-0.757318533827986

> <r_i_glide_ligand_efficiency_ln>
-1.61191321817171

> <r_i_glide_gscore>
-6.98313771377449

> <r_i_glide_lipo>
-3.38540896265553

> <r_i_glide_hbond>
-0.373784435766091

> <r_i_glide_metal>
0

> <r_i_glide_rewards>
-1.4741161424026

> <r_i_glide_evdw>
-35.992977142334

> <r_i_glide_ecoul>
-5.3380274772644

> <r_i_glide_erotb>
0.916800994757614

> <r_i_glide_esite>
-0.0662761890015281

> <r_i_glide_emodel>
-54.0471767141631

> <r_i_glide_energy>
-41.3310046195984

> <r_i_glide_einternal>
10.4703998565674

> <i_i_glide_confnum>
162

> <i_i_glide_posenum>
370

> <r_i_glide_eff_state_penalty>
0

> <i_f3d_flags>
0

> <s_user_duplicate_titles>
287506

> <s_m_subgroup_title>
dock_pv

> <s_m_subgroupid>
dock_pv1

> <b_m_subgroup_collapsed>
0

$$$$
249025
                    3D
 Schrodinger Suite 2021-1.
 38 41  0  0  1  0            999 V2000
   -2.1494   31.4526    9.0505 C   0  0  0  0  0  0
   -0.9590   30.5264    9.1413 C   0  0  0  0  0  0
   -0.7863   29.3933    9.9177 C   0  0  0  0  0  0
    0.4593   28.7543    9.8016 C   0  0  0  0  0  0
    1.3218   29.4520    8.9459 C   0  0  0  0  0  0
    0.4581   30.7554    8.1760 S   0  0  0  0  0  0
    2.7687   29.1899    8.5760 C   0  0  0  0  0  0
    0.7406   27.4807   10.4870 C   0  0  0  0  0  0
    0.0574   26.7761   11.4718 C   0  0  0  0  0  0
    0.7027   25.5545   11.5934 C   0  0  0  0  0  0
    1.7601   25.4616   10.8253 N   0  0  0  0  0  0
    1.7777   26.6312   10.1758 N   0  0  0  0  0  0
    0.0099   24.7019   12.5581 C   0  0  0  0  0  0
    0.2141   23.3959   12.9949 C   0  0  0  0  0  0
   -0.6451   22.8562   13.9499 C   0  0  0  0  0  0
   -1.6891   23.6228   14.4723 C   0  0  0  0  0  0
   -1.9020   24.9466   14.0398 C   0  0  0  0  0  0
   -1.0449   25.4681   13.0555 C   0  0  0  0  0  0
   -1.0654   26.8033   12.3861 C   0  0  0  0  0  0
   -1.8738   27.7071   12.5759 O   0  0  0  0  0  0
   -2.9190   25.7857   14.5463 N   0  0  0  0  0  0
   -3.8107   25.5699   15.5259 C   0  0  0  0  0  0
   -3.9583   24.5404   16.1760 O   0  0  0  0  0  0
   -4.5339   26.6520   15.7759 N   0  0  0  0  0  0
    2.4891   26.8382    9.4904 H   0  0  0  0  0  0
   -2.7992   31.3616    9.9218 H   0  0  0  0  0  0
   -1.8491   32.4989    8.9899 H   0  0  0  0  0  0
   -2.7620   31.2400    8.1761 H   0  0  0  0  0  0
   -1.5816   29.0328   10.5492 H   0  0  0  0  0  0
    3.3169   28.6762    9.3652 H   0  0  0  0  0  0
    2.8571   28.5875    7.6722 H   0  0  0  0  0  0
    3.3104   30.1173    8.3856 H   0  0  0  0  0  0
    1.0216   22.7982   12.5994 H   0  0  0  0  0  0
   -0.5031   21.8392   14.2863 H   0  0  0  0  0  0
   -2.3217   23.1538   15.2070 H   0  0  0  0  0  0
   -2.9478   26.7026   14.1185 H   0  0  0  0  0  0
   -5.1419   26.6567   16.5795 H   0  0  0  0  0  0
   -4.3420   27.5280   15.2815 H   0  0  0  0  0  0
  1  2  1  0  0  0
  1 26  1  0  0  0
  1 27  1  0  0  0
  1 28  1  0  0  0
  2  6  1  0  0  0
  2  3  2  0  0  0
  3  4  1  0  0  0
  3 29  1  0  0  0
  4  5  2  0  0  0
  4  8  1  0  0  0
  5  6  1  0  0  0
  5  7  1  0  0  0
  7 30  1  0  0  0
  7 31  1  0  0  0
  7 32  1  0  0  0
  8 12  1  0  0  0
  8  9  2  0  0  0
  9 19  1  0  0  0
  9 10  1  0  0  0
 10 11  2  0  0  0
 10 13  1  0  0  0
 11 12  1  0  0  0
 12 25  1  0  0  0
 13 18  2  0  0  0
 13 14  1  0  0  0
 14 15  2  0  0  0
 14 33  1  0  0  0
 15 16  1  0  0  0
 15 34  1  0  0  0
 16 17  2  0  0  0
 16 35  1  0  0  0
 17 18  1  0  0  0
 17 21  1  0  0  0
 18 19  1  0  0  0
 19 20  2  0  0  0
 21 22  1  0  0  0
 21 36  1  0  0  0
 22 23  2  0  0  0
 22 24  1  0  0  0
 24 37  1  0  0  0
 24 38  1  0  0  0
M  END
> <s_m_entry_id>
34940

> <s_m_entry_name>
ligand_docking-pose.437

> <s_m_Source_Path>
/home/csk/Desktop/cluster/DUD-E-result/cdk2

> <s_m_Source_File>
ligand_docking-pose.sdf

> <i_m_Source_File_Index>
437

> <i_lp_mmshare_version>
53161

> <r_lp_tautomer_probability>
1

> <s_lp_Force_Field>
OPLS_2005

> <r_lp_Energy>
50.241852

> <b_lp_Chiralities_Consistent>
1

> <s_lp_Variant>
249025-1

> <s_i_glide_gridfile>
glide-grid_1h00

> <i_i_glide_lignum>
767

> <i_i_glide_rotatable_bonds>
3

> <r_i_docking_score>
-6.98249922874473

> <r_i_glide_ligand_efficiency>
-0.290937467864364

> <r_i_glide_ligand_efficiency_sa>
-0.839208875138391

> <r_i_glide_ligand_efficiency_ln>
-1.67123247145029

> <r_i_glide_gscore>
-6.98249922874473

> <r_i_glide_lipo>
-2.35484629614536

> <r_i_glide_hbond>
-0.32

> <r_i_glide_metal>
0

> <r_i_glide_rewards>
-1.57191927621316

> <r_i_glide_evdw>
-37.3242797851562

> <r_i_glide_ecoul>
-6.57544565200806

> <r_i_glide_erotb>
0.330316344902594

> <r_i_glide_esite>
-0.213519164229788

> <r_i_glide_emodel>
-62.7248033398582

> <r_i_glide_energy>
-43.8997254371643

> <r_i_glide_einternal>
1.64770603179932

> <i_i_glide_confnum>
9

> <i_i_glide_posenum>
394

> <r_i_glide_eff_state_penalty>
0

> <i_f3d_flags>
0

> <s_user_duplicate_titles>
249025

> <s_m_subgroup_title>
dock_pv

> <s_m_subgroupid>
dock_pv1

> <b_m_subgroup_collapsed>
0

$$$$
286775
                    3D
 Schrodinger Suite 2021-1.
 40 42  0  0  1  0            999 V2000
    5.1960   27.1794    7.5939 C   0  0  0  0  0  0
    4.0617   27.8808    8.1735 N   0  0  2  0  0  0
    3.7303   29.0524    7.3737 C   0  0  0  0  0  0
    2.4581   29.5956    7.8687 C   0  0  0  0  0  0
    1.3991   29.9949    8.3287 C   0  0  0  0  0  0
    0.1706   30.4512    8.9700 C   0  0  0  0  0  0
   -0.3425   31.7210    8.6443 C   0  0  0  0  0  0
   -1.4866   32.2066    9.2820 C   0  0  0  0  0  0
   -2.1031   31.4566   10.2805 C   0  0  0  0  0  0
   -1.5542   30.2246   10.6261 C   0  0  0  0  0  0
   -0.4513   29.7018    9.9851 C   0  0  0  0  0  0
   -0.2142   28.3818   10.5979 C   0  0  0  0  0  0
    0.6908   27.4190   10.2927 C   0  0  0  0  0  0
    0.8539   26.0802   10.8350 C   0  0  0  0  0  0
   -0.0183   24.9954   11.0107 C   0  0  0  0  0  0
    0.7052   23.9620   11.6106 C   0  0  0  0  0  0
    2.0040   24.3997   11.7760 C   0  0  0  0  0  0
    2.0861   25.6742   11.2817 N   0  0  0  0  0  0
   -1.3466   24.9078   10.6920 O   0  0  0  0  0  0
   -1.6854   25.4026    9.4060 C   0  0  0  0  0  0
   -1.1837   28.2593   11.6806 C   0  0  0  0  0  0
   -1.3247   27.3667   12.5142 O   0  0  0  0  0  0
   -1.9421   29.3599   11.6151 N   0  0  0  0  0  0
    0.2989   32.5314    7.7712 F   0  0  0  0  0  0
    2.9181   26.2523   11.2970 H   0  0  0  0  0  0
    5.4808   26.3426    8.2329 H   0  0  0  0  0  0
    6.0578   27.8393    7.4997 H   0  0  0  0  0  0
    4.9511   26.7803    6.6082 H   0  0  0  0  0  0
    4.2895   28.1606    9.1185 H   0  0  0  0  0  0
    4.4951   29.8247    7.4675 H   0  0  0  0  0  0
    3.5974   28.8024    6.3197 H   0  0  0  0  0  0
   -1.8705   33.1835    9.0278 H   0  0  0  0  0  0
   -2.9682   31.8490   10.7971 H   0  0  0  0  0  0
    1.4087   27.6146    9.5133 H   0  0  0  0  0  0
    0.3072   23.0004   11.8984 H   0  0  0  0  0  0
    2.8581   23.9303   12.2300 H   0  0  0  0  0  0
   -2.6863   25.0521    9.1588 H   0  0  0  0  0  0
   -1.7018   26.4879    9.3779 H   0  0  0  0  0  0
   -1.0087   25.0520    8.6275 H   0  0  0  0  0  0
   -2.6836   29.5566   12.2792 H   0  0  0  0  0  0
  1  2  1  0  0  0
  1 26  1  0  0  0
  1 27  1  0  0  0
  1 28  1  0  0  0
  2  3  1  0  0  0
  2 29  1  0  0  0
  3  4  1  0  0  0
  3 30  1  0  0  0
  3 31  1  0  0  0
  4  5  3  0  0  0
  5  6  1  0  0  0
  6 11  1  0  0  0
  6  7  2  0  0  0
  7  8  1  0  0  0
  7 24  1  0  0  0
  8  9  2  0  0  0
  8 32  1  0  0  0
  9 10  1  0  0  0
  9 33  1  0  0  0
 10 23  1  0  0  0
 10 11  2  0  0  0
 11 12  1  0  0  0
 12 13  2  0  0  0
 12 21  1  0  0  0
 13 14  1  0  0  0
 13 34  1  0  0  0
 14 18  1  0  0  0
 14 15  2  0  0  0
 15 16  1  0  0  0
 15 19  1  0  0  0
 16 17  2  0  0  0
 16 35  1  0  0  0
 17 18  1  0  0  0
 17 36  1  0  0  0
 18 25  1  0  0  0
 19 20  1  0  0  0
 20 37  1  0  0  0
 20 38  1  0  0  0
 20 39  1  0  0  0
 21 22  2  0  0  0
 21 23  1  0  0  0
 23 40  1  0  0  0
M  END
> <s_m_entry_id>
34941

> <s_m_entry_name>
ligand_docking-pose.438

> <s_m_Source_Path>
/home/csk/Desktop/cluster/DUD-E-result/cdk2

> <s_m_Source_File>
ligand_docking-pose.sdf

> <i_m_Source_File_Index>
438

> <i_lp_mmshare_version>
53161

> <r_lp_tautomer_probability>
1

> <s_lp_Force_Field>
OPLS_2005

> <r_lp_Energy>
34.786154

> <b_lp_Chiralities_Consistent>
1

> <s_lp_Variant>
286775-1

> <s_i_glide_gridfile>
glide-grid_1h00

> <i_i_glide_lignum>
1521

> <i_i_glide_rotatable_bonds>
5

> <r_i_docking_score>
-6.9792485970461

> <r_i_glide_ligand_efficiency>
-0.290802024876921

> <r_i_glide_ligand_efficiency_sa>
-0.838818189957924

> <r_i_glide_ligand_efficiency_ln>
-1.67045444612303

> <r_i_glide_gscore>
-6.9792485970461

> <r_i_glide_lipo>
-2.7369670292562

> <r_i_glide_hbond>
-0.15767616951745

> <r_i_glide_metal>
0

> <r_i_glide_rewards>
-2.09271883766297

> <r_i_glide_evdw>
-37.3971214294434

> <r_i_glide_ecoul>
-3.73034858703613

> <r_i_glide_erotb>
0.531154484045121

> <r_i_glide_esite>
-0.0936326851270149

> <r_i_glide_emodel>
-56.2418372860554

> <r_i_glide_energy>
-41.1274700164795

> <r_i_glide_einternal>
7.25878238677979

> <i_i_glide_confnum>
3

> <i_i_glide_posenum>
235

> <r_i_glide_eff_state_penalty>
0

> <i_f3d_flags>
0

> <s_user_duplicate_titles>
286775

> <s_m_subgroup_title>
dock_pv

> <s_m_subgroupid>
dock_pv1

> <b_m_subgroup_collapsed>
0

$$$$
324698
                    3D
 Schrodinger Suite 2021-1.
 44 47  0  0  1  0            999 V2000
    4.9248   28.7898    7.3273 C   0  0  0  0  0  0
    4.8369   27.3985    7.6077 O   0  0  0  0  0  0
    3.9035   26.9695    8.5264 C   0  0  0  0  0  0
    3.1919   27.8226    9.3772 C   0  0  0  0  0  0
    2.2464   27.3027   10.2532 C   0  0  0  0  0  0
    1.9588   25.9332   10.2588 C   0  0  0  0  0  0
    2.6868   25.0788    9.4295 C   0  0  0  0  0  0
    3.6580   25.5959    8.5759 C   0  0  0  0  0  0
    0.9449   25.3794   11.0623 N   0  0  0  0  0  0
   -0.2706   25.9310   11.5103 C   0  0  0  0  0  0
   -1.1430   25.2013   12.3371 C   0  0  0  0  0  0
   -2.3370   25.8407   12.6914 C   0  0  0  0  0  0
   -2.6651   27.0836   12.2644 N   0  0  0  0  0  0
   -1.7646   27.7211   11.4823 C   0  0  0  0  0  0
   -0.5920   27.1787   11.0858 N   0  0  0  0  0  0
   -2.0849   29.0409   11.1101 N   0  0  0  0  0  0
   -1.4842   29.9740   10.2415 C   0  0  0  0  0  0
   -1.9545   31.2937   10.2758 C   0  0  0  0  0  0
   -1.4145   32.3146    9.4827 C   0  0  0  0  0  0
   -0.3616   31.9584    8.6385 C   0  0  0  0  0  0
    0.1098   30.6246    8.5535 C   0  0  0  0  0  0
   -0.4601   29.6285    9.3500 C   0  0  0  0  0  0
    1.1333   30.5087    7.6532 N   0  0  0  0  0  0
    1.3049   31.7239    7.2113 C   0  0  0  0  0  0
    0.4572   32.6517    7.7738 N   0  0  0  0  0  0
   -0.8419   23.7798   12.8181 C   0  0  0  0  0  0
    0.3661   23.7018   13.3729 F   0  0  0  0  0  0
   -1.7318   23.3620   13.7229 F   0  0  0  0  0  0
   -0.8793   22.9474   11.7767 F   0  0  0  0  0  0
    0.4576   33.6394    7.5399 H   0  0  0  0  0  0
    5.6398   28.9403    6.5236 H   0  0  0  0  0  0
    5.2748   29.3603    8.1897 H   0  0  0  0  0  0
    3.9671   29.1970    6.9956 H   0  0  0  0  0  0
    3.3574   28.8873    9.3759 H   0  0  0  0  0  0
    1.7389   27.9810   10.9198 H   0  0  0  0  0  0
    2.4781   24.0217    9.4123 H   0  0  0  0  0  0
    4.2049   24.9329    7.9216 H   0  0  0  0  0  0
    1.1023   24.4299   11.3562 H   0  0  0  0  0  0
   -3.0814   25.3569   13.3055 H   0  0  0  0  0  0
   -2.8947   29.3938   11.6050 H   0  0  0  0  0  0
   -2.7499   31.5451   10.9629 H   0  0  0  0  0  0
   -1.7820   33.3272    9.5486 H   0  0  0  0  0  0
   -0.0938   28.6230    9.2563 H   0  0  0  0  0  0
    2.0316   32.0212    6.4688 H   0  0  0  0  0  0
  1  2  1  0  0  0
  1 31  1  0  0  0
  1 32  1  0  0  0
  1 33  1  0  0  0
  2  3  1  0  0  0
  3  8  1  0  0  0
  3  4  2  0  0  0
  4  5  1  0  0  0
  4 34  1  0  0  0
  5  6  2  0  0  0
  5 35  1  0  0  0
  6  7  1  0  0  0
  6  9  1  0  0  0
  7  8  2  0  0  0
  7 36  1  0  0  0
  8 37  1  0  0  0
  9 10  1  0  0  0
  9 38  1  0  0  0
 10 15  1  0  0  0
 10 11  2  0  0  0
 11 12  1  0  0  0
 11 26  1  0  0  0
 12 13  2  0  0  0
 12 39  1  0  0  0
 13 14  1  0  0  0
 14 15  2  0  0  0
 14 16  1  0  0  0
 16 17  1  0  0  0
 16 40  1  0  0  0
 17 22  1  0  0  0
 17 18  2  0  0  0
 18 19  1  0  0  0
 18 41  1  0  0  0
 19 20  2  0  0  0
 19 42  1  0  0  0
 20 25  1  0  0  0
 20 21  1  0  0  0
 21 22  2  0  0  0
 21 23  1  0  0  0
 22 43  1  0  0  0
 23 24  2  0  0  0
 24 25  1  0  0  0
 24 44  1  0  0  0
 25 30  1  0  0  0
 26 27  1  0  0  0
 26 28  1  0  0  0
 26 29  1  0  0  0
M  END
> <s_m_entry_id>
34944

> <s_m_entry_name>
ligand_docking-pose.441

> <s_m_Source_Path>
/home/csk/Desktop/cluster/DUD-E-result/cdk2

> <s_m_Source_File>
ligand_docking-pose.sdf

> <i_m_Source_File_Index>
441

> <i_lp_mmshare_version>
53161

> <r_lp_tautomer_probability>
0.999999624730965

> <s_lp_Force_Field>
OPLS_2005

> <r_lp_Energy>
15.48831

> <b_lp_Chiralities_Consistent>
1

> <s_lp_Variant>
324698-1

> <s_i_glide_gridfile>
glide-grid_1h00

> <i_i_glide_lignum>
1705

> <i_i_glide_rotatable_bonds>
6

> <r_i_docking_score>
-6.97045090158815

> <r_i_glide_ligand_efficiency>
-0.240360375916833

> <r_i_glide_ligand_efficiency_sa>
-0.738463226328586

> <r_i_glide_ligand_efficiency_ln>
-1.59605650107969

> <r_i_glide_gscore>
-6.97045090158815

> <r_i_glide_lipo>
-2.19672035487941

> <r_i_glide_hbond>
-0.337017041169757

> <r_i_glide_metal>
0

> <r_i_glide_rewards>
-2.26685308784639

> <r_i_glide_evdw>
-41.6648292541504

> <r_i_glide_ecoul>
-3.72127723693848

> <r_i_glide_erotb>
0.489213306603968

> <r_i_glide_esite>
-0.0176406760482792

> <r_i_glide_emodel>
-63.4324904418505

> <r_i_glide_energy>
-45.3861064910889

> <r_i_glide_einternal>
2.40853786468506

> <i_i_glide_confnum>
31

> <i_i_glide_posenum>
369

> <r_i_glide_eff_state_penalty>
0

> <i_f3d_flags>
0

> <s_user_duplicate_titles>
324698

> <s_m_subgroup_title>
dock_pv

> <s_m_subgroupid>
dock_pv1

> <b_m_subgroup_collapsed>
0

$$$$
307305
                    3D
 Schrodinger Suite 2021-1.
 36 38  0  0  1  0            999 V2000
    2.2988   27.4107   10.3651 C   0  0  0  0  0  0
    2.4198   28.4545    9.2743 C   0  0  0  0  0  0
    1.4717   29.4520    8.8673 C   0  0  0  0  0  0
    2.0841   30.1896    7.8363 C   0  0  0  0  0  0
    3.3359   29.6819    7.6598 N   0  0  0  0  0  0
    3.5627   28.6521    8.5128 C   0  0  0  0  0  0
    5.2547   27.7832    8.5170 Br  0  0  0  0  0  0
    1.6581   31.3551    6.9758 C   0  0  0  0  0  0
    0.0767   29.6749    9.4101 C   0  0  0  0  0  0
   -0.7900   30.6886    8.9689 C   0  0  0  0  0  0
   -2.0376   30.7939    9.5838 C   0  0  0  0  0  0
   -2.4267   29.9586   10.5759 N   0  0  0  0  0  0
   -1.5427   29.0027   10.9470 C   0  0  0  0  0  0
   -0.3142   28.8249   10.3972 N   0  0  0  0  0  0
   -1.9417   28.1857   12.0093 N   0  0  0  0  0  0
   -1.4437   26.9533   12.4537 C   0  0  0  0  0  0
   -1.5438   26.6526   13.8124 C   0  0  0  0  0  0
   -1.0839   25.4287   14.2912 C   0  0  0  0  0  0
   -0.5299   24.5050   13.4079 C   0  0  0  0  0  0
   -0.4351   24.7927   12.0484 C   0  0  0  0  0  0
   -0.8983   26.0159   11.5695 C   0  0  0  0  0  0
   -0.0807   23.3192   13.8769 F   0  0  0  0  0  0
    4.0148   30.0530    7.0041 H   0  0  0  0  0  0
    1.6146   26.6111   10.0836 H   0  0  0  0  0  0
    3.2579   26.9669   10.6299 H   0  0  0  0  0  0
    1.9108   27.8376   11.2898 H   0  0  0  0  0  0
    1.3309   32.2162    7.5580 H   0  0  0  0  0  0
    2.4577   31.7141    6.3293 H   0  0  0  0  0  0
    0.8580   31.0524    6.3121 H   0  0  0  0  0  0
   -0.5413   31.3823    8.1881 H   0  0  0  0  0  0
   -2.7430   31.5585    9.2911 H   0  0  0  0  0  0
   -2.7574   28.5294   12.5041 H   0  0  0  0  0  0
   -1.9784   27.3705   14.4942 H   0  0  0  0  0  0
   -1.1566   25.1948   15.3417 H   0  0  0  0  0  0
   -0.0060   24.0707   11.3700 H   0  0  0  0  0  0
   -0.8387   26.2287   10.5126 H   0  0  0  0  0  0
  1  2  1  0  0  0
  1 24  1  0  0  0
  1 25  1  0  0  0
  1 26  1  0  0  0
  2  6  2  0  0  0
  2  3  1  0  0  0
  3  4  2  0  0  0
  3  9  1  0  0  0
  4  5  1  0  0  0
  4  8  1  0  0  0
  5 23  1  0  0  0
  5  6  1  0  0  0
  6  7  1  0  0  0
  8 27  1  0  0  0
  8 28  1  0  0  0
  8 29  1  0  0  0
  9 14  1  0  0  0
  9 10  2  0  0  0
 10 11  1  0  0  0
 10 30  1  0  0  0
 11 12  2  0  0  0
 11 31  1  0  0  0
 12 13  1  0  0  0
 13 14  2  0  0  0
 13 15  1  0  0  0
 15 16  1  0  0  0
 15 32  1  0  0  0
 16 21  1  0  0  0
 16 17  2  0  0  0
 17 18  1  0  0  0
 17 33  1  0  0  0
 18 19  2  0  0  0
 18 34  1  0  0  0
 19 20  1  0  0  0
 19 22  1  0  0  0
 20 21  2  0  0  0
 20 35  1  0  0  0
 21 36  1  0  0  0
M  END
> <s_m_entry_id>
34946

> <s_m_entry_name>
ligand_docking-pose.443

> <s_m_Source_Path>
/home/csk/Desktop/cluster/DUD-E-result/cdk2

> <s_m_Source_File>
ligand_docking-pose.sdf

> <i_m_Source_File_Index>
443

> <i_lp_mmshare_version>
53161

> <r_lp_tautomer_probability>
0.999999987636

> <s_lp_Force_Field>
OPLS_2005

> <r_lp_Energy>
5.44077

> <b_lp_Chiralities_Consistent>
1

> <s_lp_Variant>
307305-1

> <s_i_glide_gridfile>
glide-grid_1h00

> <i_i_glide_lignum>
771

> <i_i_glide_rotatable_bonds>
3

> <r_i_docking_score>
-6.96611417424884

> <r_i_glide_ligand_efficiency>
-0.316641553374947

> <r_i_glide_ligand_efficiency_sa>
-0.887242085362252

> <r_i_glide_ligand_efficiency_ln>
-1.70277239937474

> <r_i_glide_gscore>
-6.96611417424884

> <r_i_glide_lipo>
-2.51899632563399

> <r_i_glide_hbond>
-0.401462497508305

> <r_i_glide_metal>
0

> <r_i_glide_rewards>
-2.09201433728829

> <r_i_glide_evdw>
-36.5121154785156

> <r_i_glide_ecoul>
-3.61173057556152

> <r_i_glide_erotb>
0.441189845195092

> <r_i_glide_esite>
-0.0274654987533437

> <r_i_glide_emodel>
-56.6234366928292

> <r_i_glide_energy>
-40.1238460540771

> <r_i_glide_einternal>
1.09205949306488

> <i_i_glide_confnum>
2

> <i_i_glide_posenum>
380

> <r_i_glide_eff_state_penalty>
0

> <i_f3d_flags>
0

> <s_user_duplicate_titles>
307305

> <s_m_subgroup_title>
dock_pv

> <s_m_subgroupid>
dock_pv1

> <b_m_subgroup_collapsed>
0

$$$$
116777
                    3D
 Schrodinger Suite 2021-1.
 43 48  0  0  1  0            999 V2000
    2.5511   29.5849    7.1819 C   0  0  0  0  0  0
    1.4529   30.3011    7.8125 N   0  0  0  0  0  0
    1.2134   31.5825    7.3760 C   0  0  0  0  0  0
    0.1576   32.1384    8.0363 C   0  0  0  0  0  0
   -0.3420   31.1428    8.9235 C   0  0  0  0  0  0
    0.5479   30.0103    8.8661 C   0  0  0  0  0  0
    0.3328   28.8908    9.7733 C   0  0  0  0  0  0
   -0.8785   28.9025   10.5420 C   0  0  0  0  0  0
   -1.7320   30.0249   10.5358 C   0  0  0  0  0  0
   -1.4401   31.1535    9.7808 C   0  0  0  0  0  0
   -2.1587   32.3313    9.7756 O   0  0  0  0  0  0
   -3.1436   32.5165   10.7787 C   0  0  0  0  0  0
   -1.2324   27.7913   11.3583 C   0  0  0  0  0  0
   -0.4334   26.6453   11.4564 C   0  0  0  0  0  0
   -1.0872   25.7643   12.3573 C   0  0  0  0  0  0
   -0.7904   24.4862   12.8675 C   0  0  0  0  0  0
   -1.6364   23.9182   13.8172 C   0  0  0  0  0  0
   -2.7682   24.5920   14.2640 C   0  0  0  0  0  0
   -3.1112   25.8520   13.7760 C   0  0  0  0  0  0
   -2.2622   26.4226   12.8202 C   0  0  0  0  0  0
   -2.3345   27.6411   12.1760 N   0  0  0  0  0  0
    0.7805   26.6447   10.7568 C   0  0  0  0  0  0
    1.1905   27.7504   10.0180 C   0  0  0  0  0  0
    2.6388   27.4979    9.7587 C   0  0  0  0  0  0
    3.5214   28.2520    9.3760 O   0  0  0  0  0  0
    2.8580   26.2199   10.0759 N   0  0  0  0  0  0
    1.8562   25.6193   10.7120 C   0  0  0  0  0  0
    1.9000   24.4846   11.1826 O   0  0  0  0  0  0
   -3.0436   28.3421   12.3528 H   0  0  0  0  0  0
    2.5768   29.8136    6.1156 H   0  0  0  0  0  0
    3.4945   29.9252    7.6096 H   0  0  0  0  0  0
    2.4580   28.5156    7.2665 H   0  0  0  0  0  0
    1.8322   32.0018    6.5976 H   0  0  0  0  0  0
   -0.2361   33.1317    7.8657 H   0  0  0  0  0  0
   -2.6117   30.0169   11.1612 H   0  0  0  0  0  0
   -3.5073   33.5399   10.7580 H   0  0  0  0  0  0
   -3.9943   31.8538   10.6124 H   0  0  0  0  0  0
   -2.7420   32.3488   11.7760 H   0  0  0  0  0  0
    0.0801   23.9370   12.5552 H   0  0  0  0  0  0
   -1.4096   22.9381   14.2109 H   0  0  0  0  0  0
   -3.4038   24.1214   14.9987 H   0  0  0  0  0  0
   -3.9912   26.3688   14.1298 H   0  0  0  0  0  0
    3.7929   25.8327   10.0346 H   0  0  0  0  0  0
  1  2  1  0  0  0
  1 30  1  0  0  0
  1 31  1  0  0  0
  1 32  1  0  0  0
  2  6  1  0  0  0
  2  3  1  0  0  0
  3  4  2  0  0  0
  3 33  1  0  0  0
  4  5  1  0  0  0
  4 34  1  0  0  0
  5 10  2  0  0  0
  5  6  1  0  0  0
  6  7  2  0  0  0
  7 23  1  0  0  0
  7  8  1  0  0  0
  8  9  2  0  0  0
  8 13  1  0  0  0
  9 10  1  0  0  0
  9 35  1  0  0  0
 10 11  1  0  0  0
 11 12  1  0  0  0
 12 36  1  0  0  0
 12 37  1  0  0  0
 12 38  1  0  0  0
 13 21  1  0  0  0
 13 14  2  0  0  0
 14 15  1  0  0  0
 14 22  1  0  0  0
 15 20  2  0  0  0
 15 16  1  0  0  0
 16 17  2  0  0  0
 16 39  1  0  0  0
 17 18  1  0  0  0
 17 40  1  0  0  0
 18 19  2  0  0  0
 18 41  1  0  0  0
 19 20  1  0  0  0
 19 42  1  0  0  0
 20 21  1  0  0  0
 21 29  1  0  0  0
 22 27  1  0  0  0
 22 23  2  0  0  0
 23 24  1  0  0  0
 24 25  2  0  0  0
 24 26  1  0  0  0
 26 27  1  0  0  0
 26 43  1  0  0  0
 27 28  2  0  0  0
M  END
> <s_m_entry_id>
34949

> <s_m_entry_name>
ligand_docking-pose.446

> <s_m_Source_Path>
/home/csk/Desktop/cluster/DUD-E-result/cdk2

> <s_m_Source_File>
ligand_docking-pose.sdf

> <i_m_Source_File_Index>
446

> <i_lp_mmshare_version>
53161

> <r_lp_tautomer_probability>
1

> <s_lp_Force_Field>
OPLS_2005

> <r_lp_Energy>
95.903969

> <b_lp_Chiralities_Consistent>
1

> <s_lp_Variant>
116777-1

> <s_i_glide_gridfile>
glide-grid_1h00

> <i_i_glide_lignum>
1469

> <i_i_glide_rotatable_bonds>
1

> <r_i_docking_score>
-6.96173039025565

> <r_i_glide_ligand_efficiency>
-0.248633228223416

> <r_i_glide_ligand_efficiency_sa>
-0.754996918026469

> <r_i_glide_ligand_efficiency_ln>
-1.60697177935723

> <r_i_glide_gscore>
-6.96173039025565

> <r_i_glide_lipo>
-2.6610743407029

> <r_i_glide_hbond>
-0.175474075179916

> <r_i_glide_metal>
0

> <r_i_glide_rewards>
-1.33969021241813

> <r_i_glide_evdw>
-39.3510627746582

> <r_i_glide_ecoul>
-4.95567846298218

> <r_i_glide_erotb>
0

> <r_i_glide_esite>
-0.0745868537744741

> <r_i_glide_emodel>
-63.5291493571343

> <r_i_glide_energy>
-44.3067412376404

> <r_i_glide_einternal>
0.157292544841766

> <i_i_glide_confnum>
1

> <i_i_glide_posenum>
374

> <r_i_glide_eff_state_penalty>
0

> <i_f3d_flags>
0

> <s_user_duplicate_titles>
116777

> <s_m_subgroup_title>
dock_pv

> <s_m_subgroupid>
dock_pv1

> <b_m_subgroup_collapsed>
0

$$$$
313075
                    3D
 Schrodinger Suite 2021-1.
 42 45  0  0  1  0            999 V2000
    5.2171   27.4662    3.6978 C   0  0  0  0  0  0
    5.2404   26.8350    4.9680 O   0  0  0  0  0  0
    4.6443   27.4724    6.0351 C   0  0  0  0  0  0
    4.8584   26.8933    7.2824 C   0  0  0  0  0  0
    4.2998   27.4557    8.4232 C   0  0  0  0  0  0
    3.5217   28.6020    8.3382 C   0  0  0  0  0  0
    3.2579   29.1741    7.0964 C   0  0  0  0  0  0
    3.8454   28.6288    5.9510 C   0  0  0  0  0  0
    2.4480   30.3116    6.9757 N   0  0  0  0  0  0
    1.3166   30.7187    7.7039 C   0  0  0  0  0  0
    0.8702   31.9813    7.4731 N   0  0  0  0  0  0
   -0.2061   32.3928    8.1918 C   0  0  0  0  0  0
   -0.8613   31.5566    9.1004 C   0  0  0  0  0  0
   -0.3431   30.2659    9.2695 C   0  0  0  0  0  0
    0.7472   29.8519    8.5764 N   0  0  0  0  0  0
   -0.9042   29.2693   10.2330 C   0  0  0  0  0  0
   -2.0680   29.3735   10.9991 C   0  0  0  0  0  0
   -2.3115   28.3370   11.7753 N   0  0  0  0  0  0
   -1.2937   27.4837   11.5600 N   0  0  0  0  0  0
   -0.3862   27.9921   10.6125 C   0  0  0  0  0  0
    0.7108   27.1654   10.3173 C   0  0  0  0  0  0
    0.8206   25.9343   10.9651 C   0  0  0  0  0  0
   -0.1475   25.5427   11.8868 C   0  0  0  0  0  0
   -1.2307   26.3077   12.2078 N   0  0  0  0  0  0
    0.0122   24.3117   12.4976 O   0  0  0  0  0  0
   -0.9525   23.8644   13.4471 C   0  0  0  0  0  0
    5.8022   26.8863    2.9849 H   0  0  0  0  0  0
    4.2014   27.5482    3.3067 H   0  0  0  0  0  0
    5.6628   28.4598    3.7738 H   0  0  0  0  0  0
    5.4627   26.0014    7.3626 H   0  0  0  0  0  0
    4.4580   26.9996    9.3761 H   0  0  0  0  0  0
    3.1161   29.0303    9.2412 H   0  0  0  0  0  0
    3.6589   29.0955    4.9983 H   0  0  0  0  0  0
    2.8911   31.0383    6.4258 H   0  0  0  0  0  0
   -0.5424   33.4063    8.0177 H   0  0  0  0  0  0
   -1.7165   31.9071    9.6580 H   0  0  0  0  0  0
   -2.7457   30.2159   10.9951 H   0  0  0  0  0  0
    1.4531   27.4634    9.5969 H   0  0  0  0  0  0
    1.6566   25.2858   10.7528 H   0  0  0  0  0  0
   -0.6634   22.8829   13.8230 H   0  0  0  0  0  0
   -1.0179   24.5450   14.2982 H   0  0  0  0  0  0
   -1.9419   23.7689   12.9942 H   0  0  0  0  0  0
  1  2  1  0  0  0
  1 27  1  0  0  0
  1 28  1  0  0  0
  1 29  1  0  0  0
  2  3  1  0  0  0
  3  8  1  0  0  0
  3  4  2  0  0  0
  4  5  1  0  0  0
  4 30  1  0  0  0
  5  6  2  0  0  0
  5 31  1  0  0  0
  6  7  1  0  0  0
  6 32  1  0  0  0
  7  8  2  0  0  0
  7  9  1  0  0  0
  8 33  1  0  0  0
  9 10  1  0  0  0
  9 34  1  0  0  0
 10 15  1  0  0  0
 10 11  2  0  0  0
 11 12  1  0  0  0
 12 13  2  0  0  0
 12 35  1  0  0  0
 13 14  1  0  0  0
 13 36  1  0  0  0
 14 15  2  0  0  0
 14 16  1  0  0  0
 16 20  2  0  0  0
 16 17  1  0  0  0
 17 18  2  0  0  0
 17 37  1  0  0  0
 18 19  1  0  0  0
 19 24  1  0  0  0
 19 20  1  0  0  0
 20 21  1  0  0  0
 21 22  2  0  0  0
 21 38  1  0  0  0
 22 23  1  0  0  0
 22 39  1  0  0  0
 23 24  2  0  0  0
 23 25  1  0  0  0
 25 26  1  0  0  0
 26 40  1  0  0  0
 26 41  1  0  0  0
 26 42  1  0  0  0
M  END
> <s_m_entry_id>
34950

> <s_m_entry_name>
ligand_docking-pose.447

> <s_m_Source_Path>
/home/csk/Desktop/cluster/DUD-E-result/cdk2

> <s_m_Source_File>
ligand_docking-pose.sdf

> <i_m_Source_File_Index>
447

> <i_lp_mmshare_version>
53161

> <r_lp_tautomer_probability>
0.999999987636

> <s_lp_Force_Field>
OPLS_2005

> <r_lp_Energy>
20.212229

> <b_lp_Chiralities_Consistent>
1

> <s_lp_Variant>
313075-1

> <s_i_glide_gridfile>
glide-grid_1h00

> <i_i_glide_lignum>
1709

> <i_i_glide_rotatable_bonds>
5

> <r_i_docking_score>
-6.96106659608154

> <r_i_glide_ligand_efficiency>
-0.267733330618521

> <r_i_glide_ligand_efficiency_sa>
-0.793158938477582

> <r_i_glide_ligand_efficiency_ln>
-1.63478364896724

> <r_i_glide_gscore>
-6.96106659608154

> <r_i_glide_lipo>
-2.56013775638153

> <r_i_glide_hbond>
-0.227029981049293

> <r_i_glide_metal>
0

> <r_i_glide_rewards>
-2.29669330870389

> <r_i_glide_evdw>
-38.7601203918457

> <r_i_glide_ecoul>
-2.73187613487244

> <r_i_glide_erotb>
0.470581889876322

> <r_i_glide_esite>
0

> <r_i_glide_emodel>
-60.4008146999394

> <r_i_glide_energy>
-41.4919965267181

> <r_i_glide_einternal>
0.580923438072205

> <i_i_glide_confnum>
2

> <i_i_glide_posenum>
47

> <r_i_glide_eff_state_penalty>
0

> <i_f3d_flags>
0

> <s_user_duplicate_titles>
313075

> <s_m_subgroup_title>
dock_pv

> <s_m_subgroupid>
dock_pv1

> <b_m_subgroup_collapsed>
0

$$$$
316443
                    3D
 Schrodinger Suite 2021-1.
 44 47  0  0  1  0            999 V2000
   -1.8308   32.5346   10.1142 C   0  0  0  0  0  0
   -1.5855   31.5618    8.9492 C   0  0  0  0  0  0
   -0.8512   30.3038    9.3776 C   0  0  0  0  0  0
    0.4532   29.8363    9.0156 C   0  0  0  0  0  0
    0.6463   28.6580    9.7802 C   0  0  0  0  0  0
    1.7593   27.9030    9.7771 N   0  0  0  0  0  0
    2.7315   28.3814    8.9515 C   0  0  0  0  0  0
    2.6569   29.4938    8.1748 N   0  0  0  0  0  0
    1.5147   30.2186    8.1755 C   0  0  0  0  0  0
    1.3430   31.3118    7.3758 O   0  0  0  0  0  0
    4.0256   27.5575    8.8307 C   0  0  0  0  0  0
    4.4543   27.1931    7.3991 C   0  0  0  0  0  0
    4.7151   28.1982    6.4623 C   0  0  0  0  0  0
    4.8585   27.8775    5.1173 C   0  0  0  0  0  0
    4.8198   26.5510    4.7104 C   0  0  0  0  0  0
    4.6418   25.5308    5.6440 C   0  0  0  0  0  0
    4.4586   25.8520    6.9904 C   0  0  0  0  0  0
    4.9576   26.2732    3.3762 O   0  0  0  0  0  0
   -0.5266   28.4873   10.5026 N   0  0  0  0  0  0
   -1.4064   29.4752   10.2273 N   0  0  0  0  0  0
   -0.8755   27.4975   11.4444 C   0  0  0  0  0  0
   -1.0124   27.8424   12.8010 C   0  0  0  0  0  0
   -1.3827   26.8730   13.7335 C   0  0  0  0  0  0
   -1.6240   25.5631   13.3303 C   0  0  0  0  0  0
   -1.5125   25.2224   11.9854 C   0  0  0  0  0  0
   -1.1579   26.1818   11.0367 C   0  0  0  0  0  0
   -1.1413   25.7112    9.3756 Cl  0  0  0  0  0  0
   -2.0941   24.3760   14.4915 Cl  0  0  0  0  0  0
   -0.7423   29.4539   13.3659 Cl  0  0  0  0  0  0
   -2.3398   33.4369    9.7755 H   0  0  0  0  0  0
   -2.4488   32.0799   10.8925 H   0  0  0  0  0  0
   -0.8894   32.8436   10.5746 H   0  0  0  0  0  0
   -1.0262   32.0895    8.1762 H   0  0  0  0  0  0
   -2.5405   31.3039    8.4894 H   0  0  0  0  0  0
    2.1500   31.4421    6.8715 H   0  0  0  0  0  0
    4.8295   28.0828    9.3491 H   0  0  0  0  0  0
    3.8867   26.6256    9.3772 H   0  0  0  0  0  0
    4.7438   29.2367    6.7558 H   0  0  0  0  0  0
    5.0186   28.6631    4.3953 H   0  0  0  0  0  0
    4.6126   24.4974    5.3300 H   0  0  0  0  0  0
    4.2592   25.0627    7.6997 H   0  0  0  0  0  0
    4.8213   25.3541    3.1248 H   0  0  0  0  0  0
   -1.5023   27.1439   14.7714 H   0  0  0  0  0  0
   -1.7300   24.2144   11.6683 H   0  0  0  0  0  0
  1  2  1  0  0  0
  1 30  1  0  0  0
  1 31  1  0  0  0
  1 32  1  0  0  0
  2  3  1  0  0  0
  2 33  1  0  0  0
  2 34  1  0  0  0
  3 20  2  0  0  0
  3  4  1  0  0  0
  4  9  2  0  0  0
  4  5  1  0  0  0
  5  6  2  0  0  0
  5 19  1  0  0  0
  6  7  1  0  0  0
  7  8  2  0  0  0
  7 11  1  0  0  0
  8  9  1  0  0  0
  9 10  1  0  0  0
 10 35  1  0  0  0
 11 12  1  0  0  0
 11 36  1  0  0  0
 11 37  1  0  0  0
 12 17  1  0  0  0
 12 13  2  0  0  0
 13 14  1  0  0  0
 13 38  1  0  0  0
 14 15  2  0  0  0
 14 39  1  0  0  0
 15 16  1  0  0  0
 15 18  1  0  0  0
 16 17  2  0  0  0
 16 40  1  0  0  0
 17 41  1  0  0  0
 18 42  1  0  0  0
 19 20  1  0  0  0
 19 21  1  0  0  0
 21 26  1  0  0  0
 21 22  2  0  0  0
 22 23  1  0  0  0
 22 29  1  0  0  0
 23 24  2  0  0  0
 23 43  1  0  0  0
 24 25  1  0  0  0
 24 28  1  0  0  0
 25 26  2  0  0  0
 25 44  1  0  0  0
 26 27  1  0  0  0
M  END
> <s_m_entry_id>
34952

> <s_m_entry_name>
ligand_docking-pose.449

> <s_m_Source_Path>
/home/csk/Desktop/cluster/DUD-E-result/cdk2

> <s_m_Source_File>
ligand_docking-pose.sdf

> <i_m_Source_File_Index>
449

> <i_lp_mmshare_version>
53161

> <r_lp_tautomer_probability>
0.999999999997365

> <s_lp_Force_Field>
OPLS_2005

> <r_lp_Energy>
4.749172

> <b_lp_Chiralities_Consistent>
1

> <s_lp_Variant>
316443-1

> <s_i_glide_gridfile>
glide-grid_1h00

> <i_i_glide_lignum>
949

> <i_i_glide_rotatable_bonds>
6

> <r_i_docking_score>
-6.95868972446785

> <r_i_glide_ligand_efficiency>
-0.239954818085098

> <r_i_glide_ligand_efficiency_sa>
-0.737217224179758

> <r_i_glide_ligand_efficiency_ln>
-1.59336348975687

> <r_i_glide_gscore>
-6.95868972446785

> <r_i_glide_lipo>
-3.18280725968522

> <r_i_glide_hbond>
0

> <r_i_glide_metal>
0

> <r_i_glide_rewards>
-1.41027741156232

> <r_i_glide_evdw>
-47.7207984924316

> <r_i_glide_ecoul>
-1.84583282470703

> <r_i_glide_erotb>
0.297309795107324

> <r_i_glide_esite>
0

> <r_i_glide_emodel>
-68.1047942738373

> <r_i_glide_energy>
-49.5666313171387

> <r_i_glide_einternal>
3.16345691680908

> <i_i_glide_confnum>
5

> <i_i_glide_posenum>
260

> <r_i_glide_eff_state_penalty>
0

> <i_f3d_flags>
0

> <s_user_duplicate_titles>
316443

> <s_m_subgroup_title>
dock_pv

> <s_m_subgroupid>
dock_pv1

> <b_m_subgroup_collapsed>
0

$$$$
67827
                    3D
 Schrodinger Suite 2021-1.
 41 43  0  0  1  0            999 V2000
   -2.9887   30.1284   10.2547 C   0  0  0  0  0  0
   -1.8540   29.2165   10.6562 C   0  0  0  0  0  0
   -0.5512   29.1824   10.1521 C   0  0  0  0  0  0
    0.2974   27.8857   10.9777 S   0  0  0  0  0  0
   -1.1325   27.5473   11.8989 C   0  0  0  0  0  0
   -2.1399   28.3235   11.5884 N   0  0  0  0  0  0
   -1.1749   26.5125   12.8209 N   0  0  0  0  0  0
    0.0335   25.9580   13.4269 C   0  0  0  0  0  0
   -2.3770   26.2790   13.6215 C   0  0  0  0  0  0
    0.1291   30.0192    9.1117 C   0  0  0  0  0  0
   -0.3450   31.2660    8.6748 C   0  0  0  0  0  0
    0.4580   31.9762    7.7761 C   0  0  0  0  0  0
    1.6286   31.4872    7.3027 N   0  0  0  0  0  0
    2.0089   30.2787    7.7840 C   0  0  0  0  0  0
    1.3113   29.5281    8.6645 N   0  0  0  0  0  0
    3.2594   29.8471    7.3706 N   0  0  0  0  0  0
    3.8172   28.5687    7.3084 C   0  0  0  0  0  0
    3.7253   27.6450    8.3514 C   0  0  0  0  0  0
    4.2192   26.3538    8.1760 C   0  0  0  0  0  0
    4.8582   25.9982    6.9894 C   0  0  0  0  0  0
    4.9910   26.9248    5.9449 C   0  0  0  0  0  0
    4.4625   28.2117    6.1244 C   0  0  0  0  0  0
    5.6557   26.5519    4.6724 N   0  3  0  0  0  0
    5.5866   27.3326    3.7252 O   0  5  0  0  0  0
    6.2378   25.4726    4.6147 O   0  0  0  0  0  0
   -2.8817   31.1183   10.6989 H   0  0  0  0  0  0
   -3.0541   30.2516    9.1740 H   0  0  0  0  0  0
   -3.9483   29.7443   10.5792 H   0  0  0  0  0  0
    0.7671   25.6405   12.6821 H   0  0  0  0  0  0
   -0.2039   25.0524   13.9867 H   0  0  0  0  0  0
    0.4577   26.6452   14.1608 H   0  0  0  0  0  0
   -3.2609   26.1675   12.9918 H   0  0  0  0  0  0
   -2.3035   25.3395   14.1677 H   0  0  0  0  0  0
   -2.5024   27.0509   14.3829 H   0  0  0  0  0  0
   -1.2569   31.6998    9.0490 H   0  0  0  0  0  0
    0.1773   32.9638    7.4379 H   0  0  0  0  0  0
    3.7600   30.5354    6.8065 H   0  0  0  0  0  0
    3.2421   27.9053    9.2818 H   0  0  0  0  0  0
    4.0884   25.6290    8.9668 H   0  0  0  0  0  0
    5.2343   24.9909    6.8783 H   0  0  0  0  0  0
    4.5382   28.9397    5.3289 H   0  0  0  0  0  0
  1  2  1  0  0  0
  1 26  1  0  0  0
  1 27  1  0  0  0
  1 28  1  0  0  0
  2  6  1  0  0  0
  2  3  2  0  0  0
  3  4  1  0  0  0
  3 10  1  0  0  0
  4  5  1  0  0  0
  5  6  2  0  0  0
  5  7  1  0  0  0
  7  8  1  0  0  0
  7  9  1  0  0  0
  8 29  1  0  0  0
  8 30  1  0  0  0
  8 31  1  0  0  0
  9 32  1  0  0  0
  9 33  1  0  0  0
  9 34  1  0  0  0
 10 15  1  0  0  0
 10 11  2  0  0  0
 11 12  1  0  0  0
 11 35  1  0  0  0
 12 13  2  0  0  0
 12 36  1  0  0  0
 13 14  1  0  0  0
 14 15  2  0  0  0
 14 16  1  0  0  0
 16 17  1  0  0  0
 16 37  1  0  0  0
 17 22  1  0  0  0
 17 18  2  0  0  0
 18 19  1  0  0  0
 18 38  1  0  0  0
 19 20  2  0  0  0
 19 39  1  0  0  0
 20 21  1  0  0  0
 20 40  1  0  0  0
 21 22  2  0  0  0
 21 23  1  0  0  0
 22 41  1  0  0  0
 23 24  1  0  0  0
 23 25  2  0  0  0
M  CHG  2  23   1  24  -1
M  END
> <s_m_entry_id>
34956

> <s_m_entry_name>
ligand_docking-pose.453

> <s_m_Source_Path>
/home/csk/Desktop/cluster/DUD-E-result/cdk2

> <s_m_Source_File>
ligand_docking-pose.sdf

> <i_m_Source_File_Index>
453

> <i_lp_mmshare_version>
53161

> <r_lp_tautomer_probability>
0.999999987636

> <s_lp_Force_Field>
OPLS_2005

> <r_lp_Energy>
3.524194

> <b_lp_Chiralities_Consistent>
1

> <s_lp_Variant>
67827-1

> <s_i_glide_gridfile>
glide-grid_1h00

> <i_i_glide_lignum>
847

> <i_i_glide_rotatable_bonds>
5

> <r_i_docking_score>
-6.94063895997656

> <r_i_glide_ligand_efficiency>
-0.277625558399062

> <r_i_glide_ligand_efficiency_sa>
-0.811782056469101

> <r_i_glide_ligand_efficiency_ln>
-1.64513942767998

> <r_i_glide_gscore>
-6.94063895997656

> <r_i_glide_lipo>
-2.14944476106022

> <r_i_glide_hbond>
-0.32

> <r_i_glide_metal>
0

> <r_i_glide_rewards>
-2.27124628200844

> <r_i_glide_evdw>
-35.9806365966797

> <r_i_glide_ecoul>
-5.68123388290405

> <r_i_glide_erotb>
0.451852798935666

> <r_i_glide_esite>
-0.000583803573972447

> <r_i_glide_emodel>
-58.3344047277961

> <r_i_glide_energy>
-41.6618704795837

> <r_i_glide_einternal>
1.89473271369934

> <i_i_glide_confnum>
1

> <i_i_glide_posenum>
6

> <r_i_glide_eff_state_penalty>
0

> <i_f3d_flags>
0

> <s_user_duplicate_titles>
67827

> <s_m_subgroup_title>
dock_pv

> <s_m_subgroupid>
dock_pv1

> <b_m_subgroup_collapsed>
0

$$$$
625406
                    3D
 Schrodinger Suite 2021-1.
 44 47  0  0  1  0            999 V2000
    2.3305   25.4282   10.3549 C   0  0  0  0  0  0
    1.3073   26.1745   11.0729 N   0  0  0  0  0  0
    0.8522   27.4444   10.8176 C   0  0  0  0  0  0
   -0.1337   27.6752   11.7663 C   0  0  0  0  0  0
   -0.2180   26.4824   12.5208 C   0  0  0  0  0  0
    0.6549   25.5925   12.0917 N   0  0  0  0  0  0
   -1.0826   26.2576   13.6440 C   0  0  0  0  0  0
   -0.6802   25.8460   14.7291 O   0  0  0  0  0  0
   -2.3670   26.5233   13.4119 N   0  0  0  0  0  0
   -0.8547   29.0239   11.7911 C   0  0  0  0  0  0
   -1.0074   29.5426   10.3334 C   0  0  0  0  0  0
    0.3031   29.4644    9.5360 C   0  0  0  0  0  0
    1.2306   28.4342    9.7742 C   0  0  0  0  0  0
    2.3866   28.3048    9.0653 N   0  0  0  0  0  0
    2.6085   29.2253    8.0868 C   0  0  0  0  0  0
    1.7787   30.2520    7.7786 N   0  0  0  0  0  0
    0.6402   30.3543    8.5113 C   0  0  0  0  0  0
    3.6770   29.0514    7.2015 N   0  0  0  0  0  0
    4.5567   27.9671    7.0418 C   0  0  0  0  0  0
    5.2351   27.4392    8.1470 C   0  0  0  0  0  0
    6.1099   26.3654    7.9902 C   0  0  0  0  0  0
    6.3166   25.8124    6.7324 C   0  0  0  0  0  0
    5.6494   26.3317    5.6252 C   0  0  0  0  0  0
    4.7632   27.4162    5.7633 C   0  0  0  0  0  0
    4.0583   27.9508    4.6957 O   0  0  0  0  0  0
    4.1720   27.3482    3.4081 C   0  0  0  0  0  0
    2.0111   25.2758    9.3234 H   0  0  0  0  0  0
    3.2570   26.0014   10.3625 H   0  0  0  0  0  0
    2.5108   24.4592   10.8243 H   0  0  0  0  0  0
   -3.0340   26.4819   14.1678 H   0  0  0  0  0  0
   -2.6551   26.8710   12.5109 H   0  0  0  0  0  0
   -1.8352   28.9512   12.2616 H   0  0  0  0  0  0
   -0.2929   29.7465   12.3859 H   0  0  0  0  0  0
   -1.3898   30.5643   10.3418 H   0  0  0  0  0  0
   -1.7621   28.9449    9.8211 H   0  0  0  0  0  0
   -0.0118   31.1760    8.2578 H   0  0  0  0  0  0
    3.7658   29.7774    6.5028 H   0  0  0  0  0  0
    5.0843   27.8537    9.1336 H   0  0  0  0  0  0
    6.6224   25.9627    8.8510 H   0  0  0  0  0  0
    6.9924   24.9805    6.6123 H   0  0  0  0  0  0
    5.8328   25.8785    4.6632 H   0  0  0  0  0  0
    3.5060   27.8517    2.7063 H   0  0  0  0  0  0
    5.1860   27.4361    3.0206 H   0  0  0  0  0  0
    3.8824   26.2981    3.4281 H   0  0  0  0  0  0
  1  2  1  0  0  0
  1 27  1  0  0  0
  1 28  1  0  0  0
  1 29  1  0  0  0
  2  6  1  0  0  0
  2  3  1  0  0  0
  3 13  1  0  0  0
  3  4  2  0  0  0
  4  5  1  0  0  0
  4 10  1  0  0  0
  5  6  2  0  0  0
  5  7  1  0  0  0
  7  8  2  0  0  0
  7  9  1  0  0  0
  9 30  1  0  0  0
  9 31  1  0  0  0
 10 11  1  0  0  0
 10 32  1  0  0  0
 10 33  1  0  0  0
 11 12  1  0  0  0
 11 34  1  0  0  0
 11 35  1  0  0  0
 12 17  2  0  0  0
 12 13  1  0  0  0
 13 14  2  0  0  0
 14 15  1  0  0  0
 15 16  2  0  0  0
 15 18  1  0  0  0
 16 17  1  0  0  0
 17 36  1  0  0  0
 18 19  1  0  0  0
 18 37  1  0  0  0
 19 24  1  0  0  0
 19 20  2  0  0  0
 20 21  1  0  0  0
 20 38  1  0  0  0
 21 22  2  0  0  0
 21 39  1  0  0  0
 22 23  1  0  0  0
 22 40  1  0  0  0
 23 24  2  0  0  0
 23 41  1  0  0  0
 24 25  1  0  0  0
 25 26  1  0  0  0
 26 42  1  0  0  0
 26 43  1  0  0  0
 26 44  1  0  0  0
M  END
> <s_m_entry_id>
34958

> <s_m_entry_name>
ligand_docking-pose.455

> <s_m_Source_Path>
/home/csk/Desktop/cluster/DUD-E-result/cdk2

> <s_m_Source_File>
ligand_docking-pose.sdf

> <i_m_Source_File_Index>
455

> <i_lp_mmshare_version>
53161

> <r_lp_tautomer_probability>
0.999999987636

> <s_lp_Force_Field>
OPLS_2005

> <r_lp_Energy>
16.909647

> <b_lp_Chiralities_Consistent>
1

> <s_lp_Variant>
625406-1

> <s_i_glide_gridfile>
glide-grid_1h00

> <i_i_glide_lignum>
1429

> <i_i_glide_rotatable_bonds>
4

> <r_i_docking_score>
-6.94042468885883

> <r_i_glide_ligand_efficiency>
-0.266939411109955

> <r_i_glide_ligand_efficiency_sa>
-0.790806955057379

> <r_i_glide_ligand_efficiency_ln>
-1.62993596478761

> <r_i_glide_gscore>
-6.94042468885883

> <r_i_glide_lipo>
-1.96171900654667

> <r_i_glide_hbond>
-0.281916564700588

> <r_i_glide_metal>
0

> <r_i_glide_rewards>
-2.28934168648668

> <r_i_glide_evdw>
-40.8370094299316

> <r_i_glide_ecoul>
-4.1175012588501

> <r_i_glide_erotb>
0.310520124743669

> <r_i_glide_esite>
-0.0584918955444607

> <r_i_glide_emodel>
-63.1035181534872

> <r_i_glide_energy>
-44.9545106887817

> <r_i_glide_einternal>
3.0811505317688

> <i_i_glide_confnum>
14

> <i_i_glide_posenum>
280

> <r_i_glide_eff_state_penalty>
0

> <i_f3d_flags>
0

> <s_user_duplicate_titles>
625406

> <s_m_subgroup_title>
dock_pv

> <s_m_subgroupid>
dock_pv1

> <b_m_subgroup_collapsed>
0

$$$$
301003
                    3D
 Schrodinger Suite 2021-1.
 43 46  0  0  1  0            999 V2000
    4.5902   24.2388    4.8874 C   0  0  0  0  0  0
    5.6941   25.1779    5.1849 N   0  0  0  0  0  0
    5.6119   26.4740    4.4755 C   0  0  0  0  0  0
    6.2652   25.2295    6.8685 S   0  0  0  0  0  0
    7.4343   26.1122    6.9362 O   0  0  0  0  0  0
    6.3508   23.8503    7.3644 O   0  0  0  0  0  0
    4.9440   26.0241    7.7768 C   0  0  0  0  0  0
    4.9835   27.3965    8.0315 C   0  0  0  0  0  0
    3.9552   27.9941    8.7576 C   0  0  0  0  0  0
    2.8708   27.2334    9.2059 C   0  0  0  0  0  0
    2.8584   25.8489    8.9778 C   0  0  0  0  0  0
    3.8861   25.2499    8.2554 C   0  0  0  0  0  0
    1.7331   27.8507    9.7791 N   0  0  0  0  0  0
    1.0448   29.0094    9.4482 C   0  0  0  0  0  0
   -0.0454   29.1156   10.3399 C   0  0  0  0  0  0
   -0.9246   30.2132   10.2168 C   0  0  0  0  0  0
   -0.7422   31.1972    9.2367 C   0  0  0  0  0  0
    0.3475   31.0718    8.3716 C   0  0  0  0  0  0
    1.2388   29.9880    8.4380 C   0  0  0  0  0  0
    2.1651   30.1985    7.3735 C   0  0  0  0  0  0
    1.9178   31.3281    6.7662 N   0  0  0  0  0  0
    0.8579   31.8808    7.3762 N   0  0  0  0  0  0
    0.0772   27.9629   11.2040 C   0  0  0  0  0  0
    1.1280   27.2645   10.8343 N   0  0  0  0  0  0
   -0.7365   27.5458   12.3252 C   0  0  0  0  0  0
   -0.3506   26.7465   13.1774 O   0  0  0  0  0  0
   -1.9419   28.1066   12.3745 N   0  0  0  0  0  0
    0.4984   32.7732    7.0670 H   0  0  0  0  0  0
    4.5021   24.0948    3.8100 H   0  0  0  0  0  0
    4.7889   23.2746    5.3550 H   0  0  0  0  0  0
    3.6582   24.6297    5.2917 H   0  0  0  0  0  0
    5.5201   26.3039    3.4015 H   0  0  0  0  0  0
    4.7580   27.0469    4.8366 H   0  0  0  0  0  0
    6.5165   27.0513    4.6585 H   0  0  0  0  0  0
    5.8065   27.9973    7.6764 H   0  0  0  0  0  0
    4.0046   29.0521    8.9694 H   0  0  0  0  0  0
    2.0299   25.2434    9.3107 H   0  0  0  0  0  0
    3.8477   24.1870    8.0660 H   0  0  0  0  0  0
   -1.7541   30.3339   10.8988 H   0  0  0  0  0  0
   -1.4116   32.0433    9.1763 H   0  0  0  0  0  0
    2.9852   29.5873    7.0323 H   0  0  0  0  0  0
   -2.2449   28.7173   11.6347 H   0  0  0  0  0  0
   -2.5386   27.9845   13.1850 H   0  0  0  0  0  0
  1  2  1  0  0  0
  1 29  1  0  0  0
  1 30  1  0  0  0
  1 31  1  0  0  0
  2  3  1  0  0  0
  2  4  1  0  0  0
  3 32  1  0  0  0
  3 33  1  0  0  0
  3 34  1  0  0  0
  4  5  2  0  0  0
  4  6  2  0  0  0
  4  7  1  0  0  0
  7 12  1  0  0  0
  7  8  2  0  0  0
  8  9  1  0  0  0
  8 35  1  0  0  0
  9 10  2  0  0  0
  9 36  1  0  0  0
 10 11  1  0  0  0
 10 13  1  0  0  0
 11 12  2  0  0  0
 11 37  1  0  0  0
 12 38  1  0  0  0
 13 24  1  0  0  0
 13 14  1  0  0  0
 14 19  2  0  0  0
 14 15  1  0  0  0
 15 16  2  0  0  0
 15 23  1  0  0  0
 16 17  1  0  0  0
 16 39  1  0  0  0
 17 18  2  0  0  0
 17 40  1  0  0  0
 18 22  1  0  0  0
 18 19  1  0  0  0
 19 20  1  0  0  0
 20 21  2  0  0  0
 20 41  1  0  0  0
 21 22  1  0  0  0
 22 28  1  0  0  0
 23 24  2  0  0  0
 23 25  1  0  0  0
 25 26  2  0  0  0
 25 27  1  0  0  0
 27 42  1  0  0  0
 27 43  1  0  0  0
M  END
> <s_m_entry_id>
34959

> <s_m_entry_name>
ligand_docking-pose.456

> <s_m_Source_Path>
/home/csk/Desktop/cluster/DUD-E-result/cdk2

> <s_m_Source_File>
ligand_docking-pose.sdf

> <i_m_Source_File_Index>
456

> <i_lp_mmshare_version>
53161

> <r_lp_tautomer_probability>
1

> <s_lp_Force_Field>
OPLS_2005

> <r_lp_Energy>
58.051163

> <b_lp_Chiralities_Consistent>
1

> <s_lp_Variant>
301003-1

> <s_i_glide_gridfile>
glide-grid_1h00

> <i_i_glide_lignum>
1558

> <i_i_glide_rotatable_bonds>
4

> <r_i_docking_score>
-6.9375422212947

> <r_i_glide_ligand_efficiency>
-0.2569460081961

> <r_i_glide_ligand_efficiency_sa>
-0.770838023741448

> <r_i_glide_ligand_efficiency_ln>
-1.61494545479505

> <r_i_glide_gscore>
-6.9375422212947

> <r_i_glide_lipo>
-2.10185982433644

> <r_i_glide_hbond>
-0.179433862587385

> <r_i_glide_metal>
0

> <r_i_glide_rewards>
-2.2759325157119

> <r_i_glide_evdw>
-37.0883903503418

> <r_i_glide_ecoul>
-4.98267555236816

> <r_i_glide_erotb>
0.263136767525409

> <r_i_glide_esite>
-0.0416319358120772

> <r_i_glide_emodel>
-59.5842111342007

> <r_i_glide_energy>
-42.07106590271

> <r_i_glide_einternal>
3.00919342041016

> <i_i_glide_confnum>
7

> <i_i_glide_posenum>
61

> <r_i_glide_eff_state_penalty>
0

> <i_f3d_flags>
0

> <s_user_duplicate_titles>
301003

> <s_m_subgroup_title>
dock_pv

> <s_m_subgroupid>
dock_pv1

> <b_m_subgroup_collapsed>
0

$$$$
67713
                    3D
 Schrodinger Suite 2021-1.
 34 36  0  0  1  0            999 V2000
   -3.1517   30.5989   10.1148 C   0  0  0  0  0  0
   -2.1254   29.5551   10.5029 C   0  0  0  0  0  0
   -0.8126   29.4110   10.0445 C   0  0  0  0  0  0
   -0.1292   28.0015   10.8383 S   0  0  0  0  0  0
   -1.6173   27.7679   11.6827 C   0  0  0  0  0  0
   -2.5292   28.6520   11.3761 N   0  0  0  0  0  0
   -1.8562   26.6509   12.6710 C   0  0  0  0  0  0
   -0.0198   30.2211    9.0659 C   0  0  0  0  0  0
   -0.3978   31.5031    8.6484 C   0  0  0  0  0  0
    0.4596   32.1680    7.7760 C   0  0  0  0  0  0
    1.6028   31.6030    7.3044 N   0  0  0  0  0  0
    1.9082   30.3665    7.7760 C   0  0  0  0  0  0
    1.1388   29.6593    8.6353 N   0  0  0  0  0  0
    3.1442   29.8520    7.3760 N   0  0  0  0  0  0
    3.7618   28.6056    7.5160 C   0  0  0  0  0  0
    4.6623   28.2333    6.5170 C   0  0  0  0  0  0
    5.2579   26.9758    6.5437 C   0  0  0  0  0  0
    4.9421   26.0881    7.5675 C   0  0  0  0  0  0
    4.0579   26.4621    8.5757 C   0  0  0  0  0  0
    3.4961   27.7339    8.5760 C   0  0  0  0  0  0
    5.5018   24.8574    7.5865 F   0  0  0  0  0  0
   -3.2173   30.7243    9.0340 H   0  0  0  0  0  0
   -4.1562   30.3621   10.4589 H   0  0  0  0  0  0
   -2.9129   31.5692   10.5507 H   0  0  0  0  0  0
   -2.7419   26.8277   13.2834 H   0  0  0  0  0  0
   -1.0158   26.5344   13.3560 H   0  0  0  0  0  0
   -2.0008   25.6952   12.1661 H   0  0  0  0  0  0
   -1.2886   31.9939    9.0011 H   0  0  0  0  0  0
    0.2328   33.1656    7.4263 H   0  0  0  0  0  0
    3.6779   30.5004    6.7994 H   0  0  0  0  0  0
    4.8919   28.9099    5.7059 H   0  0  0  0  0  0
    5.9528   26.6880    5.7684 H   0  0  0  0  0  0
    3.8232   25.7708    9.3706 H   0  0  0  0  0  0
    2.8364   28.0072    9.3838 H   0  0  0  0  0  0
  1  2  1  0  0  0
  1 22  1  0  0  0
  1 23  1  0  0  0
  1 24  1  0  0  0
  2  6  1  0  0  0
  2  3  2  0  0  0
  3  4  1  0  0  0
  3  8  1  0  0  0
  4  5  1  0  0  0
  5  6  2  0  0  0
  5  7  1  0  0  0
  7 25  1  0  0  0
  7 26  1  0  0  0
  7 27  1  0  0  0
  8 13  1  0  0  0
  8  9  2  0  0  0
  9 10  1  0  0  0
  9 28  1  0  0  0
 10 11  2  0  0  0
 10 29  1  0  0  0
 11 12  1  0  0  0
 12 13  2  0  0  0
 12 14  1  0  0  0
 14 15  1  0  0  0
 14 30  1  0  0  0
 15 20  1  0  0  0
 15 16  2  0  0  0
 16 17  1  0  0  0
 16 31  1  0  0  0
 17 18  2  0  0  0
 17 32  1  0  0  0
 18 19  1  0  0  0
 18 21  1  0  0  0
 19 20  2  0  0  0
 19 33  1  0  0  0
 20 34  1  0  0  0
M  END
> <s_m_entry_id>
34961

> <s_m_entry_name>
ligand_docking-pose.458

> <s_m_Source_Path>
/home/csk/Desktop/cluster/DUD-E-result/cdk2

> <s_m_Source_File>
ligand_docking-pose.sdf

> <i_m_Source_File_Index>
458

> <i_lp_mmshare_version>
53161

> <r_lp_tautomer_probability>
0.999999987636

> <s_lp_Force_Field>
OPLS_2005

> <r_lp_Energy>
4.554676

> <b_lp_Chiralities_Consistent>
1

> <s_lp_Variant>
67713-1

> <s_i_glide_gridfile>
glide-grid_1h00

> <i_i_glide_lignum>
824

> <i_i_glide_rotatable_bonds>
3

> <r_i_docking_score>
-6.93674351077916

> <r_i_glide_ligand_efficiency>
-0.330321119560912

> <r_i_glide_ligand_efficiency_sa>
-0.911330921801024

> <r_i_glide_ligand_efficiency_ln>
-1.71509581603006

> <r_i_glide_gscore>
-6.93674351077916

> <r_i_glide_lipo>
-2.04919455558322

> <r_i_glide_hbond>
-0.32

> <r_i_glide_metal>
0

> <r_i_glide_rewards>
-2.78052854930411

> <r_i_glide_evdw>
-29.3054580688477

> <r_i_glide_ecoul>
-6.21987581253052

> <r_i_glide_erotb>
0.611233869430136

> <r_i_glide_esite>
0

> <r_i_glide_emodel>
-51.4251435873737

> <r_i_glide_energy>
-35.5253338813782

> <r_i_glide_einternal>
0.214079558849335

> <i_i_glide_confnum>
4

> <i_i_glide_posenum>
204

> <r_i_glide_eff_state_penalty>
0

> <i_f3d_flags>
0

> <s_user_duplicate_titles>
67713

> <s_m_subgroup_title>
dock_pv

> <s_m_subgroupid>
dock_pv1

> <b_m_subgroup_collapsed>
0

$$$$
247578
                    3D
 Schrodinger Suite 2021-1.
 56 60  0  0  1  0            999 V2000
   -0.3475   20.1873   11.0338 C   0  0  0  0  0  0
   -0.3382   21.6061   11.3754 N   0  0  0  0  0  0
    1.0376   22.0367   11.6313 C   0  0  0  0  0  0
    1.1326   23.5526   11.9246 C   0  0  0  0  0  0
    0.0284   24.0926   12.7320 N   0  0  0  0  0  0
   -1.2457   23.3715   12.8351 C   0  0  0  0  0  0
   -1.1354   21.8526   12.5753 C   0  0  0  0  0  0
   -0.0528   25.4993   12.8366 N   0  0  0  0  0  0
   -0.4018   26.2783   11.7946 C   0  0  0  0  0  0
   -0.6615   25.8694   10.6562 O   0  0  0  0  0  0
   -0.4532   27.5698   12.1647 N   0  0  0  0  0  0
   -0.5929   28.6419   11.2789 C   0  0  0  0  0  0
   -1.6741   29.4906   11.5209 C   0  0  0  0  0  0
   -1.9419   30.5726   10.6797 C   0  0  0  0  0  0
   -1.1109   30.8397    9.5983 C   0  0  0  0  0  0
   -0.0013   30.0265    9.3869 C   0  0  0  0  0  0
    0.2805   28.9327   10.2118 C   0  0  0  0  0  0
    1.5570   28.2750    9.7760 C   0  0  0  0  0  0
    2.1192   27.3016   10.2745 O   0  0  0  0  0  0
    1.9781   29.0563    8.6254 C   0  0  0  0  0  0
    1.0629   30.0749    8.4031 C   0  0  0  0  0  0
    1.3587   30.8291    7.3759 N   0  0  0  0  0  0
    2.4580   30.2519    6.8914 N   0  0  0  0  0  0
    2.9082   29.1661    7.6043 C   0  0  0  0  0  0
    4.0469   28.2906    7.2040 C   0  0  0  0  0  0
    4.7602   27.5783    8.1680 C   0  0  0  0  0  0
    5.7222   26.6530    7.7759 C   0  0  0  0  0  0
    5.9807   26.4234    6.4261 C   0  0  0  0  0  0
    5.2579   27.1383    5.4598 C   0  0  0  0  0  0
    4.3123   28.0815    5.8471 C   0  0  0  0  0  0
    6.9562   25.4900    6.1382 O   0  0  0  0  0  0
    7.3287   25.2757    4.7814 C   0  0  0  0  0  0
    2.9744   30.6512    6.1164 H   0  0  0  0  0  0
    0.2367   20.0008   10.1310 H   0  0  0  0  0  0
   -1.3658   19.8512   10.8312 H   0  0  0  0  0  0
    0.0579   19.5683   11.8379 H   0  0  0  0  0  0
    1.4649   21.4720   12.4630 H   0  0  0  0  0  0
    1.6500   21.8093   10.7575 H   0  0  0  0  0  0
    1.1805   24.0858   10.9718 H   0  0  0  0  0  0
    2.0720   23.7672   12.4393 H   0  0  0  0  0  0
   -1.9420   23.8096   12.1195 H   0  0  0  0  0  0
   -1.6680   23.5446   13.8270 H   0  0  0  0  0  0
   -2.1316   21.4289   12.4511 H   0  0  0  0  0  0
   -0.6974   21.3499   13.4413 H   0  0  0  0  0  0
    0.5420   25.8696   13.5663 H   0  0  0  0  0  0
   -0.7837   27.7367   13.1032 H   0  0  0  0  0  0
   -2.3423   29.3032   12.3488 H   0  0  0  0  0  0
   -2.7964   31.2037   10.8787 H   0  0  0  0  0  0
   -1.3174   31.6813    8.9532 H   0  0  0  0  0  0
    4.5539   27.7151    9.2203 H   0  0  0  0  0  0
    6.2625   26.1027    8.5310 H   0  0  0  0  0  0
    5.4284   26.9848    4.4054 H   0  0  0  0  0  0
    3.7581   28.6115    5.0865 H   0  0  0  0  0  0
    8.1234   24.5313    4.7389 H   0  0  0  0  0  0
    6.4941   24.8991    4.1912 H   0  0  0  0  0  0
    7.7089   26.1908    4.3236 H   0  0  0  0  0  0
  1  2  1  0  0  0
  1 34  1  0  0  0
  1 35  1  0  0  0
  1 36  1  0  0  0
  2  7  1  0  0  0
  2  3  1  0  0  0
  3  4  1  0  0  0
  3 37  1  0  0  0
  3 38  1  0  0  0
  4  5  1  0  0  0
  4 39  1  0  0  0
  4 40  1  0  0  0
  5  6  1  0  0  0
  5  8  1  0  0  0
  6  7  1  0  0  0
  6 41  1  0  0  0
  6 42  1  0  0  0
  7 43  1  0  0  0
  7 44  1  0  0  0
  8  9  1  0  0  0
  8 45  1  0  0  0
  9 10  2  0  0  0
  9 11  1  0  0  0
 11 12  1  0  0  0
 11 46  1  0  0  0
 12 17  1  0  0  0
 12 13  2  0  0  0
 13 14  1  0  0  0
 13 47  1  0  0  0
 14 15  2  0  0  0
 14 48  1  0  0  0
 15 16  1  0  0  0
 15 49  1  0  0  0
 16 21  1  0  0  0
 16 17  2  0  0  0
 17 18  1  0  0  0
 18 19  2  0  0  0
 18 20  1  0  0  0
 20 24  2  0  0  0
 20 21  1  0  0  0
 21 22  2  0  0  0
 22 23  1  0  0  0
 23 33  1  0  0  0
 23 24  1  0  0  0
 24 25  1  0  0  0
 25 30  1  0  0  0
 25 26  2  0  0  0
 26 27  1  0  0  0
 26 50  1  0  0  0
 27 28  2  0  0  0
 27 51  1  0  0  0
 28 29  1  0  0  0
 28 31  1  0  0  0
 29 30  2  0  0  0
 29 52  1  0  0  0
 30 53  1  0  0  0
 31 32  1  0  0  0
 32 54  1  0  0  0
 32 55  1  0  0  0
 32 56  1  0  0  0
M  END
> <s_m_entry_id>
34963

> <s_m_entry_name>
ligand_docking-pose.460

> <s_m_Source_Path>
/home/csk/Desktop/cluster/DUD-E-result/cdk2

> <s_m_Source_File>
ligand_docking-pose.sdf

> <i_m_Source_File_Index>
460

> <i_lp_mmshare_version>
53161

> <r_lp_tautomer_probability>
1

> <s_lp_Force_Field>
OPLS_2005

> <r_lp_Energy>
70.344378

> <b_lp_Chiralities_Consistent>
1

> <s_lp_Variant>
247578-1

> <s_i_glide_gridfile>
glide-grid_1h00

> <i_i_glide_lignum>
1506

> <i_i_glide_rotatable_bonds>
6

> <r_i_docking_score>
-6.93125350961413

> <r_i_glide_ligand_efficiency>
-0.216601672175442

> <r_i_glide_ligand_efficiency_sa>
-0.68766744374431

> <r_i_glide_ligand_efficiency_ln>
-1.5520965996374

> <r_i_glide_gscore>
-6.93125350961413

> <r_i_glide_lipo>
-2.49432536320059

> <r_i_glide_hbond>
-0.481689984034102

> <r_i_glide_metal>
0

> <r_i_glide_rewards>
-1.18633693268057

> <r_i_glide_evdw>
-44.2591590881348

> <r_i_glide_ecoul>
-7.2517466545105

> <r_i_glide_erotb>
0.531956046822419

> <r_i_glide_esite>
-0.000137323937980008

> <r_i_glide_emodel>
-65.4842570903027

> <r_i_glide_energy>
-51.5109057426453

> <r_i_glide_einternal>
13.6750574111938

> <i_i_glide_confnum>
4

> <i_i_glide_posenum>
70

> <r_i_glide_eff_state_penalty>
0

> <i_f3d_flags>
0

> <s_user_duplicate_titles>
247578

> <s_m_subgroup_title>
dock_pv

> <s_m_subgroupid>
dock_pv1

> <b_m_subgroup_collapsed>
0

$$$$
317507
                    3D
 Schrodinger Suite 2021-1.
 39 41  0  0  1  0            999 V2000
   -0.2805   25.8868   12.3010 C   0  0  0  0  0  0
   -0.5375   25.8932   10.9338 C   0  0  0  0  0  0
   -0.8526   27.0873   10.2897 C   0  0  0  0  0  0
   -0.8937   28.2950   10.9967 C   0  0  0  0  0  0
   -0.6408   28.2815   12.3741 C   0  0  0  0  0  0
   -0.3420   27.0778   13.0199 C   0  0  0  0  0  0
   -0.7048   29.4256   13.0938 F   0  0  0  0  0  0
   -1.2771   29.5783   10.3054 C   0  0  0  0  0  0
   -2.3724   30.0875   10.5429 O   0  0  0  0  0  0
   -0.3812   30.1661    9.3499 N   0  0  0  0  0  0
   -0.4908   31.3855    8.7095 C   0  0  0  0  0  0
    0.4580   31.5260    7.8198 N   0  0  0  0  0  0
    1.1445   30.4045    7.9332 C   0  0  0  0  0  0
    0.7144   29.5643    8.8595 N   0  0  0  0  0  0
    2.1981   30.1674    7.0775 N   0  0  0  0  0  0
    3.1752   29.1596    7.1518 C   0  0  0  0  0  0
    3.6294   28.6843    8.3766 C   0  0  0  0  0  0
    4.6476   27.7491    8.4193 C   0  0  0  0  0  0
    5.1810   27.2195    7.2485 C   0  0  0  0  0  0
    4.7129   27.6664    6.0147 C   0  0  0  0  0  0
    3.7313   28.6520    5.9735 C   0  0  0  0  0  0
    6.4580   25.9706    7.3469 S   0  0  0  0  0  0
    7.2580   26.2520    8.5438 O   0  0  0  0  0  0
    5.8116   24.6690    7.1583 O   0  0  0  0  0  0
    7.4804   26.2520    5.9636 N   0  0  0  0  0  0
   -1.4428   32.3318    8.9760 N   0  0  0  0  0  0
   -1.1420   27.0520    8.9760 F   0  0  0  0  0  0
   -0.0408   24.9617   12.8036 H   0  0  0  0  0  0
   -0.5046   24.9738   10.3695 H   0  0  0  0  0  0
   -0.1502   27.0520   14.0807 H   0  0  0  0  0  0
    2.2176   30.6456    6.1900 H   0  0  0  0  0  0
    3.2167   29.0520    9.3004 H   0  0  0  0  0  0
    5.0098   27.4520    9.3760 H   0  0  0  0  0  0
    5.1156   27.2759    5.0918 H   0  0  0  0  0  0
    3.4143   29.0074    5.0136 H   0  0  0  0  0  0
    7.0660   25.9161    5.0925 H   0  0  0  0  0  0
    7.7770   27.2352    5.8767 H   0  0  0  0  0  0
   -1.4457   33.2236    8.5037 H   0  0  0  0  0  0
   -2.1946   32.1468    9.6280 H   0  0  0  0  0  0
  1  6  1  0  0  0
  1  2  2  0  0  0
  1 28  1  0  0  0
  2  3  1  0  0  0
  2 29  1  0  0  0
  3  4  2  0  0  0
  3 27  1  0  0  0
  4  5  1  0  0  0
  4  8  1  0  0  0
  5  6  2  0  0  0
  5  7  1  0  0  0
  6 30  1  0  0  0
  8  9  2  0  0  0
  8 10  1  0  0  0
 10 14  1  0  0  0
 10 11  1  0  0  0
 11 12  2  0  0  0
 11 26  1  0  0  0
 12 13  1  0  0  0
 13 14  2  0  0  0
 13 15  1  0  0  0
 15 16  1  0  0  0
 15 31  1  0  0  0
 16 21  1  0  0  0
 16 17  2  0  0  0
 17 18  1  0  0  0
 17 32  1  0  0  0
 18 19  2  0  0  0
 18 33  1  0  0  0
 19 20  1  0  0  0
 19 22  1  0  0  0
 20 21  2  0  0  0
 20 34  1  0  0  0
 21 35  1  0  0  0
 22 23  2  0  0  0
 22 24  2  0  0  0
 22 25  1  0  0  0
 25 36  1  0  0  0
 25 37  1  0  0  0
 26 38  1  0  0  0
 26 39  1  0  0  0
M  END
> <s_m_entry_id>
34965

> <s_m_entry_name>
ligand_docking-pose.462

> <s_m_Source_Path>
/home/csk/Desktop/cluster/DUD-E-result/cdk2

> <s_m_Source_File>
ligand_docking-pose.sdf

> <i_m_Source_File_Index>
462

> <i_lp_mmshare_version>
53161

> <r_lp_tautomer_probability>
1

> <s_lp_Force_Field>
OPLS_2005

> <r_lp_Energy>
35.355715

> <b_lp_Chiralities_Consistent>
1

> <s_lp_Variant>
317507-1

> <s_i_glide_gridfile>
glide-grid_1h00

> <i_i_glide_lignum>
362

> <i_i_glide_rotatable_bonds>
5

> <r_i_docking_score>
-6.92719102970287

> <r_i_glide_ligand_efficiency>
-0.256562630729736

> <r_i_glide_ligand_efficiency_sa>
-0.76968789134362

> <r_i_glide_ligand_efficiency_ln>
-1.6125358680452

> <r_i_glide_gscore>
-6.92719102970287

> <r_i_glide_lipo>
-1.98349702657527

> <r_i_glide_hbond>
-0.32

> <r_i_glide_metal>
0

> <r_i_glide_rewards>
-2.07034076092395

> <r_i_glide_evdw>
-38.2200469970703

> <r_i_glide_ecoul>
-7.04383897781372

> <r_i_glide_erotb>
0.502684924801126

> <r_i_glide_esite>
-0.0884599704791999

> <r_i_glide_emodel>
-62.0106936379605

> <r_i_glide_energy>
-45.263885974884

> <r_i_glide_einternal>
4.83357954025269

> <i_i_glide_confnum>
24

> <i_i_glide_posenum>
209

> <r_i_glide_eff_state_penalty>
0

> <i_f3d_flags>
0

> <s_user_duplicate_titles>
317507

> <s_m_subgroup_title>
dock_pv

> <s_m_subgroupid>
dock_pv1

> <b_m_subgroup_collapsed>
0

$$$$
301071
                    3D
 Schrodinger Suite 2021-1.
 27 29  0  0  1  0            999 V2000
   -0.2114   28.1359   12.3179 C   0  0  0  0  0  0
   -0.3624   28.9897   11.1510 N   0  0  0  0  0  0
    0.4469   29.1355   10.0526 C   0  0  0  0  0  0
   -0.1731   30.0839    9.2478 C   0  0  0  0  0  0
   -1.2620   30.5574   10.0297 C   0  0  0  0  0  0
   -1.3778   29.8523   11.1419 N   0  0  0  0  0  0
   -2.1513   31.6454    9.6673 C   0  0  0  0  0  0
   -2.0608   32.2479    8.6015 O   0  0  0  0  0  0
   -3.0691   31.9913   10.5759 N   0  0  0  0  0  0
    0.4010   30.4893    7.8815 C   0  0  0  0  0  0
    1.9169   30.1441    7.6714 C   0  0  0  0  0  0
    2.4130   29.0142    8.5760 C   0  0  0  0  0  0
    1.6894   28.5118    9.6759 C   0  0  0  0  0  0
    2.4574   27.4673   10.1602 C   0  0  0  0  0  0
    3.5744   27.4543    9.3734 N   0  0  0  0  0  0
    3.5565   28.3816    8.4099 N   0  0  0  0  0  0
    4.3686   26.8396    9.5264 H   0  0  0  0  0  0
    0.5598   27.3871   12.1555 H   0  0  0  0  0  0
    0.0574   28.7488   13.1775 H   0  0  0  0  0  0
   -1.1550   27.6281   12.5228 H   0  0  0  0  0  0
   -3.1941   31.4653   11.4420 H   0  0  0  0  0  0
   -3.6836   32.7658   10.3737 H   0  0  0  0  0  0
   -0.1936   30.0046    7.1065 H   0  0  0  0  0  0
    0.2623   31.5572    7.7113 H   0  0  0  0  0  0
    2.0598   29.8550    6.6294 H   0  0  0  0  0  0
    2.5230   31.0425    7.7769 H   0  0  0  0  0  0
    2.3544   26.7810   10.9851 H   0  0  0  0  0  0
  1  2  1  0  0  0
  1 18  1  0  0  0
  1 19  1  0  0  0
  1 20  1  0  0  0
  2  6  1  0  0  0
  2  3  1  0  0  0
  3 13  1  0  0  0
  3  4  2  0  0  0
  4  5  1  0  0  0
  4 10  1  0  0  0
  5  6  2  0  0  0
  5  7  1  0  0  0
  7  8  2  0  0  0
  7  9  1  0  0  0
  9 21  1  0  0  0
  9 22  1  0  0  0
 10 11  1  0  0  0
 10 23  1  0  0  0
 10 24  1  0  0  0
 11 12  1  0  0  0
 11 25  1  0  0  0
 11 26  1  0  0  0
 12 16  2  0  0  0
 12 13  1  0  0  0
 13 14  2  0  0  0
 14 15  1  0  0  0
 14 27  1  0  0  0
 15 17  1  0  0  0
 15 16  1  0  0  0
M  END
> <s_m_entry_id>
34966

> <s_m_entry_name>
ligand_docking-pose.463

> <s_m_Source_Path>
/home/csk/Desktop/cluster/DUD-E-result/cdk2

> <s_m_Source_File>
ligand_docking-pose.sdf

> <i_m_Source_File_Index>
463

> <i_lp_mmshare_version>
53161

> <r_lp_tautomer_probability>
0.5

> <s_lp_Force_Field>
OPLS_2005

> <r_lp_Energy>
15.919896

> <b_lp_Chiralities_Consistent>
1

> <s_lp_Variant>
301071-1

> <s_i_glide_gridfile>
glide-grid_1h00

> <i_i_glide_lignum>
1413

> <i_i_glide_rotatable_bonds>
1

> <r_i_docking_score>
-6.92718173808557

> <r_i_glide_ligand_efficiency>
-0.432948858630348

> <r_i_glide_ligand_efficiency_sa>
-1.09096276002441

> <r_i_glide_ligand_efficiency_ln>
-1.83618789327582

> <r_i_glide_gscore>
-6.92718173808557

> <r_i_glide_lipo>
-1.67394693686755

> <r_i_glide_hbond>
-0.283361208097472

> <r_i_glide_metal>
0

> <r_i_glide_rewards>
-2.71037240694227

> <r_i_glide_evdw>
-27.178731918335

> <r_i_glide_ecoul>
-5.81367492675781

> <r_i_glide_erotb>
0

> <r_i_glide_esite>
-0.0285133512478593

> <r_i_glide_emodel>
-47.3213063001562

> <r_i_glide_energy>
-32.9924068450928

> <r_i_glide_einternal>
0.307874977588654

> <i_i_glide_confnum>
1

> <i_i_glide_posenum>
373

> <r_i_glide_eff_state_penalty>
0

> <i_f3d_flags>
0

> <s_user_duplicate_titles>
301071

> <s_m_subgroup_title>
dock_pv

> <s_m_subgroupid>
dock_pv1

> <b_m_subgroup_collapsed>
0

$$$$
312763
                    3D
 Schrodinger Suite 2021-1.
 34 37  0  0  1  0            999 V2000
    0.5270   25.1814   11.3137 C   0  0  0  0  0  0
    0.6632   26.3577   10.5757 C   0  0  0  0  0  0
   -0.1675   27.4544   10.8735 C   0  0  0  0  0  0
   -0.3919   28.7945   10.4279 C   0  0  0  0  0  0
   -1.4625   29.2131   11.2270 C   0  0  0  0  0  0
   -1.8801   28.3207   12.0953 N   0  0  0  0  0  0
   -1.0973   27.2430   11.9090 N   0  0  0  0  0  0
   -1.2679   26.1311   12.6485 N   0  0  0  0  0  0
   -0.4308   25.1141   12.3249 C   0  0  0  0  0  0
    0.3056   29.5817    9.3633 C   0  0  0  0  0  0
   -0.2778   30.7168    8.7889 C   0  0  0  0  0  0
    0.4583   31.3856    7.8081 C   0  0  0  0  0  0
    1.6735   30.9545    7.3832 N   0  0  0  0  0  0
    2.1765   29.8520    7.9993 C   0  0  0  0  0  0
    1.5355   29.1454    8.9760 N   0  0  0  0  0  0
    3.4437   29.4513    7.5442 N   0  0  0  0  0  0
    4.0658   28.1910    7.5058 C   0  0  0  0  0  0
    4.9583   27.9288    6.4625 C   0  0  0  0  0  0
    5.4910   26.6529    6.2802 C   0  0  0  0  0  0
    5.1116   25.6079    7.1201 C   0  0  0  0  0  0
    4.2316   25.8613    8.1762 C   0  0  0  0  0  0
    3.7778   27.1618    8.4093 C   0  0  0  0  0  0
    3.6578   24.5850    9.1946 Cl  0  0  0  0  0  0
    5.7466   24.0245    6.8339 Cl  0  0  0  0  0  0
    1.1563   24.3291   11.0968 H   0  0  0  0  0  0
    1.3846   26.4106    9.7793 H   0  0  0  0  0  0
   -1.9336   30.1854   11.1892 H   0  0  0  0  0  0
   -0.5502   24.2067   12.9007 H   0  0  0  0  0  0
   -1.2434   31.0841    9.1013 H   0  0  0  0  0  0
    0.0988   32.3088    7.3800 H   0  0  0  0  0  0
    3.8453   30.1233    6.8979 H   0  0  0  0  0  0
    5.2533   28.7032    5.7703 H   0  0  0  0  0  0
    6.1773   26.4737    5.4650 H   0  0  0  0  0  0
    3.1592   27.3441    9.2682 H   0  0  0  0  0  0
  1  9  1  0  0  0
  1  2  2  0  0  0
  1 25  1  0  0  0
  2  3  1  0  0  0
  2 26  1  0  0  0
  3  7  1  0  0  0
  3  4  2  0  0  0
  4  5  1  0  0  0
  4 10  1  0  0  0
  5  6  2  0  0  0
  5 27  1  0  0  0
  6  7  1  0  0  0
  7  8  1  0  0  0
  8  9  2  0  0  0
  9 28  1  0  0  0
 10 15  1  0  0  0
 10 11  2  0  0  0
 11 12  1  0  0  0
 11 29  1  0  0  0
 12 13  2  0  0  0
 12 30  1  0  0  0
 13 14  1  0  0  0
 14 15  2  0  0  0
 14 16  1  0  0  0
 16 17  1  0  0  0
 16 31  1  0  0  0
 17 22  1  0  0  0
 17 18  2  0  0  0
 18 19  1  0  0  0
 18 32  1  0  0  0
 19 20  2  0  0  0
 19 33  1  0  0  0
 20 21  1  0  0  0
 20 24  1  0  0  0
 21 22  2  0  0  0
 21 23  1  0  0  0
 22 34  1  0  0  0
M  END
> <s_m_entry_id>
34967

> <s_m_entry_name>
ligand_docking-pose.464

> <s_m_Source_Path>
/home/csk/Desktop/cluster/DUD-E-result/cdk2

> <s_m_Source_File>
ligand_docking-pose.sdf

> <i_m_Source_File_Index>
464

> <i_lp_mmshare_version>
53161

> <r_lp_tautomer_probability>
0.999999987636

> <s_lp_Force_Field>
OPLS_2005

> <r_lp_Energy>
16.880417

> <b_lp_Chiralities_Consistent>
1

> <s_lp_Variant>
312763-1

> <s_i_glide_gridfile>
glide-grid_1h00

> <i_i_glide_lignum>
86

> <i_i_glide_rotatable_bonds>
3

> <r_i_docking_score>
-6.92300539030897

> <r_i_glide_ligand_efficiency>
-0.288458557929541

> <r_i_glide_ligand_efficiency_sa>
-0.832058461569307

> <r_i_glide_ligand_efficiency_ln>
-1.65699286591825

> <r_i_glide_gscore>
-6.92300539030897

> <r_i_glide_lipo>
-2.20575426636899

> <r_i_glide_hbond>
-0.32

> <r_i_glide_metal>
0

> <r_i_glide_rewards>
-2.52927899451248

> <r_i_glide_evdw>
-35.7850341796875

> <r_i_glide_ecoul>
-3.52525448799133

> <r_i_glide_erotb>
0.450067752755567

> <r_i_glide_esite>
0

> <r_i_glide_emodel>
-55.7403064017803

> <r_i_glide_energy>
-39.3102886676788

> <r_i_glide_einternal>
1.88541686534882

> <i_i_glide_confnum>
4

> <i_i_glide_posenum>
52

> <r_i_glide_eff_state_penalty>
0

> <i_f3d_flags>
0

> <s_user_duplicate_titles>
312763

> <s_m_subgroup_title>
dock_pv

> <s_m_subgroupid>
dock_pv1

> <b_m_subgroup_collapsed>
0

$$$$
170049
                    3D
 Schrodinger Suite 2021-1.
 51 57  0  0  1  0            999 V2000
    0.9168   19.5922   14.0778 C   0  0  0  0  0  0
    1.6532   20.4069   13.1707 O   0  0  0  0  0  0
    1.1946   21.6754   12.8736 C   0  0  0  0  0  0
    0.0318   22.2360   13.4153 C   0  0  0  0  0  0
   -0.3782   23.5254   13.0878 C   0  0  0  0  0  0
    0.4075   24.2899   12.2119 C   0  0  0  0  0  0
    1.5956   23.7155   11.6759 C   0  0  0  0  0  0
    1.9822   22.4052   11.9819 C   0  0  0  0  0  0
    2.1941   24.6703   10.8728 N   0  0  0  0  0  0
    1.4207   25.8069   10.8801 C   0  0  0  0  0  0
    0.2858   25.5967   11.6830 C   0  0  0  0  0  0
   -0.6549   26.6406   11.7721 C   0  0  0  0  0  0
   -0.4827   27.8246   11.0779 C   0  0  0  0  0  0
    0.6455   28.0421   10.2702 C   0  0  0  0  0  0
    1.6176   27.0136   10.2081 C   0  0  0  0  0  0
    2.6368   27.3968    9.3596 N   0  0  0  0  0  0
    2.2939   28.6308    8.8322 C   0  0  0  0  0  0
    1.0477   29.0481    9.3620 C   0  0  0  0  0  0
    0.4595   30.2193    8.8441 C   0  0  0  0  0  0
    1.0951   30.8758    7.7885 C   0  0  0  0  0  0
    2.3196   30.4283    7.2972 C   0  0  0  0  0  0
    2.9712   29.3083    7.8141 C   0  0  0  0  0  0
    4.2505   28.6727    7.2716 C   0  0  0  0  0  0
    4.8158   27.5764    8.2290 C   0  0  1  0  0  0
    3.6961   26.6088    8.7185 C   0  0  0  0  0  0
    5.9793   26.7888    7.5849 C   0  0  0  0  0  0
    6.8544   26.2518    8.5671 O   0  0  0  0  0  0
   -1.6640   28.6773   11.3444 C   0  0  0  0  0  0
   -1.9234   29.8028   10.9302 O   0  0  0  0  0  0
   -2.4247   27.9548   12.1760 N   0  0  0  0  0  0
   -1.9382   26.7503   12.5091 C   0  0  0  0  0  0
   -2.4703   25.9494   13.2736 O   0  0  0  0  0  0
    3.0529   24.5667   10.3536 H   0  0  0  0  0  0
    1.3765   18.6063   14.1328 H   0  0  0  0  0  0
    0.9218   20.0179   15.0819 H   0  0  0  0  0  0
   -0.1156   19.4522   13.7587 H   0  0  0  0  0  0
   -0.5853   21.6735   14.1010 H   0  0  0  0  0  0
   -1.2842   23.9156   13.5202 H   0  0  0  0  0  0
    2.8576   21.9489   11.5537 H   0  0  0  0  0  0
   -0.4940   30.5790    9.1923 H   0  0  0  0  0  0
    0.6340   31.7518    7.3579 H   0  0  0  0  0  0
    2.7636   30.9503    6.4672 H   0  0  0  0  0  0
    4.0344   28.2371    6.2959 H   0  0  0  0  0  0
    5.0004   29.4473    7.0956 H   0  0  0  0  0  0
    5.2210   28.1024    9.0953 H   0  0  0  0  0  0
    4.0580   25.8338    9.3760 H   0  0  0  0  0  0
    3.2582   26.0593    7.8876 H   0  0  0  0  0  0
    5.6040   25.9843    6.9499 H   0  0  0  0  0  0
    6.5479   27.4457    6.9304 H   0  0  0  0  0  0
    6.3210   25.9795    9.3297 H   0  0  0  0  0  0
   -3.2274   28.3463   12.6559 H   0  0  0  0  0  0
  1  2  1  0  0  0
  1 34  1  0  0  0
  1 35  1  0  0  0
  1 36  1  0  0  0
  2  3  1  0  0  0
  3  8  1  0  0  0
  3  4  2  0  0  0
  4  5  1  0  0  0
  4 37  1  0  0  0
  5  6  2  0  0  0
  5 38  1  0  0  0
  6 11  1  0  0  0
  6  7  1  0  0  0
  7  8  2  0  0  0
  7  9  1  0  0  0
  8 39  1  0  0  0
  9 33  1  0  0  0
  9 10  1  0  0  0
 10 15  1  0  0  0
 10 11  2  0  0  0
 11 12  1  0  0  0
 12 31  1  0  0  0
 12 13  2  0  0  0
 13 14  1  0  0  0
 13 28  1  0  0  0
 14 18  1  0  0  0
 14 15  2  0  0  0
 15 16  1  0  0  0
 16 25  1  0  0  0
 16 17  1  0  0  0
 17 22  1  0  0  0
 17 18  2  0  0  0
 18 19  1  0  0  0
 19 20  2  0  0  0
 19 40  1  0  0  0
 20 21  1  0  0  0
 20 41  1  0  0  0
 21 22  2  0  0  0
 21 42  1  0  0  0
 22 23  1  0  0  0
 23 24  1  0  0  0
 23 43  1  0  0  0
 23 44  1  0  0  0
 24 25  1  0  0  0
 24 26  1  0  0  0
 24 45  1  0  0  0
 25 46  1  0  0  0
 25 47  1  0  0  0
 26 27  1  0  0  0
 26 48  1  0  0  0
 26 49  1  0  0  0
 27 50  1  0  0  0
 28 29  2  0  0  0
 28 30  1  0  0  0
 30 31  1  0  0  0
 30 51  1  0  0  0
 31 32  2  0  0  0
M  END
> <s_m_entry_id>
34968

> <s_m_entry_name>
ligand_docking-pose.465

> <s_m_Source_Path>
/home/csk/Desktop/cluster/DUD-E-result/cdk2

> <s_m_Source_File>
ligand_docking-pose.sdf

> <i_m_Source_File_Index>
465

> <i_lp_mmshare_version>
53161

> <r_lp_tautomer_probability>
1

> <s_lp_Force_Field>
OPLS_2005

> <r_lp_Energy>
105.832305

> <b_lp_Chiralities_Consistent>
1

> <s_lp_Variant>
170049-1

> <s_i_glide_gridfile>
glide-grid_1h00

> <i_i_glide_lignum>
1601

> <i_i_glide_rotatable_bonds>
3

> <r_i_docking_score>
-6.92036428380553

> <r_i_glide_ligand_efficiency>
-0.216261383868923

> <r_i_glide_ligand_efficiency_sa>
-0.686587095714077

> <r_i_glide_ligand_efficiency_ln>
-1.54965820514977

> <r_i_glide_gscore>
-6.92036428380553

> <r_i_glide_lipo>
-2.86055584340438

> <r_i_glide_hbond>
-0.328531106476647

> <r_i_glide_metal>
0

> <r_i_glide_rewards>
-0.798906213121273

> <r_i_glide_evdw>
-37.3936538696289

> <r_i_glide_ecoul>
-7.26475811004639

> <r_i_glide_erotb>
0.109600342635471

> <r_i_glide_esite>
-0.082575053450295

> <r_i_glide_emodel>
-62.254707606891

> <r_i_glide_energy>
-44.6584119796753

> <r_i_glide_einternal>
7.15099382400513

> <i_i_glide_confnum>
2

> <i_i_glide_posenum>
39

> <r_i_glide_eff_state_penalty>
0

> <i_f3d_flags>
0

> <s_user_duplicate_titles>
170049

> <s_m_subgroup_title>
dock_pv

> <s_m_subgroupid>
dock_pv1

> <b_m_subgroup_collapsed>
0

$$$$
645410
                    3D
 Schrodinger Suite 2021-1.
 50 54  0  0  1  0            999 V2000
   -0.7499   19.4900   15.2940 C   0  0  0  0  0  0
    0.6953   19.5418   15.1540 N   0  0  0  0  0  0
    1.6170   19.3107   16.1454 C   0  0  0  0  0  0
    2.8577   19.4513   15.7473 N   0  0  0  0  0  0
    2.7561   19.7915   14.4765 C   0  0  0  0  0  0
    1.4380   19.8652   14.0364 C   0  0  0  0  0  0
    0.8488   20.1724   12.6725 C   0  0  0  0  0  0
    0.2764   21.5191   12.6232 N   0  0  0  0  0  0
    0.8736   22.6054   12.0956 C   0  0  0  0  0  0
    2.0055   22.5831   11.6085 O   0  0  0  0  0  0
    0.0588   23.8797   12.1037 C   0  0  0  0  0  0
   -0.8242   24.1580   13.1602 C   0  0  0  0  0  0
   -1.5410   25.3526   13.2241 C   0  0  0  0  0  0
   -1.3638   26.3055   12.2132 C   0  0  0  0  0  0
   -1.8662   27.6260   11.9782 C   0  0  0  0  0  0
   -1.2543   28.1278   10.8433 C   0  0  0  0  0  0
   -0.5216   27.0991   10.2955 N   0  0  0  0  0  0
   -0.4926   26.0028   11.1335 C   0  0  0  0  0  0
    0.2218   24.8027   11.0565 C   0  0  0  0  0  0
   -1.3173   29.4619   10.2577 C   0  0  0  0  0  0
   -0.4972   30.2033    9.3914 C   0  0  0  0  0  0
   -1.1848   31.4219    9.2443 C   0  0  0  0  0  0
   -2.2795   31.5000    9.9595 N   0  0  0  0  0  0
   -2.3421   30.3208   10.5759 N   0  0  0  0  0  0
    0.8157   29.8520    8.7584 C   0  0  0  0  0  0
    1.1951   30.4476    7.5505 C   0  0  0  0  0  0
    2.4277   30.1452    6.9756 C   0  0  0  0  0  0
    3.2833   29.2443    7.5977 C   0  0  0  0  0  0
    2.9266   28.6520    8.8020 C   0  0  0  0  0  0
    1.7022   28.9672    9.3782 C   0  0  0  0  0  0
   -0.0113   27.2223    9.4357 H   0  0  0  0  0  0
   -3.0760   30.1221   11.2436 H   0  0  0  0  0  0
   -1.1011   18.5058   14.9761 H   0  0  0  0  0  0
   -1.2182   20.2536   14.6719 H   0  0  0  0  0  0
   -1.0283   19.6392   16.3378 H   0  0  0  0  0  0
    1.2881   19.0219   17.1332 H   0  0  0  0  0  0
    3.6298   19.9665   13.8667 H   0  0  0  0  0  0
    1.5862   20.0303   11.8794 H   0  0  0  0  0  0
    0.0582   19.4620   12.4433 H   0  0  0  0  0  0
   -0.6754   21.6063   12.9405 H   0  0  0  0  0  0
   -0.9407   23.4543   13.9725 H   0  0  0  0  0  0
   -2.1967   25.5574   14.0578 H   0  0  0  0  0  0
   -2.5512   28.1902   12.5896 H   0  0  0  0  0  0
    0.8955   24.6069   10.2347 H   0  0  0  0  0  0
   -0.8566   32.2590    8.6471 H   0  0  0  0  0  0
    0.5370   31.1394    7.0465 H   0  0  0  0  0  0
    2.7113   30.6003    6.0370 H   0  0  0  0  0  0
    4.2405   29.0220    7.1483 H   0  0  0  0  0  0
    3.6086   27.9758    9.2964 H   0  0  0  0  0  0
    1.4835   28.5530   10.3506 H   0  0  0  0  0  0
  1  2  1  0  0  0
  1 33  1  0  0  0
  1 34  1  0  0  0
  1 35  1  0  0  0
  2  6  1  0  0  0
  2  3  1  0  0  0
  3  4  2  0  0  0
  3 36  1  0  0  0
  4  5  1  0  0  0
  5  6  2  0  0  0
  5 37  1  0  0  0
  6  7  1  0  0  0
  7  8  1  0  0  0
  7 38  1  0  0  0
  7 39  1  0  0  0
  8  9  1  0  0  0
  8 40  1  0  0  0
  9 10  2  0  0  0
  9 11  1  0  0  0
 11 19  1  0  0  0
 11 12  2  0  0  0
 12 13  1  0  0  0
 12 41  1  0  0  0
 13 14  2  0  0  0
 13 42  1  0  0  0
 14 18  1  0  0  0
 14 15  1  0  0  0
 15 16  2  0  0  0
 15 43  1  0  0  0
 16 17  1  0  0  0
 16 20  1  0  0  0
 17 31  1  0  0  0
 17 18  1  0  0  0
 18 19  2  0  0  0
 19 44  1  0  0  0
 20 24  1  0  0  0
 20 21  2  0  0  0
 21 22  1  0  0  0
 21 25  1  0  0  0
 22 45  1  0  0  0
 22 23  2  0  0  0
 23 24  1  0  0  0
 24 32  1  0  0  0
 25 30  1  0  0  0
 25 26  2  0  0  0
 26 27  1  0  0  0
 26 46  1  0  0  0
 27 28  2  0  0  0
 27 47  1  0  0  0
 28 29  1  0  0  0
 28 48  1  0  0  0
 29 30  2  0  0  0
 29 49  1  0  0  0
 30 50  1  0  0  0
M  END
> <s_m_entry_id>
34969

> <s_m_entry_name>
ligand_docking-pose.466

> <s_m_Source_Path>
/home/csk/Desktop/cluster/DUD-E-result/cdk2

> <s_m_Source_File>
ligand_docking-pose.sdf

> <i_m_Source_File_Index>
466

> <i_lp_mmshare_version>
53161

> <r_lp_tautomer_probability>
0.5

> <s_lp_Force_Field>
OPLS_2005

> <r_lp_Energy>
15.035361

> <b_lp_Chiralities_Consistent>
1

> <s_lp_Variant>
645410-2

> <s_i_glide_gridfile>
glide-grid_1h00

> <i_i_glide_lignum>
1511

> <i_i_glide_rotatable_bonds>
6

> <r_i_docking_score>
-6.91309647841611

> <r_i_glide_ligand_efficiency>
-0.230436549280537

> <r_i_glide_ligand_efficiency_sa>
-0.716019935672548

> <r_i_glide_ligand_efficiency_ln>
-1.57073084411527

> <r_i_glide_gscore>
-6.91309647841611

> <r_i_glide_lipo>
-2.89989817805409

> <r_i_glide_hbond>
-0.3546600339088

> <r_i_glide_metal>
0

> <r_i_glide_rewards>
-1.18950756717971

> <r_i_glide_evdw>
-40.4715805053711

> <r_i_glide_ecoul>
-6.75672197341919

> <r_i_glide_erotb>
0.746903051930779

> <r_i_glide_esite>
-0.17884642992286

> <r_i_glide_emodel>
-68.6881369898354

> <r_i_glide_energy>
-47.2283024787903

> <r_i_glide_einternal>
1.69586157798767

> <i_i_glide_confnum>
40

> <i_i_glide_posenum>
380

> <r_i_glide_eff_state_penalty>
0

> <i_f3d_flags>
0

> <s_user_duplicate_titles>
645410

> <s_m_subgroup_title>
dock_pv

> <s_m_subgroupid>
dock_pv1

> <b_m_subgroup_collapsed>
0

$$$$
499528
                    3D
 Schrodinger Suite 2021-1.
 40 42  0  0  1  0            999 V2000
    4.0313   23.2136    4.4614 C   0  0  0  0  0  0
    4.0579   23.4728    5.8629 O   0  0  0  0  0  0
    4.3281   24.7560    6.3073 C   0  0  0  0  0  0
    4.7824   25.7886    5.4689 C   0  0  0  0  0  0
    4.9970   27.0700    5.9732 C   0  0  0  0  0  0
    4.7550   27.3444    7.3196 C   0  0  0  0  0  0
    4.3315   26.3184    8.1696 C   0  0  0  0  0  0
    4.1239   25.0339    7.6688 C   0  0  0  0  0  0
    3.6581   24.0589    8.5148 O   0  0  0  0  0  0
    4.9054   28.7602    7.8440 C   0  0  0  0  0  0
    3.6286   29.4523    7.7762 N   0  0  0  0  0  0
    2.5654   29.2293    8.6214 C   0  0  0  0  0  0
    1.3457   29.8199    8.6968 C   0  0  0  0  0  0
    0.3372   29.4315    9.7412 C   0  0  0  0  0  0
    0.4693   28.2739   10.5311 C   0  0  0  0  0  0
   -0.4570   27.9731   11.5298 C   0  0  0  0  0  0
   -1.5413   28.8165   11.7510 C   0  0  0  0  0  0
   -1.7110   29.9516   10.9634 C   0  0  0  0  0  0
   -0.7842   30.2522    9.9584 C   0  0  0  0  0  0
   -1.0070   31.4848    9.1139 C   0  0  0  0  0  0
   -1.9344   32.2828    9.2318 O   0  0  0  0  0  0
   -0.0749   31.6607    8.1534 N   0  0  0  0  0  0
    1.0052   30.9278    7.7898 C   0  0  0  0  0  0
    1.6576   31.2779    6.8043 O   0  0  0  0  0  0
   -0.2175   26.2581   12.7040 I   0  0  0  0  0  0
    3.7286   22.1798    4.2938 H   0  0  0  0  0  0
    5.0157   23.3447    4.0095 H   0  0  0  0  0  0
    3.3116   23.8517    3.9449 H   0  0  0  0  0  0
    4.9642   25.6189    4.4186 H   0  0  0  0  0  0
    5.3328   27.8548    5.3097 H   0  0  0  0  0  0
    4.1121   26.5217    9.2073 H   0  0  0  0  0  0
    3.0981   23.4539    8.0116 H   0  0  0  0  0  0
    5.2405   28.7061    8.8817 H   0  0  0  0  0  0
    5.6570   29.3236    7.2945 H   0  0  0  0  0  0
    3.5458   30.1224    7.0177 H   0  0  0  0  0  0
    2.8276   28.4505    9.3191 H   0  0  0  0  0  0
    1.2911   27.5883   10.3990 H   0  0  0  0  0  0
   -2.2580   28.5929   12.5292 H   0  0  0  0  0  0
   -2.5655   30.5905   11.1436 H   0  0  0  0  0  0
   -0.2382   32.4650    7.5686 H   0  0  0  0  0  0
  1  2  1  0  0  0
  1 26  1  0  0  0
  1 27  1  0  0  0
  1 28  1  0  0  0
  2  3  1  0  0  0
  3  8  1  0  0  0
  3  4  2  0  0  0
  4  5  1  0  0  0
  4 29  1  0  0  0
  5  6  2  0  0  0
  5 30  1  0  0  0
  6  7  1  0  0  0
  6 10  1  0  0  0
  7  8  2  0  0  0
  7 31  1  0  0  0
  8  9  1  0  0  0
  9 32  1  0  0  0
 10 11  1  0  0  0
 10 33  1  0  0  0
 10 34  1  0  0  0
 11 12  1  0  0  0
 11 35  1  0  0  0
 12 13  2  0  0  0
 12 36  1  0  0  0
 13 23  1  0  0  0
 13 14  1  0  0  0
 14 19  2  0  0  0
 14 15  1  0  0  0
 15 16  2  0  0  0
 15 37  1  0  0  0
 16 17  1  0  0  0
 16 25  1  0  0  0
 17 18  2  0  0  0
 17 38  1  0  0  0
 18 19  1  0  0  0
 18 39  1  0  0  0
 19 20  1  0  0  0
 20 21  2  0  0  0
 20 22  1  0  0  0
 22 23  1  0  0  0
 22 40  1  0  0  0
 23 24  2  0  0  0
M  END
> <s_m_entry_id>
34971

> <s_m_entry_name>
ligand_docking-pose.468

> <s_m_Source_Path>
/home/csk/Desktop/cluster/DUD-E-result/cdk2

> <s_m_Source_File>
ligand_docking-pose.sdf

> <i_m_Source_File_Index>
468

> <i_lp_mmshare_version>
53161

> <r_lp_tautomer_probability>
0.499999999999422

> <s_lp_Force_Field>
OPLS_2005

> <r_lp_Energy>
28.226828

> <b_lp_Chiralities_Consistent>
1

> <s_lp_Variant>
499528-1

> <s_i_glide_gridfile>
glide-grid_1h00

> <i_i_glide_lignum>
1713

> <i_i_glide_rotatable_bonds>
5

> <r_i_docking_score>
-6.91105143306201

> <r_i_glide_ligand_efficiency>
-0.27644205732248

> <r_i_glide_ligand_efficiency_sa>
-0.808321478331695

> <r_i_glide_ligand_efficiency_ln>
-1.6381262971346

> <r_i_glide_gscore>
-6.91105143306201

> <r_i_glide_lipo>
-2.33072200871862

> <r_i_glide_hbond>
-0.231218040928443

> <r_i_glide_metal>
0

> <r_i_glide_rewards>
-1.36509999788989

> <r_i_glide_evdw>
-41.1309585571289

> <r_i_glide_ecoul>
-8.16107177734375

> <r_i_glide_erotb>
0.296697308932955

> <r_i_glide_esite>
0

> <r_i_glide_emodel>
-66.5385351935991

> <r_i_glide_energy>
-49.2920303344727

> <r_i_glide_einternal>
7.33817911148071

> <i_i_glide_confnum>
18

> <i_i_glide_posenum>
37

> <r_i_glide_eff_state_penalty>
0

> <i_f3d_flags>
0

> <s_user_duplicate_titles>
499528

> <s_m_subgroup_title>
dock_pv

> <s_m_subgroupid>
dock_pv1

> <b_m_subgroup_collapsed>
0

$$$$
122337
                    3D
 Schrodinger Suite 2021-1.
 37 39  0  0  1  0            999 V2000
   -3.5647   30.3645   10.0076 C   0  0  0  0  0  0
   -2.7191   29.4881   10.9471 C   0  0  0  0  0  0
   -1.5419   30.2666   11.5685 C   0  0  0  0  0  0
   -0.5199   29.4269   12.3599 C   0  0  0  0  0  0
   -0.0342   28.1401   11.6990 C   0  0  0  0  0  0
   -0.1886   26.8244   12.2632 C   0  0  0  0  0  0
    0.4601   25.8914   11.4116 C   0  0  0  0  0  0
    0.9911   26.6102   10.3727 N   0  0  0  0  0  0
    0.6718   27.9466   10.4971 C   0  0  0  0  0  0
    1.0750   28.8979    9.4229 C   0  0  0  0  0  0
    0.1023   29.6918    8.8153 C   0  0  0  0  0  0
    0.4430   30.5889    7.8165 C   0  0  0  0  0  0
    1.7539   30.6520    7.3759 C   0  0  0  0  0  0
    2.7382   29.8425    7.9425 C   0  0  0  0  0  0
    2.3991   28.9684    8.9756 C   0  0  0  0  0  0
    2.0580   31.5098    6.3609 O   0  0  0  0  0  0
    0.5201   24.5700   11.6175 N   0  0  0  0  0  0
   -0.1171   24.1677   12.7512 C   0  0  0  0  0  0
   -0.7556   25.0593   13.6193 C   0  0  0  0  0  0
   -0.7919   26.4004   13.3846 N   0  0  0  0  0  0
    1.5171   26.2535    9.5881 H   0  0  0  0  0  0
   -4.3116   29.7745    9.4756 H   0  0  0  0  0  0
   -4.0853   31.1457   10.5618 H   0  0  0  0  0  0
   -2.9495   30.8527    9.2512 H   0  0  0  0  0  0
   -2.3411   28.6456   10.3782 H   0  0  0  0  0  0
   -3.3395   29.0520   11.7316 H   0  0  0  0  0  0
   -1.9420   31.0461   12.2157 H   0  0  0  0  0  0
   -1.0143   30.8427   10.8121 H   0  0  0  0  0  0
   -0.9543   29.2022   13.3353 H   0  0  0  0  0  0
    0.3449   30.0538   12.5760 H   0  0  0  0  0  0
   -0.9331   29.5954    9.0741 H   0  0  0  0  0  0
   -0.3171   31.2130    7.3760 H   0  0  0  0  0  0
    3.7595   29.8867    7.5934 H   0  0  0  0  0  0
    3.1633   28.3483    9.4244 H   0  0  0  0  0  0
    3.0037   31.4519    6.1472 H   0  0  0  0  0  0
   -0.1038   23.1075   12.9587 H   0  0  0  0  0  0
   -1.2515   24.7115   14.5128 H   0  0  0  0  0  0
  1  2  1  0  0  0
  1 22  1  0  0  0
  1 23  1  0  0  0
  1 24  1  0  0  0
  2  3  1  0  0  0
  2 25  1  0  0  0
  2 26  1  0  0  0
  3  4  1  0  0  0
  3 27  1  0  0  0
  3 28  1  0  0  0
  4  5  1  0  0  0
  4 29  1  0  0  0
  4 30  1  0  0  0
  5  9  2  0  0  0
  5  6  1  0  0  0
  6 20  2  0  0  0
  6  7  1  0  0  0
  7  8  1  0  0  0
  7 17  2  0  0  0
  8 21  1  0  0  0
  8  9  1  0  0  0
  9 10  1  0  0  0
 10 15  1  0  0  0
 10 11  2  0  0  0
 11 12  1  0  0  0
 11 31  1  0  0  0
 12 13  2  0  0  0
 12 32  1  0  0  0
 13 14  1  0  0  0
 13 16  1  0  0  0
 14 15  2  0  0  0
 14 33  1  0  0  0
 15 34  1  0  0  0
 16 35  1  0  0  0
 17 18  1  0  0  0
 18 19  2  0  0  0
 18 36  1  0  0  0
 19 20  1  0  0  0
 19 37  1  0  0  0
M  END
> <s_m_entry_id>
34972

> <s_m_entry_name>
ligand_docking-pose.469

> <s_m_Source_Path>
/home/csk/Desktop/cluster/DUD-E-result/cdk2

> <s_m_Source_File>
ligand_docking-pose.sdf

> <i_m_Source_File_Index>
469

> <i_lp_mmshare_version>
53161

> <r_lp_tautomer_probability>
0.999999572924547

> <s_lp_Force_Field>
OPLS_2005

> <r_lp_Energy>
14.4703

> <b_lp_Chiralities_Consistent>
1

> <s_lp_Variant>
122337-1

> <s_i_glide_gridfile>
glide-grid_1h00

> <i_i_glide_lignum>
1110

> <i_i_glide_rotatable_bonds>
5

> <r_i_docking_score>
-6.90793041991786

> <r_i_glide_ligand_efficiency>
-0.345396520995893

> <r_i_glide_ligand_efficiency_sa>
-0.937550400365628

> <r_i_glide_ligand_efficiency_ln>
-1.72882714531162

> <r_i_glide_gscore>
-6.90793041991786

> <r_i_glide_lipo>
-2.19389998678718

> <r_i_glide_hbond>
-0.598526728661865

> <r_i_glide_metal>
0

> <r_i_glide_rewards>
-2.45678838483193

> <r_i_glide_evdw>
-29.3486614227295

> <r_i_glide_ecoul>
-6.26525592803955

> <r_i_glide_erotb>
0.748506140705521

> <r_i_glide_esite>
0

> <r_i_glide_emodel>
-49.9545055132293

> <r_i_glide_energy>
-35.613917350769

> <r_i_glide_einternal>
2.95762038230896

> <i_i_glide_confnum>
20

> <i_i_glide_posenum>
313

> <r_i_glide_eff_state_penalty>
0

> <i_f3d_flags>
0

> <s_user_duplicate_titles>
122337

> <s_m_subgroup_title>
dock_pv

> <s_m_subgroupid>
dock_pv1

> <b_m_subgroup_collapsed>
0

$$$$
424733
                    3D
 Schrodinger Suite 2021-1.
 59 63  0  0  1  0            999 V2000
    4.8508   26.9096    5.3011 C   0  0  0  0  0  0
    4.9882   25.6364    4.7488 C   0  0  0  0  0  0
    5.5208   24.5752    5.5000 C   0  0  0  0  0  0
    5.9213   24.8363    6.8192 C   0  0  0  0  0  0
    5.7815   26.1028    7.3773 C   0  0  0  0  0  0
    5.2555   27.1440    6.6145 C   0  0  0  0  0  0
    5.1026   28.5321    7.2248 C   0  0  0  0  0  0
    3.8121   28.6549    8.0415 C   0  0  0  0  0  0
    3.6259   27.8826    8.9780 O   0  0  0  0  0  0
    2.9776   29.6411    7.6645 N   0  0  0  0  0  0
    1.7206   29.9500    8.1718 C   0  0  0  0  0  0
    0.8438   29.3765    9.1498 C   0  0  0  0  0  0
    0.8379   28.2743   10.0216 C   0  0  0  0  0  0
   -0.2445   28.0669   10.8709 C   0  0  0  0  0  0
   -1.3317   28.9442   10.8668 C   0  0  0  0  0  0
   -1.3819   30.0306    9.9939 C   0  0  0  0  0  0
   -0.2983   30.2458    9.1240 C   0  0  0  0  0  0
   -0.1841   31.2379    8.1891 N   0  0  0  0  0  0
    1.0258   31.0147    7.6623 N   0  0  0  0  0  0
   -0.1726   26.9499   11.7187 N   0  0  0  0  0  0
   -0.3222   27.1326   13.1511 C   0  0  0  0  0  0
   -1.7718   26.8057   13.5378 C   0  0  0  0  0  0
   -2.3965   25.8668   12.4894 C   0  0  0  0  0  0
   -1.0074   25.4500   11.2979 S   0  0  0  0  0  0
   -1.4972   25.4527    9.9160 O   0  0  0  0  0  0
   -0.3351   24.2788   11.8732 O   0  0  0  0  0  0
    5.6848   23.3002    4.9539 N   0  0  0  0  0  0
    5.3837   22.9710    3.5475 C   0  0  0  0  0  0
    3.8961   22.5814    3.3848 C   0  0  0  0  0  0
    3.5302   21.3930    4.2944 C   0  0  0  0  0  0
    4.0268   21.6331    5.7336 C   0  0  0  0  0  0
    5.5099   22.0668    5.7435 C   0  0  0  0  0  0
    1.3854   31.6141    6.9361 H   0  0  0  0  0  0
    4.4350   27.7097    4.7044 H   0  0  0  0  0  0
    4.6620   25.4914    3.7303 H   0  0  0  0  0  0
    6.3555   24.0630    7.4318 H   0  0  0  0  0  0
    6.0810   26.2717    8.4014 H   0  0  0  0  0  0
    5.9345   28.7294    7.8983 H   0  0  0  0  0  0
    5.1570   29.2886    6.4392 H   0  0  0  0  0  0
    3.3276   30.2471    6.9350 H   0  0  0  0  0  0
    1.6542   27.5756   10.0648 H   0  0  0  0  0  0
   -2.1635   28.7828   11.5367 H   0  0  0  0  0  0
   -2.2368   30.6915    9.9906 H   0  0  0  0  0  0
    0.4365   26.6179   13.7453 H   0  0  0  0  0  0
   -0.1600   28.1892   13.3798 H   0  0  0  0  0  0
   -1.8160   26.3943   14.5465 H   0  0  0  0  0  0
   -2.3414   27.7332   13.5709 H   0  0  0  0  0  0
   -2.7581   24.9409   12.9309 H   0  0  0  0  0  0
   -3.2001   26.3431   11.9280 H   0  0  0  0  0  0
    6.0117   22.1310    3.2445 H   0  0  0  0  0  0
    5.6627   23.7840    2.8751 H   0  0  0  0  0  0
    3.6949   22.3294    2.3430 H   0  0  0  0  0  0
    3.2601   23.4412    3.5971 H   0  0  0  0  0  0
    2.4557   21.2224    4.2884 H   0  0  0  0  0  0
    3.9877   20.4849    3.9002 H   0  0  0  0  0  0
    3.4163   22.3915    6.2259 H   0  0  0  0  0  0
    3.9050   20.7264    6.3227 H   0  0  0  0  0  0
    6.1233   21.2820    5.2960 H   0  0  0  0  0  0
    5.8799   22.1602    6.7625 H   0  0  0  0  0  0
  1  6  1  0  0  0
  1  2  2  0  0  0
  1 34  1  0  0  0
  2  3  1  0  0  0
  2 35  1  0  0  0
  3  4  2  0  0  0
  3 27  1  0  0  0
  4  5  1  0  0  0
  4 36  1  0  0  0
  5  6  2  0  0  0
  5 37  1  0  0  0
  6  7  1  0  0  0
  7  8  1  0  0  0
  7 38  1  0  0  0
  7 39  1  0  0  0
  8  9  2  0  0  0
  8 10  1  0  0  0
 10 40  1  0  0  0
 10 11  1  0  0  0
 11 12  2  0  0  0
 11 19  1  0  0  0
 12 13  1  0  0  0
 12 17  1  0  0  0
 13 14  2  0  0  0
 13 41  1  0  0  0
 14 15  1  0  0  0
 14 20  1  0  0  0
 15 16  2  0  0  0
 15 42  1  0  0  0
 16 17  1  0  0  0
 16 43  1  0  0  0
 17 18  2  0  0  0
 18 19  1  0  0  0
 19 33  1  0  0  0
 20 24  1  0  0  0
 20 21  1  0  0  0
 21 22  1  0  0  0
 21 44  1  0  0  0
 21 45  1  0  0  0
 22 23  1  0  0  0
 22 46  1  0  0  0
 22 47  1  0  0  0
 23 24  1  0  0  0
 23 48  1  0  0  0
 23 49  1  0  0  0
 24 25  2  0  0  0
 24 26  2  0  0  0
 27 32  1  0  0  0
 27 28  1  0  0  0
 28 29  1  0  0  0
 28 50  1  0  0  0
 28 51  1  0  0  0
 29 30  1  0  0  0
 29 52  1  0  0  0
 29 53  1  0  0  0
 30 31  1  0  0  0
 30 54  1  0  0  0
 30 55  1  0  0  0
 31 32  1  0  0  0
 31 56  1  0  0  0
 31 57  1  0  0  0
 32 58  1  0  0  0
 32 59  1  0  0  0
M  END
> <s_m_entry_id>
34973

> <s_m_entry_name>
ligand_docking-pose.470

> <s_m_Source_Path>
/home/csk/Desktop/cluster/DUD-E-result/cdk2

> <s_m_Source_File>
ligand_docking-pose.sdf

> <i_m_Source_File_Index>
470

> <i_lp_mmshare_version>
53161

> <r_lp_tautomer_probability>
0.0196078431372549

> <s_lp_Force_Field>
OPLS_2005

> <r_lp_Energy>
57.256315

> <b_lp_Chiralities_Consistent>
1

> <s_lp_Variant>
424733-2

> <s_i_glide_gridfile>
glide-grid_1h00

> <i_i_glide_lignum>
249

> <i_i_glide_rotatable_bonds>
6

> <r_i_docking_score>
-6.9075481038868

> <r_i_glide_ligand_efficiency>
-0.215860878246463

> <r_i_glide_ligand_efficiency_sa>
-0.685315569622721

> <r_i_glide_ligand_efficiency_ln>
-1.5467883131101

> <r_i_glide_gscore>
-6.9075481038868

> <r_i_glide_lipo>
-2.24575060552789

> <r_i_glide_hbond>
-0.286277052538704

> <r_i_glide_metal>
0

> <r_i_glide_rewards>
-1.94965567831935

> <r_i_glide_evdw>
-47.4303779602051

> <r_i_glide_ecoul>
-4.24655103683472

> <r_i_glide_erotb>
0.585492124941346

> <r_i_glide_esite>
-0.00285533890674351

> <r_i_glide_emodel>
-69.7051394460081

> <r_i_glide_energy>
-51.6769289970398

> <r_i_glide_einternal>
8.09299182891846

> <i_i_glide_confnum>
240

> <i_i_glide_posenum>
110

> <r_i_glide_eff_state_penalty>
0

> <i_f3d_flags>
0

> <s_user_duplicate_titles>
424733

> <s_m_subgroup_title>
dock_pv

> <s_m_subgroupid>
dock_pv1

> <b_m_subgroup_collapsed>
0

$$$$
361215
                    3D
 Schrodinger Suite 2021-1.
 51 53  0  0  1  0            999 V2000
    6.9886   25.6066    7.9899 C   0  0  0  0  0  0
    6.0557   26.6691    7.8523 O   0  0  0  0  0  0
    5.4419   26.8934    6.6320 C   0  0  0  0  0  0
    5.6653   26.0896    5.4995 C   0  0  0  0  0  0
    5.0246   26.3609    4.2919 C   0  0  0  0  0  0
    4.1531   27.4410    4.1994 C   0  0  0  0  0  0
    3.9078   28.2386    5.3141 C   0  0  0  0  0  0
    4.5393   27.9696    6.5295 C   0  0  0  0  0  0
    4.3130   28.8974    7.6662 C   0  0  0  0  0  0
    5.2574   29.4835    8.1762 O   0  0  0  0  0  0
    2.9781   28.9640    8.3057 C   0  0  0  0  0  0
    2.7050   28.1026    9.3750 C   0  0  0  0  0  0
    1.5176   28.1127   10.0304 N   0  0  0  0  0  0
    0.5911   29.0125    9.6040 C   0  0  0  0  0  0
    0.7657   29.8875    8.5880 N   0  0  0  0  0  0
    1.9568   29.8610    7.9501 C   0  0  0  0  0  0
    2.0764   30.8167    6.9475 N   0  0  0  0  0  0
   -0.6702   29.0823   10.2052 N   0  0  0  0  0  0
   -1.2748   28.0224   11.0096 C   0  0  0  0  0  0
   -1.2514   26.6554   10.2895 C   0  0  0  0  0  0
   -2.0958   25.6674   11.1067 C   0  0  0  0  0  0
   -1.5851   25.5589   12.5014 N   0  0  2  0  0  0
   -1.4412   26.8451   13.2480 C   0  0  0  0  0  0
   -0.6983   27.9370   12.4388 C   0  0  0  0  0  0
   -0.4998   24.2133   12.9008 S   0  0  0  0  0  0
   -0.3438   24.1719   14.3591 O   0  0  0  0  0  0
   -0.9439   23.0320   12.1546 O   0  0  0  0  0  0
    1.1610   24.7176   12.1759 C   0  0  0  0  0  0
    7.3457   25.5834    9.0194 H   0  0  0  0  0  0
    6.5304   24.6407    7.7766 H   0  0  0  0  0  0
    7.8544   25.7473    7.3408 H   0  0  0  0  0  0
    6.3428   25.2510    5.5305 H   0  0  0  0  0  0
    5.2074   25.7382    3.4273 H   0  0  0  0  0  0
    3.6613   27.6531    3.2612 H   0  0  0  0  0  0
    3.2354   29.0759    5.2186 H   0  0  0  0  0  0
    3.4414   27.3940    9.7348 H   0  0  0  0  0  0
    3.0051   31.0115    6.5802 H   0  0  0  0  0  0
    1.3272   31.4874    6.8721 H   0  0  0  0  0  0
   -1.3006   29.7581    9.8004 H   0  0  0  0  0  0
   -2.3214   28.3233   11.0988 H   0  0  0  0  0  0
   -1.6092   26.7339    9.2649 H   0  0  0  0  0  0
   -0.2390   26.2671   10.1984 H   0  0  0  0  0  0
   -3.1381   26.0045   11.1495 H   0  0  0  0  0  0
   -2.0955   24.6808   10.6417 H   0  0  0  0  0  0
   -2.4422   27.1815   13.5175 H   0  0  0  0  0  0
   -0.9207   26.6566   14.1868 H   0  0  0  0  0  0
    0.3708   27.7330   12.4174 H   0  0  0  0  0  0
   -0.8038   28.8960   12.9474 H   0  0  0  0  0  0
    1.9098   24.0243   12.5549 H   0  0  0  0  0  0
    1.1110   24.6645   11.0894 H   0  0  0  0  0  0
    1.4008   25.7287   12.4970 H   0  0  0  0  0  0
  1  2  1  0  0  0
  1 29  1  0  0  0
  1 30  1  0  0  0
  1 31  1  0  0  0
  2  3  1  0  0  0
  3  8  1  0  0  0
  3  4  2  0  0  0
  4  5  1  0  0  0
  4 32  1  0  0  0
  5  6  2  0  0  0
  5 33  1  0  0  0
  6  7  1  0  0  0
  6 34  1  0  0  0
  7  8  2  0  0  0
  7 35  1  0  0  0
  8  9  1  0  0  0
  9 10  2  0  0  0
  9 11  1  0  0  0
 11 16  1  0  0  0
 11 12  2  0  0  0
 12 13  1  0  0  0
 12 36  1  0  0  0
 13 14  2  0  0  0
 14 15  1  0  0  0
 14 18  1  0  0  0
 15 16  2  0  0  0
 16 17  1  0  0  0
 17 37  1  0  0  0
 17 38  1  0  0  0
 18 19  1  0  0  0
 18 39  1  0  0  0
 19 24  1  0  0  0
 19 20  1  0  0  0
 19 40  1  0  0  0
 20 21  1  0  0  0
 20 41  1  0  0  0
 20 42  1  0  0  0
 21 22  1  0  0  0
 21 43  1  0  0  0
 21 44  1  0  0  0
 22 23  1  0  0  0
 22 25  1  0  0  0
 23 24  1  0  0  0
 23 45  1  0  0  0
 23 46  1  0  0  0
 24 47  1  0  0  0
 24 48  1  0  0  0
 25 26  2  0  0  0
 25 27  2  0  0  0
 25 28  1  0  0  0
 28 49  1  0  0  0
 28 50  1  0  0  0
 28 51  1  0  0  0
M  END
> <s_m_entry_id>
34976

> <s_m_entry_name>
ligand_docking-pose.473

> <s_m_Source_Path>
/home/csk/Desktop/cluster/DUD-E-result/cdk2

> <s_m_Source_File>
ligand_docking-pose.sdf

> <i_m_Source_File_Index>
473

> <i_lp_mmshare_version>
53161

> <r_lp_tautomer_probability>
1

> <s_lp_Force_Field>
OPLS_2005

> <r_lp_Energy>
17.413994

> <b_lp_Chiralities_Consistent>
1

> <s_lp_Variant>
361215-1

> <s_i_glide_gridfile>
glide-grid_1h00

> <i_i_glide_lignum>
1675

> <i_i_glide_rotatable_bonds>
6

> <r_i_docking_score>
-6.9053928062157

> <r_i_glide_ligand_efficiency>
-0.246621171650561

> <r_i_glide_ligand_efficiency_sa>
-0.748887129233332

> <r_i_glide_ligand_efficiency_ln>
-1.59396741081746

> <r_i_glide_gscore>
-6.9053928062157

> <r_i_glide_lipo>
-2.42536375988646

> <r_i_glide_hbond>
-0.32

> <r_i_glide_metal>
0

> <r_i_glide_rewards>
-1.60414480743474

> <r_i_glide_evdw>
-42.034351348877

> <r_i_glide_ecoul>
-6.2154688835144

> <r_i_glide_erotb>
0.478153661076511

> <r_i_glide_esite>
0

> <r_i_glide_emodel>
-61.2080864962013

> <r_i_glide_energy>
-48.2498202323914

> <r_i_glide_einternal>
11.1287593841553

> <i_i_glide_confnum>
10

> <i_i_glide_posenum>
114

> <r_i_glide_eff_state_penalty>
0

> <i_f3d_flags>
0

> <s_user_duplicate_titles>
361215

> <s_m_subgroup_title>
dock_pv

> <s_m_subgroupid>
dock_pv1

> <b_m_subgroup_collapsed>
0

$$$$
116177
                    3D
 Schrodinger Suite 2021-1.
 39 44  0  0  1  0            999 V2000
    2.4351   29.7377    7.3280 C   0  0  0  0  0  0
    1.2396   30.3102    7.9508 N   0  0  0  0  0  0
    0.8622   31.5648    7.5257 C   0  0  0  0  0  0
   -0.2204   32.0300    8.2012 C   0  0  0  0  0  0
   -0.6082   30.9960    9.0891 C   0  0  0  0  0  0
    0.3696   29.9322    9.0098 C   0  0  0  0  0  0
    0.2436   28.7910    9.9127 C   0  0  0  0  0  0
   -0.9367   28.7435   10.7307 C   0  0  0  0  0  0
   -1.8657   29.8024   10.7376 C   0  0  0  0  0  0
   -1.6931   30.9214    9.9555 C   0  0  0  0  0  0
   -1.2057   27.6258   11.5667 C   0  0  0  0  0  0
   -0.3815   26.4971   11.6038 C   0  0  0  0  0  0
   -0.9994   25.5714   12.4909 C   0  0  0  0  0  0
   -0.6953   24.2668   12.9229 C   0  0  0  0  0  0
   -1.5382   23.6397   13.8414 C   0  0  0  0  0  0
   -2.6646   24.2846   14.3461 C   0  0  0  0  0  0
   -2.9910   25.5840   13.9635 C   0  0  0  0  0  0
   -2.1579   26.2040   13.0268 C   0  0  0  0  0  0
   -2.2473   27.4520   12.4550 N   0  0  0  0  0  0
   -3.8147   23.3615   15.5511 Br  0  0  0  0  0  0
    0.8026   26.5457   10.8522 C   0  0  0  0  0  0
    1.1485   27.6738   10.1088 C   0  0  0  0  0  0
    2.5901   27.4609    9.7766 C   0  0  0  0  0  0
    3.4392   28.2432    9.3759 O   0  0  0  0  0  0
    2.8578   26.1841   10.0654 N   0  0  0  0  0  0
    1.9044   25.5534   10.7492 C   0  0  0  0  0  0
    1.9953   24.4159   11.2066 O   0  0  0  0  0  0
   -2.9501   28.1435   12.6941 H   0  0  0  0  0  0
    2.5029   30.0677    6.2895 H   0  0  0  0  0  0
    3.3189   30.1214    7.8398 H   0  0  0  0  0  0
    2.4536   28.6542    7.2894 H   0  0  0  0  0  0
    1.4299   32.0554    6.7493 H   0  0  0  0  0  0
   -0.6959   32.9879    8.0432 H   0  0  0  0  0  0
   -2.7350   29.7612   11.3759 H   0  0  0  0  0  0
   -2.4123   31.7264   10.0055 H   0  0  0  0  0  0
    0.1644   23.7343   12.5535 H   0  0  0  0  0  0
   -1.3190   22.6296   14.1568 H   0  0  0  0  0  0
   -3.8677   26.0788   14.3558 H   0  0  0  0  0  0
    3.7975   25.8182    9.9774 H   0  0  0  0  0  0
  1  2  1  0  0  0
  1 29  1  0  0  0
  1 30  1  0  0  0
  1 31  1  0  0  0
  2  6  1  0  0  0
  2  3  1  0  0  0
  3  4  2  0  0  0
  3 32  1  0  0  0
  4  5  1  0  0  0
  4 33  1  0  0  0
  5 10  2  0  0  0
  5  6  1  0  0  0
  6  7  2  0  0  0
  7 22  1  0  0  0
  7  8  1  0  0  0
  8  9  2  0  0  0
  8 11  1  0  0  0
  9 10  1  0  0  0
  9 34  1  0  0  0
 10 35  1  0  0  0
 11 19  1  0  0  0
 11 12  2  0  0  0
 12 13  1  0  0  0
 12 21  1  0  0  0
 13 18  2  0  0  0
 13 14  1  0  0  0
 14 15  2  0  0  0
 14 36  1  0  0  0
 15 16  1  0  0  0
 15 37  1  0  0  0
 16 17  2  0  0  0
 16 20  1  0  0  0
 17 18  1  0  0  0
 17 38  1  0  0  0
 18 19  1  0  0  0
 19 28  1  0  0  0
 21 26  1  0  0  0
 21 22  2  0  0  0
 22 23  1  0  0  0
 23 24  2  0  0  0
 23 25  1  0  0  0
 25 26  1  0  0  0
 25 39  1  0  0  0
 26 27  2  0  0  0
M  END
> <s_m_entry_id>
34978

> <s_m_entry_name>
ligand_docking-pose.475

> <s_m_Source_Path>
/home/csk/Desktop/cluster/DUD-E-result/cdk2

> <s_m_Source_File>
ligand_docking-pose.sdf

> <i_m_Source_File_Index>
475

> <i_lp_mmshare_version>
53161

> <r_lp_tautomer_probability>
1

> <s_lp_Force_Field>
OPLS_2005

> <r_lp_Energy>
90.540236

> <b_lp_Chiralities_Consistent>
1

> <s_lp_Variant>
116177-1

> <s_i_glide_gridfile>
glide-grid_1h00

> <i_i_glide_lignum>
1450

> <i_i_glide_rotatable_bonds>
0

> <r_i_docking_score>
-6.90047946458254

> <r_i_glide_ligand_efficiency>
-0.255573313503057

> <r_i_glide_ligand_efficiency_sa>
-0.766719939666843

> <r_i_glide_ligand_efficiency_ln>
-1.60631785605976

> <r_i_glide_gscore>
-6.90047946458254

> <r_i_glide_lipo>
-2.52626660459742

> <r_i_glide_hbond>
-0.237286926496433

> <r_i_glide_metal>
0

> <r_i_glide_rewards>
-1.20501586408028

> <r_i_glide_evdw>
-39.0585136413574

> <r_i_glide_ecoul>
-6.00636529922485

> <r_i_glide_erotb>
0

> <r_i_glide_esite>
-0.0780295924568076

> <r_i_glide_emodel>
-64.6386850053205

> <r_i_glide_energy>
-45.0648789405823

> <r_i_glide_einternal>
0

> <i_i_glide_confnum>
1

> <i_i_glide_posenum>
133

> <r_i_glide_eff_state_penalty>
0

> <i_f3d_flags>
0

> <s_user_duplicate_titles>
116177

> <s_m_subgroup_title>
dock_pv

> <s_m_subgroupid>
dock_pv1

> <b_m_subgroup_collapsed>
0

$$$$
316473
                    3D
 Schrodinger Suite 2021-1.
 35 38  0  0  1  0            999 V2000
    4.0063   28.6195    6.3970 C   0  0  0  0  0  0
    4.3275   28.8734    8.1684 S   0  0  0  0  0  0
    2.6996   28.7406    8.8371 C   0  0  0  0  0  0
    1.5523   29.5756    8.6098 C   0  0  0  0  0  0
    0.5595   29.0522    9.4765 C   0  0  0  0  0  0
   -0.6872   29.5277    9.6078 N   0  0  0  0  0  0
   -0.9080   30.6561    8.8922 C   0  0  0  0  0  0
   -0.0508   31.2479    8.0338 N   0  0  0  0  0  0
    1.1675   30.6958    7.8407 C   0  0  0  0  0  0
    2.0588   31.2275    6.9608 O   0  0  0  0  0  0
   -2.2330   31.3815    9.0907 C   0  0  0  0  0  0
   -3.5201   30.6664    9.4491 C   0  0  0  0  0  0
   -2.8457   31.5575   10.4644 C   0  0  0  0  0  0
    1.1376   27.9885   10.1524 N   0  0  0  0  0  0
    2.4296   27.8511    9.7665 N   0  0  0  0  0  0
    0.5757   27.1682   11.1686 C   0  0  0  0  0  0
   -0.0986   27.7486   12.2666 C   0  0  0  0  0  0
   -0.7410   26.9405   13.2040 C   0  0  0  0  0  0
   -0.6896   25.5550   13.0979 C   0  0  0  0  0  0
   -0.0032   24.9695   12.0389 C   0  0  0  0  0  0
    0.6221   25.7600   11.0729 C   0  0  0  0  0  0
    1.4124   24.9316    9.7758 Cl  0  0  0  0  0  0
   -1.4604   24.5687   14.2867 Cl  0  0  0  0  0  0
   -0.0986   29.4526   12.5766 Cl  0  0  0  0  0  0
    4.9284   28.3079    5.9061 H   0  0  0  0  0  0
    3.2634   27.8522    6.2262 H   0  0  0  0  0  0
    3.6571   29.5158    5.8979 H   0  0  0  0  0  0
    2.9390   30.8402    7.0122 H   0  0  0  0  0  0
   -2.3438   32.2455    8.4332 H   0  0  0  0  0  0
   -3.5044   29.5868    9.6004 H   0  0  0  0  0  0
   -4.4392   31.0075    8.9765 H   0  0  0  0  0  0
   -3.3042   32.5141   10.7178 H   0  0  0  0  0  0
   -2.3416   31.1075   11.3207 H   0  0  0  0  0  0
   -1.2687   27.3945   14.0296 H   0  0  0  0  0  0
    0.0350   23.8932   11.9586 H   0  0  0  0  0  0
  1  2  1  0  0  0
  1 25  1  0  0  0
  1 26  1  0  0  0
  1 27  1  0  0  0
  2  3  1  0  0  0
  3 15  2  0  0  0
  3  4  1  0  0  0
  4  9  2  0  0  0
  4  5  1  0  0  0
  5  6  2  0  0  0
  5 14  1  0  0  0
  6  7  1  0  0  0
  7  8  2  0  0  0
  7 11  1  0  0  0
  8  9  1  0  0  0
  9 10  1  0  0  0
 10 28  1  0  0  0
 11 13  1  0  0  0
 11 12  1  0  0  0
 11 29  1  0  0  0
 12 13  1  0  0  0
 12 30  1  0  0  0
 12 31  1  0  0  0
 13 32  1  0  0  0
 13 33  1  0  0  0
 14 15  1  0  0  0
 14 16  1  0  0  0
 16 21  1  0  0  0
 16 17  2  0  0  0
 17 18  1  0  0  0
 17 24  1  0  0  0
 18 19  2  0  0  0
 18 34  1  0  0  0
 19 20  1  0  0  0
 19 23  1  0  0  0
 20 21  2  0  0  0
 20 35  1  0  0  0
 21 22  1  0  0  0
M  END
> <s_m_entry_id>
34979

> <s_m_entry_name>
ligand_docking-pose.476

> <s_m_Source_Path>
/home/csk/Desktop/cluster/DUD-E-result/cdk2

> <s_m_Source_File>
ligand_docking-pose.sdf

> <i_m_Source_File_Index>
476

> <i_lp_mmshare_version>
53161

> <r_lp_tautomer_probability>
1

> <s_lp_Force_Field>
OPLS_2005

> <r_lp_Energy>
6.245172

> <b_lp_Chiralities_Consistent>
1

> <s_lp_Variant>
316473-1

> <s_i_glide_gridfile>
glide-grid_1h00

> <i_i_glide_lignum>
1744

> <i_i_glide_rotatable_bonds>
4

> <r_i_docking_score>
-6.90022144482526

> <r_i_glide_ligand_efficiency>
-0.287509226867719

> <r_i_glide_ligand_efficiency_sa>
-0.829320116940225

> <r_i_glide_ligand_efficiency_ln>
-1.65153962227687

> <r_i_glide_gscore>
-6.90022144482526

> <r_i_glide_lipo>
-2.71961083488295

> <r_i_glide_hbond>
-0.141281688440854

> <r_i_glide_metal>
0

> <r_i_glide_rewards>
-1.75108205523705

> <r_i_glide_evdw>
-41.655574798584

> <r_i_glide_ecoul>
-2.99071097373962

> <r_i_glide_erotb>
0.243138519725732

> <r_i_glide_esite>
0

> <r_i_glide_emodel>
-61.4718780226274

> <r_i_glide_energy>
-44.6462857723236

> <r_i_glide_einternal>
3.93462157249451

> <i_i_glide_confnum>
7

> <i_i_glide_posenum>
174

> <r_i_glide_eff_state_penalty>
0

> <i_f3d_flags>
0

> <s_user_duplicate_titles>
316473

> <s_m_subgroup_title>
dock_pv

> <s_m_subgroupid>
dock_pv1

> <b_m_subgroup_collapsed>
0

$$$$
312937
                    3D
 Schrodinger Suite 2021-1.
 37 40  0  0  1  0            999 V2000
    1.0558   25.5251   11.2147 C   0  0  0  0  0  0
    0.9982   26.7367   10.5235 C   0  0  0  0  0  0
   -0.0510   27.6331   10.8037 C   0  0  0  0  0  0
   -0.5139   28.9177   10.3821 C   0  0  0  0  0  0
   -1.6598   29.1068   11.1632 C   0  0  0  0  0  0
   -1.9406   28.1141   11.9768 N   0  0  0  0  0  0
   -0.9672   27.2064   11.7836 N   0  0  0  0  0  0
   -0.9537   26.0530   12.4760 N   0  0  0  0  0  0
    0.0788   25.2295   12.1643 C   0  0  0  0  0  0
    0.0594   29.8524    9.3608 C   0  0  0  0  0  0
   -0.5388   31.0792    9.0517 C   0  0  0  0  0  0
    0.1000   31.8742    8.0993 C   0  0  0  0  0  0
    1.2133   31.4657    7.4273 N   0  0  0  0  0  0
    1.7238   30.2566    7.7787 C   0  0  0  0  0  0
    1.2020   29.4520    8.7418 N   0  0  0  0  0  0
    2.8580   29.8520    7.0607 N   0  0  0  0  0  0
    3.6264   28.6782    7.0616 C   0  0  0  0  0  0
    3.8024   27.9019    8.2055 C   0  0  0  0  0  0
    4.4319   26.6654    8.1125 C   0  0  0  0  0  0
    4.9603   26.2177    6.9037 C   0  0  0  0  0  0
    4.8501   27.0181    5.7532 C   0  0  0  0  0  0
    4.1866   28.2519    5.8537 C   0  0  0  0  0  0
    5.3919   26.5400    4.4019 C   0  0  0  0  0  0
    5.2383   27.4504    3.4392 F   0  0  0  0  0  0
    4.7353   25.4391    4.0359 F   0  0  0  0  0  0
    6.6896   26.2516    4.4917 F   0  0  0  0  0  0
    5.7143   24.6593    6.8778 Cl  0  0  0  0  0  0
    1.8530   24.8253   11.0116 H   0  0  0  0  0  0
    1.7423   26.9685    9.7805 H   0  0  0  0  0  0
   -2.3035   29.9749   11.1397 H   0  0  0  0  0  0
    0.1135   24.2963   12.7069 H   0  0  0  0  0  0
   -1.4350   31.4216    9.5471 H   0  0  0  0  0  0
   -0.2851   32.8508    7.8401 H   0  0  0  0  0  0
    3.2744   30.5868    6.4984 H   0  0  0  0  0  0
    3.4153   28.2268    9.1589 H   0  0  0  0  0  0
    4.4578   26.0264    8.9752 H   0  0  0  0  0  0
    4.0600   28.8681    4.9765 H   0  0  0  0  0  0
  1  9  1  0  0  0
  1  2  2  0  0  0
  1 28  1  0  0  0
  2  3  1  0  0  0
  2 29  1  0  0  0
  3  7  1  0  0  0
  3  4  2  0  0  0
  4  5  1  0  0  0
  4 10  1  0  0  0
  5  6  2  0  0  0
  5 30  1  0  0  0
  6  7  1  0  0  0
  7  8  1  0  0  0
  8  9  2  0  0  0
  9 31  1  0  0  0
 10 15  1  0  0  0
 10 11  2  0  0  0
 11 12  1  0  0  0
 11 32  1  0  0  0
 12 13  2  0  0  0
 12 33  1  0  0  0
 13 14  1  0  0  0
 14 15  2  0  0  0
 14 16  1  0  0  0
 16 17  1  0  0  0
 16 34  1  0  0  0
 17 22  1  0  0  0
 17 18  2  0  0  0
 18 19  1  0  0  0
 18 35  1  0  0  0
 19 20  2  0  0  0
 19 36  1  0  0  0
 20 21  1  0  0  0
 20 27  1  0  0  0
 21 22  2  0  0  0
 21 23  1  0  0  0
 22 37  1  0  0  0
 23 24  1  0  0  0
 23 25  1  0  0  0
 23 26  1  0  0  0
M  END
> <s_m_entry_id>
34980

> <s_m_entry_name>
ligand_docking-pose.477

> <s_m_Source_Path>
/home/csk/Desktop/cluster/DUD-E-result/cdk2

> <s_m_Source_File>
ligand_docking-pose.sdf

> <i_m_Source_File_Index>
477

> <i_lp_mmshare_version>
53161

> <r_lp_tautomer_probability>
0.999999987636

> <s_lp_Force_Field>
OPLS_2005

> <r_lp_Energy>
16.649402

> <b_lp_Chiralities_Consistent>
1

> <s_lp_Variant>
312937-1

> <s_i_glide_gridfile>
glide-grid_1h00

> <i_i_glide_lignum>
84

> <i_i_glide_rotatable_bonds>
4

> <r_i_docking_score>
-6.89721015472003

> <r_i_glide_ligand_efficiency>
-0.255452227952594

> <r_i_glide_ligand_efficiency_sa>
-0.766356683015853

> <r_i_glide_ligand_efficiency_ln>
-1.60555681462255

> <r_i_glide_gscore>
-6.89721015472003

> <r_i_glide_lipo>
-2.47788192910195

> <r_i_glide_hbond>
-0.315148804604396

> <r_i_glide_metal>
0

> <r_i_glide_rewards>
-2.06752949039146

> <r_i_glide_evdw>
-36.7838554382324

> <r_i_glide_ecoul>
-3.49369525909424

> <r_i_glide_erotb>
0.383291531499934

> <r_i_glide_esite>
-0.0566944013463962

> <r_i_glide_emodel>
-57.6262111066128

> <r_i_glide_energy>
-40.2775506973267

> <r_i_glide_einternal>
1.41335046291351

> <i_i_glide_confnum>
4

> <i_i_glide_posenum>
9

> <r_i_glide_eff_state_penalty>
0

> <i_f3d_flags>
0

> <s_user_duplicate_titles>
312937

> <s_m_subgroup_title>
dock_pv

> <s_m_subgroupid>
dock_pv1

> <b_m_subgroup_collapsed>
0

$$$$
361146
                    3D
 Schrodinger Suite 2021-1.
 51 53  0  0  1  0            999 V2000
    7.1171   25.8522    8.2867 C   0  0  0  0  0  0
    6.0587   26.7823    8.0916 O   0  0  0  0  0  0
    5.4993   26.9255    6.8338 C   0  0  0  0  0  0
    5.7715   26.0486    5.7675 C   0  0  0  0  0  0
    5.1701   26.2280    4.5230 C   0  0  0  0  0  0
    4.2869   27.2829    4.3248 C   0  0  0  0  0  0
    3.9977   28.1555    5.3732 C   0  0  0  0  0  0
    4.5944   27.9836    6.6260 C   0  0  0  0  0  0
    4.3220   28.9787    7.6967 C   0  0  0  0  0  0
    5.2319   29.6427    8.1764 O   0  0  0  0  0  0
    2.9808   29.0277    8.3142 C   0  0  0  0  0  0
    2.7159   28.1563    9.3755 C   0  0  0  0  0  0
    1.5297   28.1516   10.0289 N   0  0  0  0  0  0
    0.5924   29.0391    9.6030 C   0  0  0  0  0  0
    0.7564   29.9205    8.5899 N   0  0  0  0  0  0
    1.9494   29.9121    7.9529 C   0  0  0  0  0  0
    2.0582   30.8558    6.9374 N   0  0  0  0  0  0
   -0.6738   29.0721   10.1963 N   0  0  0  0  0  0
   -1.2672   27.9523   10.9251 C   0  0  0  0  0  0
   -1.1823   26.6294   10.1279 C   0  0  0  0  0  0
   -1.9894   25.5599   10.8715 C   0  0  0  0  0  0
   -1.5188   25.3983   12.2739 N   0  0  2  0  0  0
   -1.4477   26.6476   13.0901 C   0  0  0  0  0  0
   -0.7179   27.8016   12.3600 C   0  0  0  0  0  0
   -0.4014   24.0698   12.6384 S   0  0  0  0  0  0
   -0.3423   23.9227   14.0970 O   0  0  0  0  0  0
   -0.7421   22.9318   11.7770 O   0  0  0  0  0  0
    1.2769   24.7058   12.0726 C   0  0  0  0  0  0
    3.7013   27.4521    3.1159 F   0  0  0  0  0  0
    7.4899   25.9363    9.3076 H   0  0  0  0  0  0
    6.7744   24.8271    8.1455 H   0  0  0  0  0  0
    7.9539   26.0478    7.6144 H   0  0  0  0  0  0
    6.4511   25.2194    5.8839 H   0  0  0  0  0  0
    5.3854   25.5509    3.7085 H   0  0  0  0  0  0
    3.3148   28.9733    5.1979 H   0  0  0  0  0  0
    3.4588   27.4534    9.7347 H   0  0  0  0  0  0
    2.9852   31.0491    6.5647 H   0  0  0  0  0  0
    1.3036   31.5177    6.8477 H   0  0  0  0  0  0
   -1.3166   29.7301    9.7822 H   0  0  0  0  0  0
   -2.3242   28.2164   11.0007 H   0  0  0  0  0  0
   -1.5422   26.7600    9.1085 H   0  0  0  0  0  0
   -0.1590   26.2802   10.0195 H   0  0  0  0  0  0
   -3.0393   25.8519   10.9057 H   0  0  0  0  0  0
   -1.9413   24.6021   10.3563 H   0  0  0  0  0  0
   -2.4685   26.9381   13.3445 H   0  0  0  0  0  0
   -0.9493   26.4275   14.0346 H   0  0  0  0  0  0
    0.3561   27.6209   12.3532 H   0  0  0  0  0  0
   -0.8582   28.7290   12.9175 H   0  0  0  0  0  0
    2.0290   23.9655   12.3355 H   0  0  0  0  0  0
    1.2618   24.8443   10.9941 H   0  0  0  0  0  0
    1.4908   25.6473   12.5738 H   0  0  0  0  0  0
  1  2  1  0  0  0
  1 30  1  0  0  0
  1 31  1  0  0  0
  1 32  1  0  0  0
  2  3  1  0  0  0
  3  8  1  0  0  0
  3  4  2  0  0  0
  4  5  1  0  0  0
  4 33  1  0  0  0
  5  6  2  0  0  0
  5 34  1  0  0  0
  6  7  1  0  0  0
  6 29  1  0  0  0
  7  8  2  0  0  0
  7 35  1  0  0  0
  8  9  1  0  0  0
  9 10  2  0  0  0
  9 11  1  0  0  0
 11 16  1  0  0  0
 11 12  2  0  0  0
 12 13  1  0  0  0
 12 36  1  0  0  0
 13 14  2  0  0  0
 14 15  1  0  0  0
 14 18  1  0  0  0
 15 16  2  0  0  0
 16 17  1  0  0  0
 17 37  1  0  0  0
 17 38  1  0  0  0
 18 19  1  0  0  0
 18 39  1  0  0  0
 19 24  1  0  0  0
 19 20  1  0  0  0
 19 40  1  0  0  0
 20 21  1  0  0  0
 20 41  1  0  0  0
 20 42  1  0  0  0
 21 22  1  0  0  0
 21 43  1  0  0  0
 21 44  1  0  0  0
 22 23  1  0  0  0
 22 25  1  0  0  0
 23 24  1  0  0  0
 23 45  1  0  0  0
 23 46  1  0  0  0
 24 47  1  0  0  0
 24 48  1  0  0  0
 25 26  2  0  0  0
 25 27  2  0  0  0
 25 28  1  0  0  0
 28 49  1  0  0  0
 28 50  1  0  0  0
 28 51  1  0  0  0
M  END
> <s_m_entry_id>
34981

> <s_m_entry_name>
ligand_docking-pose.478

> <s_m_Source_Path>
/home/csk/Desktop/cluster/DUD-E-result/cdk2

> <s_m_Source_File>
ligand_docking-pose.sdf

> <i_m_Source_File_Index>
478

> <i_lp_mmshare_version>
53161

> <r_lp_tautomer_probability>
1

> <s_lp_Force_Field>
OPLS_2005

> <r_lp_Energy>
16.06486

> <b_lp_Chiralities_Consistent>
1

> <s_lp_Variant>
361146-1

> <s_i_glide_gridfile>
glide-grid_1h00

> <i_i_glide_lignum>
1678

> <i_i_glide_rotatable_bonds>
6

> <r_i_docking_score>
-6.89701404706218

> <r_i_glide_ligand_efficiency>
-0.237828070588351

> <r_i_glide_ligand_efficiency_sa>
-0.73068318206885

> <r_i_glide_ligand_efficiency_ln>
-1.5792413235912

> <r_i_glide_gscore>
-6.89701404706218

> <r_i_glide_lipo>
-2.3452495192117

> <r_i_glide_hbond>
-0.32

> <r_i_glide_metal>
0

> <r_i_glide_rewards>
-1.46344262076219

> <r_i_glide_evdw>
-43.7837829589844

> <r_i_glide_ecoul>
-6.63366222381592

> <r_i_glide_erotb>
0.442104584604931

> <r_i_glide_esite>
-0.0261880101716152

> <r_i_glide_emodel>
-62.2662349958485

> <r_i_glide_energy>
-50.4174451828003

> <r_i_glide_einternal>
11.6898584365845

> <i_i_glide_confnum>
10

> <i_i_glide_posenum>
251

> <r_i_glide_eff_state_penalty>
0

> <i_f3d_flags>
0

> <s_user_duplicate_titles>
361146

> <s_m_subgroup_title>
dock_pv

> <s_m_subgroupid>
dock_pv1

> <b_m_subgroup_collapsed>
0

$$$$
321119
                    3D
 Schrodinger Suite 2021-1.
 45 48  0  0  1  0            999 V2000
    5.1427   29.5911    8.3040 C   0  0  0  0  0  0
    4.1525   28.9557    7.3516 C   0  0  2  0  0  0
    2.7611   29.2596    7.8740 C   0  0  0  0  0  0
    2.2698   28.6520    9.0285 C   0  0  0  0  0  0
    1.0490   29.0520    9.5575 C   0  0  0  0  0  0
    0.2836   30.0639    8.9449 C   0  0  0  0  0  0
    0.7983   30.6520    7.7760 C   0  0  0  0  0  0
    2.0242   30.2650    7.2556 C   0  0  0  0  0  0
   -0.9681   30.4949    9.5025 N   0  0  0  0  0  0
   -1.5260   31.7274    9.3164 C   0  0  0  0  0  0
   -1.0840   32.7057    8.7146 O   0  0  0  0  0  0
   -2.8448   31.7305   10.0258 C   0  0  0  0  0  0
   -2.8485   30.4249   10.5760 N   0  0  0  0  0  0
   -1.7677   29.7068   10.2868 C   0  0  0  0  0  0
   -1.6224   28.5237   10.5861 O   0  0  0  0  0  0
    4.4580   27.4647    7.0937 C   0  0  0  0  0  0
    4.6351   26.6889    8.0329 O   0  0  0  0  0  0
    4.4580   27.1130    5.7936 N   0  0  0  0  0  0
    4.4990   25.8372    5.2791 C   0  0  0  0  0  0
    4.4580   24.5883    5.9254 C   0  0  0  0  0  0
    4.4420   23.6313    4.9238 C   0  0  0  0  0  0
    4.4843   24.3762    3.7760 N   0  0  0  0  0  0
    4.5184   25.6946    3.9781 N   0  0  0  0  0  0
    4.3634   22.1215    4.9149 C   0  0  0  0  0  0
    4.1503   21.3508    6.1954 C   0  0  0  0  0  0
    3.0415   21.4401    5.1633 C   0  0  0  0  0  0
    4.4580   23.9997    2.8331 H   0  0  0  0  0  0
    5.2576   29.0520    9.2451 H   0  0  0  0  0  0
    6.0580   29.5533    7.7760 H   0  0  0  0  0  0
    4.9268   30.6402    8.5139 H   0  0  0  0  0  0
    4.2591   29.4520    6.3881 H   0  0  0  0  0  0
    2.8494   27.8986    9.5435 H   0  0  0  0  0  0
    0.7437   28.5810   10.4788 H   0  0  0  0  0  0
    0.2696   31.4288    7.2527 H   0  0  0  0  0  0
    2.4053   30.7632    6.3755 H   0  0  0  0  0  0
   -2.8917   32.4856   10.8121 H   0  0  0  0  0  0
   -3.6835   31.8520    9.3425 H   0  0  0  0  0  0
   -3.4057   30.2520   11.4118 H   0  0  0  0  0  0
    4.3993   27.8495    5.1088 H   0  0  0  0  0  0
    4.4112   24.4065    6.9882 H   0  0  0  0  0  0
    5.0119   21.6552    4.1717 H   0  0  0  0  0  0
    4.0427   21.9007    7.1310 H   0  0  0  0  0  0
    4.6848   20.4097    6.3268 H   0  0  0  0  0  0
    2.7946   20.5682    4.5586 H   0  0  0  0  0  0
    2.1678   22.0576    5.3751 H   0  0  0  0  0  0
  1  2  1  0  0  0
  1 28  1  0  0  0
  1 29  1  0  0  0
  1 30  1  0  0  0
  2  3  1  0  0  0
  2 16  1  0  0  0
  2 31  1  0  0  0
  3  8  1  0  0  0
  3  4  2  0  0  0
  4  5  1  0  0  0
  4 32  1  0  0  0
  5  6  2  0  0  0
  5 33  1  0  0  0
  6  7  1  0  0  0
  6  9  1  0  0  0
  7  8  2  0  0  0
  7 34  1  0  0  0
  8 35  1  0  0  0
  9 14  1  0  0  0
  9 10  1  0  0  0
 10 11  2  0  0  0
 10 12  1  0  0  0
 12 13  1  0  0  0
 12 36  1  0  0  0
 12 37  1  0  0  0
 13 14  1  0  0  0
 13 38  1  0  0  0
 14 15  2  0  0  0
 16 17  2  0  0  0
 16 18  1  0  0  0
 18 19  1  0  0  0
 18 39  1  0  0  0
 19 23  2  0  0  0
 19 20  1  0  0  0
 20 21  2  0  0  0
 20 40  1  0  0  0
 21 22  1  0  0  0
 21 24  1  0  0  0
 22 27  1  0  0  0
 22 23  1  0  0  0
 24 26  1  0  0  0
 24 25  1  0  0  0
 24 41  1  0  0  0
 25 26  1  0  0  0
 25 42  1  0  0  0
 25 43  1  0  0  0
 26 44  1  0  0  0
 26 45  1  0  0  0
M  END
> <s_m_entry_id>
34982

> <s_m_entry_name>
ligand_docking-pose.479

> <s_m_Source_Path>
/home/csk/Desktop/cluster/DUD-E-result/cdk2

> <s_m_Source_File>
ligand_docking-pose.sdf

> <i_m_Source_File_Index>
479

> <i_lp_mmshare_version>
53161

> <r_lp_tautomer_probability>
0.499999999999897

> <s_lp_Force_Field>
OPLS_2005

> <r_lp_Energy>
41.932871

> <b_lp_Chiralities_Consistent>
1

> <s_lp_Variant>
321119-1

> <s_i_glide_gridfile>
glide-grid_1h00

> <i_i_glide_lignum>
1047

> <i_i_glide_rotatable_bonds>
6

> <r_i_docking_score>
-6.8967507640345

> <r_i_glide_ligand_efficiency>
-0.265259644770558

> <r_i_glide_ligand_efficiency_sa>
-0.785830653886475

> <r_i_glide_ligand_efficiency_ln>
-1.61967928684845

> <r_i_glide_gscore>
-6.8967507640345

> <r_i_glide_lipo>
-2.32103204395704

> <r_i_glide_hbond>
-0.251259557104877

> <r_i_glide_metal>
0

> <r_i_glide_rewards>
-2.51240375888326

> <r_i_glide_evdw>
-36.4995613098145

> <r_i_glide_ecoul>
-5.21253347396851

> <r_i_glide_erotb>
0.91753701775409

> <r_i_glide_esite>
-0.12273433525741

> <r_i_glide_emodel>
-56.3091779073329

> <r_i_glide_energy>
-41.712094783783

> <r_i_glide_einternal>
3.8972806930542

> <i_i_glide_confnum>
28

> <i_i_glide_posenum>
286

> <r_i_glide_eff_state_penalty>
0

> <i_f3d_flags>
0

> <s_user_duplicate_titles>
321119

> <s_m_subgroup_title>
dock_pv

> <s_m_subgroupid>
dock_pv1

> <b_m_subgroup_collapsed>
0

$$$$
226531
                    3D
 Schrodinger Suite 2021-1.
 54 59  0  0  1  0            999 V2000
    1.6441   23.9455   11.3221 C   0  0  0  0  0  0
    1.4375   22.5676   11.3648 C   0  0  0  0  0  0
    2.0435   21.7420   10.4174 C   0  0  0  0  0  0
    2.8577   22.2943    9.4247 C   0  0  0  0  0  0
    3.0738   23.6843    9.3759 C   0  0  0  0  0  0
    2.4550   24.4980   10.3319 C   0  0  0  0  0  0
    3.9417   24.2733    8.2502 C   0  0  0  0  0  0
    4.6405   23.2683    7.4226 N   0  0  0  0  0  0
    4.3721   21.8956    7.4954 C   0  0  0  0  0  0
    3.5281   21.4326    8.4376 C   0  0  0  0  0  0
    5.1027   23.8091    6.2111 N   0  0  2  0  0  0
    6.3831   25.0370    6.2349 S   0  0  0  0  0  0
    6.9185   25.1322    4.8736 O   0  0  0  0  0  0
    7.2661   24.7606    7.3714 O   0  0  0  0  0  0
    5.5306   26.5688    6.5602 C   0  0  0  0  0  0
    5.5130   27.1085    7.8444 C   0  0  0  0  0  0
    4.6594   28.1660    8.1320 C   0  0  0  0  0  0
    3.8265   28.6943    7.1351 C   0  0  0  0  0  0
    3.9857   28.2483    5.8199 C   0  0  0  0  0  0
    4.8128   27.1713    5.5305 C   0  0  0  0  0  0
    2.8587   29.6711    7.3698 N   0  0  0  0  0  0
    2.0142   29.5351    8.3093 C   0  0  0  0  0  0
    0.8894   30.4631    8.3966 C   0  0  0  0  0  0
   -0.3403   30.3738    9.1440 C   0  0  0  0  0  0
   -1.1156   31.5496    8.9383 C   0  0  0  0  0  0
   -2.4024   31.7145    9.4441 C   0  0  0  0  0  0
   -2.9478   30.6706   10.1900 C   0  0  0  0  0  0
   -2.1753   29.5475   10.5338 C   0  0  0  0  0  0
   -0.8766   29.3852   10.0004 C   0  0  0  0  0  0
   -0.1774   27.8725   10.5706 S   0  0  0  0  0  0
   -1.6419   27.6437   11.4917 C   0  0  0  0  0  0
   -2.5649   28.5568   11.3759 N   0  0  0  0  0  0
   -0.3395   32.3810    8.1764 N   0  0  0  0  0  0
    0.7780   31.6965    7.7784 C   0  0  0  0  0  0
    1.6580   32.3387    6.9758 O   0  0  0  0  0  0
   -0.5331   33.3189    7.8525 H   0  0  0  0  0  0
    1.1753   24.5887   12.0525 H   0  0  0  0  0  0
    0.8066   22.1374   12.1293 H   0  0  0  0  0  0
    1.8762   20.6751   10.4580 H   0  0  0  0  0  0
    2.6093   25.5678   10.3058 H   0  0  0  0  0  0
    4.7016   24.8840    8.7306 H   0  0  0  0  0  0
    3.3214   24.9266    7.6333 H   0  0  0  0  0  0
    4.9050   21.2757    6.7878 H   0  0  0  0  0  0
    3.3583   20.3658    8.4752 H   0  0  0  0  0  0
    4.3361   24.0607    5.5804 H   0  0  0  0  0  0
    6.0969   26.6673    8.6388 H   0  0  0  0  0  0
    4.6040   28.5391    9.1436 H   0  0  0  0  0  0
    3.3932   28.6763    5.0238 H   0  0  0  0  0  0
    4.8552   26.7798    4.5235 H   0  0  0  0  0  0
    2.0263   28.7367    9.0454 H   0  0  0  0  0  0
   -2.9728   32.6136    9.2557 H   0  0  0  0  0  0
   -3.9508   30.7797   10.5696 H   0  0  0  0  0  0
   -1.7666   26.7764   12.1214 H   0  0  0  0  0  0
    2.3854   31.7156    6.8422 H   0  0  0  0  0  0
  1  6  1  0  0  0
  1  2  2  0  0  0
  1 37  1  0  0  0
  2  3  1  0  0  0
  2 38  1  0  0  0
  3  4  2  0  0  0
  3 39  1  0  0  0
  4 10  1  0  0  0
  4  5  1  0  0  0
  5  6  2  0  0  0
  5  7  1  0  0  0
  6 40  1  0  0  0
  7  8  1  0  0  0
  7 41  1  0  0  0
  7 42  1  0  0  0
  8  9  1  0  0  0
  8 11  1  0  0  0
  9 10  2  0  0  0
  9 43  1  0  0  0
 10 44  1  0  0  0
 11 12  1  0  0  0
 11 45  1  0  0  0
 12 13  2  0  0  0
 12 14  2  0  0  0
 12 15  1  0  0  0
 15 20  1  0  0  0
 15 16  2  0  0  0
 16 17  1  0  0  0
 16 46  1  0  0  0
 17 18  2  0  0  0
 17 47  1  0  0  0
 18 19  1  0  0  0
 18 21  1  0  0  0
 19 20  2  0  0  0
 19 48  1  0  0  0
 20 49  1  0  0  0
 21 22  2  0  0  0
 22 23  1  0  0  0
 22 50  1  0  0  0
 23 34  2  0  0  0
 23 24  1  0  0  0
 24 29  2  0  0  0
 24 25  1  0  0  0
 25 26  2  0  0  0
 25 33  1  0  0  0
 26 27  1  0  0  0
 26 51  1  0  0  0
 27 28  2  0  0  0
 27 52  1  0  0  0
 28 32  1  0  0  0
 28 29  1  0  0  0
 29 30  1  0  0  0
 30 31  1  0  0  0
 31 32  2  0  0  0
 31 53  1  0  0  0
 33 36  1  0  0  0
 33 34  1  0  0  0
 34 35  1  0  0  0
 35 54  1  0  0  0
M  END
> <s_m_entry_id>
34983

> <s_m_entry_name>
ligand_docking-pose.480

> <s_m_Source_Path>
/home/csk/Desktop/cluster/DUD-E-result/cdk2

> <s_m_Source_File>
ligand_docking-pose.sdf

> <i_m_Source_File_Index>
480

> <i_lp_mmshare_version>
53161

> <r_lp_tautomer_probability>
1

> <s_lp_Force_Field>
OPLS_2005

> <r_lp_Energy>
55.353886

> <b_lp_Chiralities_Consistent>
1

> <s_lp_Variant>
226531-1

> <s_i_glide_gridfile>
glide-grid_1h00

> <i_i_glide_lignum>
133

> <i_i_glide_rotatable_bonds>
6

> <r_i_docking_score>
-6.89258884239627

> <r_i_glide_ligand_efficiency>
-0.196931109782751

> <r_i_glide_ligand_efficiency_sa>
-0.644174717874984

> <r_i_glide_ligand_efficiency_ln>
-1.51307622367338

> <r_i_glide_gscore>
-6.89258884239627

> <r_i_glide_lipo>
-3.02559453841835

> <r_i_glide_hbond>
-0.32

> <r_i_glide_metal>
0

> <r_i_glide_rewards>
-1.13859656379694

> <r_i_glide_evdw>
-44.7217903137207

> <r_i_glide_ecoul>
-3.65440535545349

> <r_i_glide_erotb>
0.405974931697459

> <r_i_glide_esite>
-0.0301223528743818

> <r_i_glide_emodel>
-66.9126470978119

> <r_i_glide_energy>
-48.3761956691742

> <r_i_glide_einternal>
4.14401483535767

> <i_i_glide_confnum>
96

> <i_i_glide_posenum>
66

> <r_i_glide_eff_state_penalty>
0

> <i_f3d_flags>
0

> <s_user_duplicate_titles>
226531

> <s_m_subgroup_title>
dock_pv

> <s_m_subgroupid>
dock_pv1

> <b_m_subgroup_collapsed>
0

$$$$
137411
                    3D
 Schrodinger Suite 2021-1.
 36 38  0  0  1  0            999 V2000
   -0.3615   25.9065   12.2848 C   0  0  0  0  0  0
   -0.7659   24.8765   13.1283 C   0  0  0  0  0  0
   -0.0982   23.6527   13.0951 C   0  0  0  0  0  0
    0.9583   23.4573   12.2035 C   0  0  0  0  0  0
    1.3615   24.4997   11.3703 C   0  0  0  0  0  0
    0.7125   25.7457   11.4053 C   0  0  0  0  0  0
    1.0297   26.8321   10.5803 N   0  0  0  0  0  0
    2.2283   26.9056   10.1783 N   0  0  0  0  0  0
    2.4614   27.9680    9.3563 C   0  0  0  0  0  0
    1.6033   29.0831    8.9765 C   0  0  0  0  0  0
    0.3088   29.5053    9.3407 C   0  0  0  0  0  0
   -0.2564   30.6511    8.7619 C   0  0  0  0  0  0
    0.4704   31.3606    7.7993 C   0  0  0  0  0  0
    1.7387   30.9706    7.3757 C   0  0  0  0  0  0
    2.3002   29.8519    7.9931 C   0  0  0  0  0  0
    3.5333   29.2658    7.8296 N   0  0  0  0  0  0
    3.6278   28.1658    8.6350 C   0  0  0  0  0  0
    4.7914   27.4505    8.5759 O   0  0  0  0  0  0
   -1.6055   31.1135    9.1750 N   0  3  0  0  0  0
   -1.9521   32.2519    8.8729 O   0  5  0  0  0  0
   -2.3243   30.3367    9.7974 O   0  0  0  0  0  0
   -0.5942   22.3396   14.2079 S   0  0  0  0  0  0
    0.5590   21.4520   14.3833 O   0  0  0  0  0  0
   -1.2565   22.9644   15.3596 O   0  0  0  0  0  0
   -1.8092   21.4515   13.3311 N   0  0  0  0  0  0
    4.2844   29.5602    7.2204 H   0  0  0  0  0  0
   -0.8860   26.8507   12.3166 H   0  0  0  0  0  0
   -1.5939   25.0370   13.8035 H   0  0  0  0  0  0
    1.4696   22.5063   12.1603 H   0  0  0  0  0  0
    2.1754   24.3384   10.6797 H   0  0  0  0  0  0
   -0.2473   28.9520   10.0831 H   0  0  0  0  0  0
    0.0502   32.2611    7.3762 H   0  0  0  0  0  0
    2.2809   31.5320    6.6293 H   0  0  0  0  0  0
    4.9134   26.9541    9.4021 H   0  0  0  0  0  0
   -1.5409   20.4954   13.0630 H   0  0  0  0  0  0
   -2.7310   21.4881   13.7687 H   0  0  0  0  0  0
  1  6  1  0  0  0
  1  2  2  0  0  0
  1 27  1  0  0  0
  2  3  1  0  0  0
  2 28  1  0  0  0
  3  4  2  0  0  0
  3 22  1  0  0  0
  4  5  1  0  0  0
  4 29  1  0  0  0
  5  6  2  0  0  0
  5 30  1  0  0  0
  6  7  1  0  0  0
  7  8  2  3  0  0
  8  9  1  0  0  0
  9 17  2  0  0  0
  9 10  1  0  0  0
 10 15  2  0  0  0
 10 11  1  0  0  0
 11 12  2  0  0  0
 11 31  1  0  0  0
 12 13  1  0  0  0
 12 19  1  0  0  0
 13 14  2  0  0  0
 13 32  1  0  0  0
 14 15  1  0  0  0
 14 33  1  0  0  0
 15 16  1  0  0  0
 16 26  1  0  0  0
 16 17  1  0  0  0
 17 18  1  0  0  0
 18 34  1  0  0  0
 19 20  1  0  0  0
 19 21  2  0  0  0
 22 23  2  0  0  0
 22 24  2  0  0  0
 22 25  1  0  0  0
 25 35  1  0  0  0
 25 36  1  0  0  0
M  CHG  2  19   1  20  -1
M  END
> <s_m_entry_id>
34984

> <s_m_entry_name>
ligand_docking-pose.481

> <s_m_Source_Path>
/home/csk/Desktop/cluster/DUD-E-result/cdk2

> <s_m_Source_File>
ligand_docking-pose.sdf

> <i_m_Source_File_Index>
481

> <i_lp_mmshare_version>
53161

> <r_lp_tautomer_probability>
1

> <s_lp_Force_Field>
OPLS_2005

> <r_lp_Energy>
23.666951

> <b_lp_Chiralities_Consistent>
1

> <s_lp_Variant>
137411-1

> <s_i_glide_gridfile>
glide-grid_1h00

> <i_i_glide_lignum>
530

> <i_i_glide_rotatable_bonds>
5

> <r_i_docking_score>
-6.8907755810934

> <r_i_glide_ligand_efficiency>
-0.275631023243736

> <r_i_glide_ligand_efficiency_sa>
-0.805950000301696

> <r_i_glide_ligand_efficiency_ln>
-1.63332031259978

> <r_i_glide_gscore>
-6.8907755810934

> <r_i_glide_lipo>
-2.26956813685698

> <r_i_glide_hbond>
-0.273721560635052

> <r_i_glide_metal>
0

> <r_i_glide_rewards>
-1.35747818355831

> <r_i_glide_evdw>
-39.3920516967773

> <r_i_glide_ecoul>
-7.84049701690674

> <r_i_glide_erotb>
0.293949387684521

> <r_i_glide_esite>
-0.138279950352711

> <r_i_glide_emodel>
-68.0168787476723

> <r_i_glide_energy>
-47.2325487136841

> <r_i_glide_einternal>
1.33355557918549

> <i_i_glide_confnum>
4

> <i_i_glide_posenum>
252

> <r_i_glide_eff_state_penalty>
0

> <i_f3d_flags>
0

> <s_user_duplicate_titles>
137411

> <s_m_subgroup_title>
dock_pv

> <s_m_subgroupid>
dock_pv1

> <b_m_subgroup_collapsed>
0

$$$$
137128
                    3D
 Schrodinger Suite 2021-1.
 39 41  0  0  1  0            999 V2000
    1.1188   27.8088   10.5581 C   0  0  0  0  0  0
    0.2065   28.9717   10.1691 C   0  0  0  0  0  0
   -0.9933   29.2042   10.8704 C   0  0  0  0  0  0
   -1.8261   30.2743   10.5411 C   0  0  0  0  0  0
   -1.5263   31.1658    9.5166 C   0  0  0  0  0  0
   -0.3418   30.9405    8.8153 C   0  0  0  0  0  0
    0.5417   29.8501    9.1117 C   0  0  0  0  0  0
    1.6477   29.9243    8.1790 C   0  0  0  0  0  0
    1.3774   31.0304    7.3866 C   0  0  0  0  0  0
    0.2329   31.6484    7.7856 N   0  0  0  0  0  0
    2.0580   31.5861    6.3453 O   0  0  0  0  0  0
    2.6904   29.0524    8.1291 N   0  0  0  0  0  0
    3.3110   29.0515    7.0229 N   0  0  0  0  0  0
    4.3412   28.1029    6.9295 C   0  0  0  0  0  0
    4.6603   27.6182    5.6564 C   0  0  0  0  0  0
    5.6583   26.6621    5.4731 C   0  0  0  0  0  0
    6.3810   26.2066    6.5745 C   0  0  0  0  0  0
    6.0583   26.6502    7.8529 C   0  0  0  0  0  0
    5.0538   27.5935    8.0279 C   0  0  0  0  0  0
    7.7574   25.0884    6.3673 S   0  0  0  0  0  0
    8.7584   25.4517    7.3756 O   0  0  0  0  0  0
    7.1940   23.7367    6.2996 O   0  0  0  0  0  0
    8.4411   25.4545    4.8059 N   0  0  0  0  0  0
   -1.4018   28.3337   11.9814 N   0  3  0  0  0  0
   -1.9584   27.2769   11.7038 O   0  5  0  0  0  0
   -1.1372   28.7113   13.1153 O   0  0  0  0  0  0
   -0.1000   32.4906    7.3405 H   0  0  0  0  0  0
    1.1154   27.0492    9.7771 H   0  0  0  0  0  0
    0.8587   27.3331   11.5029 H   0  0  0  0  0  0
    2.1450   28.1594   10.6672 H   0  0  0  0  0  0
   -2.7360   30.4244   11.1083 H   0  0  0  0  0  0
   -2.1826   31.9944    9.2892 H   0  0  0  0  0  0
    2.9167   31.1347    6.2658 H   0  0  0  0  0  0
    4.1228   27.9889    4.7959 H   0  0  0  0  0  0
    5.8948   26.3191    4.4764 H   0  0  0  0  0  0
    6.6001   26.2861    8.7143 H   0  0  0  0  0  0
    4.8365   27.9328    9.0295 H   0  0  0  0  0  0
    9.3188   25.9790    4.8282 H   0  0  0  0  0  0
    8.3903   24.7062    4.1118 H   0  0  0  0  0  0
  1  2  1  0  0  0
  1 28  1  0  0  0
  1 29  1  0  0  0
  1 30  1  0  0  0
  2  7  1  0  0  0
  2  3  2  0  0  0
  3  4  1  0  0  0
  3 24  1  0  0  0
  4  5  2  0  0  0
  4 31  1  0  0  0
  5  6  1  0  0  0
  5 32  1  0  0  0
  6 10  1  0  0  0
  6  7  2  0  0  0
  7  8  1  0  0  0
  8  9  2  0  0  0
  8 12  1  0  0  0
  9 10  1  0  0  0
  9 11  1  0  0  0
 10 27  1  0  0  0
 11 33  1  0  0  0
 12 13  2  3  0  0
 13 14  1  0  0  0
 14 19  1  0  0  0
 14 15  2  0  0  0
 15 16  1  0  0  0
 15 34  1  0  0  0
 16 17  2  0  0  0
 16 35  1  0  0  0
 17 18  1  0  0  0
 17 20  1  0  0  0
 18 19  2  0  0  0
 18 36  1  0  0  0
 19 37  1  0  0  0
 20 21  2  0  0  0
 20 22  2  0  0  0
 20 23  1  0  0  0
 23 38  1  0  0  0
 23 39  1  0  0  0
 24 25  1  0  0  0
 24 26  2  0  0  0
M  CHG  2  24   1  25  -1
M  END
> <s_m_entry_id>
34985

> <s_m_entry_name>
ligand_docking-pose.482

> <s_m_Source_Path>
/home/csk/Desktop/cluster/DUD-E-result/cdk2

> <s_m_Source_File>
ligand_docking-pose.sdf

> <i_m_Source_File_Index>
482

> <i_lp_mmshare_version>
53161

> <r_lp_tautomer_probability>
1

> <s_lp_Force_Field>
OPLS_2005

> <r_lp_Energy>
28.292161

> <b_lp_Chiralities_Consistent>
1

> <s_lp_Variant>
137128-1

> <s_i_glide_gridfile>
glide-grid_1h00

> <i_i_glide_lignum>
698

> <i_i_glide_rotatable_bonds>
5

> <r_i_docking_score>
-6.89006258003442

> <r_i_glide_ligand_efficiency>
-0.265002406924401

> <r_i_glide_ligand_efficiency_sa>
-0.785068587779418

> <r_i_glide_ligand_efficiency_ln>
-1.61810858878176

> <r_i_glide_gscore>
-6.89006258003442

> <r_i_glide_lipo>
-2.62360761565584

> <r_i_glide_hbond>
-0.548324554574997

> <r_i_glide_metal>
0

> <r_i_glide_rewards>
-1.00393560686062

> <r_i_glide_evdw>
-39.3166389465332

> <r_i_glide_ecoul>
-6.75838041305542

> <r_i_glide_erotb>
0.274615470480071

> <r_i_glide_esite>
-0.00922126413807003

> <r_i_glide_emodel>
-64.6503138180959

> <r_i_glide_energy>
-46.0750193595886

> <r_i_glide_einternal>
3.2459979057312

> <i_i_glide_confnum>
1

> <i_i_glide_posenum>
81

> <r_i_glide_eff_state_penalty>
0

> <i_f3d_flags>
0

> <s_user_duplicate_titles>
137128

> <s_m_subgroup_title>
dock_pv

> <s_m_subgroupid>
dock_pv1

> <b_m_subgroup_collapsed>
0

$$$$
316479
                    3D
 Schrodinger Suite 2021-1.
 48 51  0  0  1  0            999 V2000
   -2.1196   32.2145   10.0062 C   0  0  0  0  0  0
   -1.6301   31.4419    8.7700 C   0  0  0  0  0  0
   -0.7842   30.2282    9.1245 C   0  0  0  0  0  0
    0.5381   29.8576    8.7081 C   0  0  0  0  0  0
    0.8415   28.6851    9.4442 C   0  0  0  0  0  0
    2.0236   28.0433    9.4190 N   0  0  0  0  0  0
    2.9292   28.6178    8.5759 C   0  0  0  0  0  0
    2.7417   29.7143    7.8012 N   0  0  0  0  0  0
    1.5452   30.3461    7.8517 C   0  0  0  0  0  0
    1.2608   31.4733    7.1336 O   0  0  0  0  0  0
    4.3094   27.9606    8.4718 C   0  0  0  0  0  0
    4.4580   26.8930    7.3784 C   0  0  0  0  0  0
    4.4321   25.5504    7.7758 C   0  0  0  0  0  0
    4.4586   24.5250    6.8369 C   0  0  0  0  0  0
    4.5136   24.8288    5.4814 C   0  0  0  0  0  0
    4.5746   26.1550    5.0597 C   0  0  0  0  0  0
    4.5724   27.2033    6.0026 C   0  0  0  0  0  0
    4.6901   28.6521    5.5330 C   0  0  0  0  0  0
    4.6113   26.3955    3.6849 N   0  0  0  0  0  0
   -0.3149   28.3869   10.1579 N   0  0  0  0  0  0
   -1.2626   29.3194    9.9386 N   0  0  0  0  0  0
   -0.5612   27.3944   11.1299 C   0  0  0  0  0  0
   -0.9088   26.0808   10.7692 C   0  0  0  0  0  0
   -1.1377   25.1239   11.7589 C   0  0  0  0  0  0
   -1.0654   25.4708   13.1040 C   0  0  0  0  0  0
   -0.7980   26.7878   13.4643 C   0  0  0  0  0  0
   -0.5694   27.7571   12.4869 C   0  0  0  0  0  0
   -0.3420   29.4018   12.9760 Cl  0  0  0  0  0  0
   -1.3416   24.2828   14.3234 Cl  0  0  0  0  0  0
   -1.1420   25.6017    9.1291 Cl  0  0  0  0  0  0
   -2.7418   33.0610    9.7199 H   0  0  0  0  0  0
   -2.7111   31.5837   10.6725 H   0  0  0  0  0  0
   -1.2752   32.6031   10.5753 H   0  0  0  0  0  0
   -1.0758   32.1473    8.1554 H   0  0  0  0  0  0
   -2.4922   31.1358    8.1762 H   0  0  0  0  0  0
    0.3967   31.8224    7.3497 H   0  0  0  0  0  0
    5.0821   28.7217    8.3703 H   0  0  0  0  0  0
    4.5107   27.4951    9.4322 H   0  0  0  0  0  0
    4.3503   25.2967    8.8234 H   0  0  0  0  0  0
    4.4042   23.4952    7.1555 H   0  0  0  0  0  0
    4.5061   24.0270    4.7577 H   0  0  0  0  0  0
    5.2588   28.7411    4.6073 H   0  0  0  0  0  0
    3.7041   29.0907    5.3755 H   0  0  0  0  0  0
    5.2374   29.2589    6.2525 H   0  0  0  0  0  0
    4.5828   25.6163    3.0356 H   0  0  0  0  0  0
    4.8067   27.3287    3.3590 H   0  0  0  0  0  0
   -1.3970   24.1137   11.4798 H   0  0  0  0  0  0
   -0.7863   27.0520   14.5086 H   0  0  0  0  0  0
  1  2  1  0  0  0
  1 31  1  0  0  0
  1 32  1  0  0  0
  1 33  1  0  0  0
  2  3  1  0  0  0
  2 34  1  0  0  0
  2 35  1  0  0  0
  3 21  2  0  0  0
  3  4  1  0  0  0
  4  9  2  0  0  0
  4  5  1  0  0  0
  5  6  2  0  0  0
  5 20  1  0  0  0
  6  7  1  0  0  0
  7  8  2  0  0  0
  7 11  1  0  0  0
  8  9  1  0  0  0
  9 10  1  0  0  0
 10 36  1  0  0  0
 11 12  1  0  0  0
 11 37  1  0  0  0
 11 38  1  0  0  0
 12 17  1  0  0  0
 12 13  2  0  0  0
 13 14  1  0  0  0
 13 39  1  0  0  0
 14 15  2  0  0  0
 14 40  1  0  0  0
 15 16  1  0  0  0
 15 41  1  0  0  0
 16 17  2  0  0  0
 16 19  1  0  0  0
 17 18  1  0  0  0
 18 42  1  0  0  0
 18 43  1  0  0  0
 18 44  1  0  0  0
 19 45  1  0  0  0
 19 46  1  0  0  0
 20 21  1  0  0  0
 20 22  1  0  0  0
 22 27  1  0  0  0
 22 23  2  0  0  0
 23 24  1  0  0  0
 23 30  1  0  0  0
 24 25  2  0  0  0
 24 47  1  0  0  0
 25 26  1  0  0  0
 25 29  1  0  0  0
 26 27  2  0  0  0
 26 48  1  0  0  0
 27 28  1  0  0  0
M  END
> <s_m_entry_id>
34986

> <s_m_entry_name>
ligand_docking-pose.483

> <s_m_Source_Path>
/home/csk/Desktop/cluster/DUD-E-result/cdk2

> <s_m_Source_File>
ligand_docking-pose.sdf

> <i_m_Source_File_Index>
483

> <i_lp_mmshare_version>
53161

> <r_lp_tautomer_probability>
1

> <s_lp_Force_Field>
OPLS_2005

> <r_lp_Energy>
10.018983

> <b_lp_Chiralities_Consistent>
1

> <s_lp_Variant>
316479-1

> <s_i_glide_gridfile>
glide-grid_1h00

> <i_i_glide_lignum>
930

> <i_i_glide_rotatable_bonds>
5

> <r_i_docking_score>
-6.88953438943538

> <r_i_glide_ligand_efficiency>
-0.229651146314513

> <r_i_glide_ligand_efficiency_sa>
-0.713579506049012

> <r_i_glide_ligand_efficiency_ln>
-1.56537728076933

> <r_i_glide_gscore>
-6.88953438943538

> <r_i_glide_lipo>
-3.41701590697868

> <r_i_glide_hbond>
0

> <r_i_glide_metal>
0

> <r_i_glide_rewards>
-1.2637669138727

> <r_i_glide_evdw>
-48.625129699707

> <r_i_glide_ecoul>
-0.345927655696869

> <r_i_glide_erotb>
0.282234867514982

> <r_i_glide_esite>
-0.00784080275910701

> <r_i_glide_emodel>
-67.2269322835305

> <r_i_glide_energy>
-48.9710573554039

> <r_i_glide_einternal>
2.07016730308533

> <i_i_glide_confnum>
4

> <i_i_glide_posenum>
50

> <r_i_glide_eff_state_penalty>
0

> <i_f3d_flags>
0

> <s_user_duplicate_titles>
316479

> <s_m_subgroup_title>
dock_pv

> <s_m_subgroupid>
dock_pv1

> <b_m_subgroup_collapsed>
0

$$$$
226431
                    3D
 Schrodinger Suite 2021-1.
 49 51  0  0  1  0            999 V2000
   -1.5812   24.2781   12.9001 C   0  0  0  0  0  0
   -0.4721   25.3052   13.1952 C   0  0  0  0  0  0
   -0.6540   25.9624   14.5752 C   0  0  0  0  0  0
   -0.2497   26.3382   12.0598 C   0  0  0  0  0  0
   -1.3850   27.3301   11.7130 C   0  0  0  0  0  0
   -2.5120   27.1642   12.1790 O   0  0  0  0  0  0
   -1.0292   28.4947   10.8325 C   0  0  0  0  0  0
   -1.9388   29.5467   10.6557 C   0  0  0  0  0  0
   -1.6894   30.6252    9.8022 C   0  0  0  0  0  0
   -0.4796   30.6133    9.1013 C   0  0  0  0  0  0
    0.4816   29.5724    9.2664 C   0  0  0  0  0  0
    0.1920   28.5219   10.1470 C   0  0  0  0  0  0
    1.6027   29.8520    8.4109 C   0  0  0  0  0  0
    1.2578   31.0052    7.7419 C   0  0  0  0  0  0
    0.0533   31.4852    8.1759 N   0  0  0  0  0  0
    1.9319   31.7090    6.7849 O   0  0  0  0  0  0
    2.7995   29.0473    8.2845 C   0  0  0  0  0  0
    3.4962   29.0510    7.2241 N   0  0  0  0  0  0
    4.4619   28.0502    7.0234 C   0  0  0  0  0  0
    4.6866   27.6209    5.7118 C   0  0  0  0  0  0
    5.6448   26.6522    5.4210 C   0  0  0  0  0  0
    6.4251   26.1249    6.4494 C   0  0  0  0  0  0
    6.2134   26.5268    7.7653 C   0  0  0  0  0  0
    5.2624   27.5018    8.0418 C   0  0  0  0  0  0
    7.7434   24.9760    6.0874 S   0  0  0  0  0  0
    8.8285   25.2526    7.0337 O   0  0  0  0  0  0
    7.1276   23.6493    5.9936 O   0  0  0  0  0  0
    8.3228   25.4040    4.4999 N   0  0  0  0  0  0
   -0.3416   32.3404    7.8147 H   0  0  0  0  0  0
   -2.5749   24.7199   12.9760 H   0  0  0  0  0  0
   -1.5449   23.4485   13.6061 H   0  0  0  0  0  0
   -1.4791   23.8583   11.8991 H   0  0  0  0  0  0
    0.4561   24.7340   13.2464 H   0  0  0  0  0  0
   -1.5881   26.5224   14.6397 H   0  0  0  0  0  0
   -0.6627   25.2078   15.3598 H   0  0  0  0  0  0
    0.1620   26.6520   14.7926 H   0  0  0  0  0  0
    0.6259   26.9309   12.3265 H   0  0  0  0  0  0
    0.0130   25.8085   11.1442 H   0  0  0  0  0  0
   -2.8767   29.5374   11.1977 H   0  0  0  0  0  0
   -2.4130   31.4195    9.6870 H   0  0  0  0  0  0
    0.9149   27.7274   10.2538 H   0  0  0  0  0  0
    2.7346   31.2100    6.5743 H   0  0  0  0  0  0
    2.9674   28.3923    9.1360 H   0  0  0  0  0  0
    4.1053   28.0449    4.9065 H   0  0  0  0  0  0
    5.8023   26.3477    4.3963 H   0  0  0  0  0  0
    6.8107   26.1219    8.5702 H   0  0  0  0  0  0
    5.1522   27.8257    9.0655 H   0  0  0  0  0  0
    9.2186   25.8976    4.4777 H   0  0  0  0  0  0
    8.1972   24.6861    3.7833 H   0  0  0  0  0  0
  1  2  1  0  0  0
  1 30  1  0  0  0
  1 31  1  0  0  0
  1 32  1  0  0  0
  2  3  1  0  0  0
  2  4  1  0  0  0
  2 33  1  0  0  0
  3 34  1  0  0  0
  3 35  1  0  0  0
  3 36  1  0  0  0
  4  5  1  0  0  0
  4 37  1  0  0  0
  4 38  1  0  0  0
  5  6  2  0  0  0
  5  7  1  0  0  0
  7 12  1  0  0  0
  7  8  2  0  0  0
  8  9  1  0  0  0
  8 39  1  0  0  0
  9 10  2  0  0  0
  9 40  1  0  0  0
 10 15  1  0  0  0
 10 11  1  0  0  0
 11 12  2  0  0  0
 11 13  1  0  0  0
 12 41  1  0  0  0
 13 14  2  0  0  0
 13 17  1  0  0  0
 14 15  1  0  0  0
 14 16  1  0  0  0
 15 29  1  0  0  0
 16 42  1  0  0  0
 17 18  2  0  0  0
 17 43  1  0  0  0
 18 19  1  0  0  0
 19 24  1  0  0  0
 19 20  2  0  0  0
 20 21  1  0  0  0
 20 44  1  0  0  0
 21 22  2  0  0  0
 21 45  1  0  0  0
 22 23  1  0  0  0
 22 25  1  0  0  0
 23 24  2  0  0  0
 23 46  1  0  0  0
 24 47  1  0  0  0
 25 26  2  0  0  0
 25 27  2  0  0  0
 25 28  1  0  0  0
 28 48  1  0  0  0
 28 49  1  0  0  0
M  END
> <s_m_entry_id>
34991

> <s_m_entry_name>
ligand_docking-pose.488

> <s_m_Source_Path>
/home/csk/Desktop/cluster/DUD-E-result/cdk2

> <s_m_Source_File>
ligand_docking-pose.sdf

> <i_m_Source_File_Index>
488

> <i_lp_mmshare_version>
53161

> <r_lp_tautomer_probability>
0.99990000499975

> <s_lp_Force_Field>
OPLS_2005

> <r_lp_Energy>
30.933828

> <b_lp_Chiralities_Consistent>
1

> <s_lp_Variant>
226431-1

> <s_i_glide_gridfile>
glide-grid_1h00

> <i_i_glide_lignum>
1161

> <i_i_glide_rotatable_bonds>
7

> <r_i_docking_score>
-6.87739715936794

> <r_i_glide_ligand_efficiency>
-0.245621327120283

> <r_i_glide_ligand_efficiency_sa>
-0.745851012362475

> <r_i_glide_ligand_efficiency_ln>
-1.58750519353709

> <r_i_glide_gscore>
-6.87739715936794

> <r_i_glide_lipo>
-2.75865968953571

> <r_i_glide_hbond>
-0.534168952284229

> <r_i_glide_metal>
0

> <r_i_glide_rewards>
-1.44294023560131

> <r_i_glide_evdw>
-43.2168388366699

> <r_i_glide_ecoul>
-3.07379698753357

> <r_i_glide_erotb>
0.491183056573296

> <r_i_glide_esite>
-0.0108998485564598

> <r_i_glide_emodel>
-60.1502741533829

> <r_i_glide_energy>
-46.2906358242035

> <r_i_glide_einternal>
6.92212915420532

> <i_i_glide_confnum>
18

> <i_i_glide_posenum>
146

> <r_i_glide_eff_state_penalty>
0

> <i_f3d_flags>
0

> <s_user_duplicate_titles>
226431

> <s_m_subgroup_title>
dock_pv

> <s_m_subgroupid>
dock_pv1

> <b_m_subgroup_collapsed>
0

$$$$
248288
                    3D
 Schrodinger Suite 2021-1.
 52 56  0  0  1  0            999 V2000
    0.5331   30.9259    8.1255 C   0  0  0  0  0  0
    1.7030   30.5497    7.4642 C   0  0  0  0  0  0
    2.4211   29.4521    7.9368 C   0  0  0  0  0  0
    2.0076   28.7471    9.0690 C   0  0  0  0  0  0
    0.8451   29.1415    9.7561 C   0  0  0  0  0  0
    0.0967   30.2211    9.2471 C   0  0  0  0  0  0
    0.4497   28.4122   10.8948 N   0  0  0  0  0  0
   -0.4153   28.7514   11.8737 C   0  0  0  0  0  0
   -0.9651   29.8478   11.9606 O   0  0  0  0  0  0
   -0.6778   27.7211   12.9923 C   0  0  0  0  0  0
   -0.4253   26.3190   12.6039 N   0  0  1  0  0  0
   -0.3343   25.4704   13.8036 C   0  0  0  0  0  0
   -0.0004   24.0010   13.4521 C   0  0  0  0  0  0
   -1.0862   23.4533   12.5107 C   0  0  0  0  0  0
   -1.1254   24.3507   11.2464 C   0  0  0  0  0  0
   -1.4247   25.8072   11.6500 C   0  0  0  0  0  0
   -0.8027   21.9696   12.1759 C   0  0  0  0  0  0
   -0.3221   21.6360   11.0968 O   0  0  0  0  0  0
   -1.1739   21.0525   13.0709 N   0  0  0  0  0  0
    2.9205   27.5833    9.3230 C   0  0  0  0  0  0
    2.8207   26.7626   10.2312 O   0  0  0  0  0  0
    3.8587   27.6127    8.2063 C   0  0  0  0  0  0
    3.5614   28.7012    7.4363 C   0  0  0  0  0  0
    4.4293   28.6541    6.3881 N   0  0  0  0  0  0
    5.2572   27.6176    6.4500 N   0  0  0  0  0  0
    4.9257   26.9686    7.5478 C   0  0  0  0  0  0
    5.6531   25.6869    7.8996 C   0  0  0  0  0  0
    5.9765   24.6490    6.8506 C   0  0  0  0  0  0
    7.0853   25.4895    7.4619 C   0  0  0  0  0  0
    4.4731   29.3426    5.6491 H   0  0  0  0  0  0
   -0.0451   31.7657    7.7704 H   0  0  0  0  0  0
    2.0194   31.0802    6.5785 H   0  0  0  0  0  0
   -0.8247   30.5402    9.7073 H   0  0  0  0  0  0
    0.9530   27.5470   11.0494 H   0  0  0  0  0  0
   -1.6894   27.8486   13.3850 H   0  0  0  0  0  0
    0.0216   27.9944   13.7757 H   0  0  0  0  0  0
   -1.2717   25.5339   14.3604 H   0  0  0  0  0  0
    0.4389   25.8683   14.4623 H   0  0  0  0  0  0
    0.0216   23.4608   14.3991 H   0  0  0  0  0  0
    0.9826   24.0015   12.9759 H   0  0  0  0  0  0
   -2.0611   23.4576   12.9998 H   0  0  0  0  0  0
   -0.1773   24.3675   10.7034 H   0  0  0  0  0  0
   -1.9415   24.0939   10.5797 H   0  0  0  0  0  0
   -2.4204   25.8887   12.0913 H   0  0  0  0  0  0
   -1.4417   26.4268   10.7524 H   0  0  0  0  0  0
   -1.1282   20.0625   12.8315 H   0  0  0  0  0  0
   -1.5737   21.3183   13.9545 H   0  0  0  0  0  0
    5.3676   25.2792    8.8671 H   0  0  0  0  0  0
    5.8928   23.5954    7.1201 H   0  0  0  0  0  0
    5.6767   24.8351    5.8180 H   0  0  0  0  0  0
    7.5678   26.2534    6.8496 H   0  0  0  0  0  0
    7.7738   25.0547    8.1755 H   0  0  0  0  0  0
  1  6  1  0  0  0
  1  2  2  0  0  0
  1 31  1  0  0  0
  2  3  1  0  0  0
  2 32  1  0  0  0
  3 23  1  0  0  0
  3  4  2  0  0  0
  4  5  1  0  0  0
  4 20  1  0  0  0
  5  6  2  0  0  0
  5  7  1  0  0  0
  6 33  1  0  0  0
  7  8  1  0  0  0
  7 34  1  0  0  0
  8  9  2  0  0  0
  8 10  1  0  0  0
 10 11  1  0  0  0
 10 35  1  0  0  0
 10 36  1  0  0  0
 11 16  1  0  0  0
 11 12  1  0  0  0
 12 13  1  0  0  0
 12 37  1  0  0  0
 12 38  1  0  0  0
 13 14  1  0  0  0
 13 39  1  0  0  0
 13 40  1  0  0  0
 14 15  1  0  0  0
 14 17  1  0  0  0
 14 41  1  0  0  0
 15 16  1  0  0  0
 15 42  1  0  0  0
 15 43  1  0  0  0
 16 44  1  0  0  0
 16 45  1  0  0  0
 17 18  2  0  0  0
 17 19  1  0  0  0
 19 46  1  0  0  0
 19 47  1  0  0  0
 20 21  2  0  0  0
 20 22  1  0  0  0
 22 26  1  0  0  0
 22 23  2  0  0  0
 23 24  1  0  0  0
 24 30  1  0  0  0
 24 25  1  0  0  0
 25 26  2  0  0  0
 26 27  1  0  0  0
 27 29  1  0  0  0
 27 28  1  0  0  0
 27 48  1  0  0  0
 28 29  1  0  0  0
 28 49  1  0  0  0
 28 50  1  0  0  0
 29 51  1  0  0  0
 29 52  1  0  0  0
M  END
> <s_m_entry_id>
34992

> <s_m_entry_name>
ligand_docking-pose.489

> <s_m_Source_Path>
/home/csk/Desktop/cluster/DUD-E-result/cdk2

> <s_m_Source_File>
ligand_docking-pose.sdf

> <i_m_Source_File_Index>
489

> <i_lp_mmshare_version>
53161

> <r_lp_tautomer_probability>
1

> <s_lp_Force_Field>
OPLS_2005

> <r_lp_Energy>
70.577879

> <b_lp_Chiralities_Consistent>
1

> <s_lp_Variant>
248288-1

> <s_i_glide_gridfile>
glide-grid_1h00

> <i_i_glide_lignum>
40

> <i_i_glide_rotatable_bonds>
6

> <r_i_docking_score>
-6.87570633722084

> <r_i_glide_ligand_efficiency>
-0.237093321973132

> <r_i_glide_ligand_efficiency_sa>
-0.728425801538198

> <r_i_glide_ligand_efficiency_ln>
-1.57436239835444

> <r_i_glide_gscore>
-6.87570633722084

> <r_i_glide_lipo>
-2.88218780926426

> <r_i_glide_hbond>
-0.528622553624302

> <r_i_glide_metal>
0

> <r_i_glide_rewards>
-1.40383154230236

> <r_i_glide_evdw>
-36.6473236083984

> <r_i_glide_ecoul>
-4.87323427200317

> <r_i_glide_erotb>
0.630993912720072

> <r_i_glide_esite>
-0.128707023529594

> <r_i_glide_emodel>
-58.678438284883

> <r_i_glide_energy>
-41.5205578804016

> <r_i_glide_einternal>
2.79753398895264

> <i_i_glide_confnum>
1

> <i_i_glide_posenum>
170

> <r_i_glide_eff_state_penalty>
0

> <i_f3d_flags>
0

> <s_user_duplicate_titles>
248288

> <s_m_subgroup_title>
dock_pv

> <s_m_subgroupid>
dock_pv1

> <b_m_subgroup_collapsed>
0

$$$$
116612
                    3D
 Schrodinger Suite 2021-1.
 43 48  0  0  1  0            999 V2000
    2.2640   29.8525    7.4614 C   0  0  0  0  0  0
    1.0966   30.3979    8.1323 N   0  0  0  0  0  0
    0.7105   31.6703    7.7760 C   0  0  0  0  0  0
   -0.3824   32.0747    8.4764 C   0  0  0  0  0  0
   -0.7418   30.9903    9.3183 C   0  0  0  0  0  0
    0.2574   29.9512    9.1840 C   0  0  0  0  0  0
    0.1786   28.7645   10.0348 C   0  0  0  0  0  0
   -0.9871   28.6639   10.8666 C   0  0  0  0  0  0
   -1.9426   29.6943   10.9220 C   0  0  0  0  0  0
   -1.8165   30.8482   10.1854 C   0  0  0  0  0  0
   -1.2162   27.5264   11.6843 C   0  0  0  0  0  0
   -0.3552   26.4267   11.7046 C   0  0  0  0  0  0
   -0.9176   25.4937   12.6221 C   0  0  0  0  0  0
   -0.5452   24.2187   13.0831 C   0  0  0  0  0  0
   -1.3274   23.5904   14.0521 C   0  0  0  0  0  0
   -2.4751   24.1825   14.5755 C   0  0  0  0  0  0
   -2.8769   25.4535   14.1371 C   0  0  0  0  0  0
   -2.0929   26.0836   13.1667 C   0  0  0  0  0  0
   -2.2484   27.3156   12.5756 N   0  0  0  0  0  0
   -3.1617   23.4500   15.5258 O   0  0  0  0  0  0
   -4.4235   23.9224   15.9878 C   0  0  0  0  0  0
    0.8098   26.5116   10.9248 C   0  0  0  0  0  0
    1.1144   27.6567   10.1850 C   0  0  0  0  0  0
    2.5495   27.4627    9.8011 C   0  0  0  0  0  0
    3.3778   28.2519    9.3760 O   0  0  0  0  0  0
    2.8580   26.1964   10.0937 N   0  0  0  0  0  0
    1.9305   25.5425   10.7901 C   0  0  0  0  0  0
    2.0563   24.4057   11.2419 O   0  0  0  0  0  0
   -2.9754   27.9829   12.8120 H   0  0  0  0  0  0
    2.3097   30.2160    6.4335 H   0  0  0  0  0  0
    3.1645   30.2001    7.9675 H   0  0  0  0  0  0
    2.2341   28.7760    7.4016 H   0  0  0  0  0  0
    1.2637   32.2069    7.0189 H   0  0  0  0  0  0
   -0.8812   33.0272    8.3642 H   0  0  0  0  0  0
   -2.7954   29.5988   11.5731 H   0  0  0  0  0  0
   -2.5570   31.6294   10.2801 H   0  0  0  0  0  0
    0.3324   23.7166   12.7131 H   0  0  0  0  0  0
   -1.0379   22.6103   14.4021 H   0  0  0  0  0  0
   -3.7547   25.9462   14.5255 H   0  0  0  0  0  0
   -4.8448   23.1976   16.6844 H   0  0  0  0  0  0
   -4.3318   24.8732   16.5157 H   0  0  0  0  0  0
   -5.1311   24.0371   15.1652 H   0  0  0  0  0  0
    3.8045   25.8520    9.9882 H   0  0  0  0  0  0
  1  2  1  0  0  0
  1 30  1  0  0  0
  1 31  1  0  0  0
  1 32  1  0  0  0
  2  6  1  0  0  0
  2  3  1  0  0  0
  3  4  2  0  0  0
  3 33  1  0  0  0
  4  5  1  0  0  0
  4 34  1  0  0  0
  5 10  2  0  0  0
  5  6  1  0  0  0
  6  7  2  0  0  0
  7 23  1  0  0  0
  7  8  1  0  0  0
  8  9  2  0  0  0
  8 11  1  0  0  0
  9 10  1  0  0  0
  9 35  1  0  0  0
 10 36  1  0  0  0
 11 19  1  0  0  0
 11 12  2  0  0  0
 12 13  1  0  0  0
 12 22  1  0  0  0
 13 18  2  0  0  0
 13 14  1  0  0  0
 14 15  2  0  0  0
 14 37  1  0  0  0
 15 16  1  0  0  0
 15 38  1  0  0  0
 16 17  2  0  0  0
 16 20  1  0  0  0
 17 18  1  0  0  0
 17 39  1  0  0  0
 18 19  1  0  0  0
 19 29  1  0  0  0
 20 21  1  0  0  0
 21 40  1  0  0  0
 21 41  1  0  0  0
 21 42  1  0  0  0
 22 27  1  0  0  0
 22 23  2  0  0  0
 23 24  1  0  0  0
 24 25  2  0  0  0
 24 26  1  0  0  0
 26 27  1  0  0  0
 26 43  1  0  0  0
 27 28  2  0  0  0
M  END
> <s_m_entry_id>
34993

> <s_m_entry_name>
ligand_docking-pose.490

> <s_m_Source_Path>
/home/csk/Desktop/cluster/DUD-E-result/cdk2

> <s_m_Source_File>
ligand_docking-pose.sdf

> <i_m_Source_File_Index>
490

> <i_lp_mmshare_version>
53161

> <r_lp_tautomer_probability>
1

> <s_lp_Force_Field>
OPLS_2005

> <r_lp_Energy>
94.977827

> <b_lp_Chiralities_Consistent>
1

> <s_lp_Variant>
116612-1

> <s_i_glide_gridfile>
glide-grid_1h00

> <i_i_glide_lignum>
1465

> <i_i_glide_rotatable_bonds>
1

> <r_i_docking_score>
-6.86958829318076

> <r_i_glide_ligand_efficiency>
-0.24534243904217

> <r_i_glide_ligand_efficiency_sa>
-0.745004143901028

> <r_i_glide_ligand_efficiency_ln>
-1.58570267794281

> <r_i_glide_gscore>
-6.86958829318076

> <r_i_glide_lipo>
-2.428347763794

> <r_i_glide_hbond>
-0.255528482363124

> <r_i_glide_metal>
0

> <r_i_glide_rewards>
-1.33570776158781

> <r_i_glide_evdw>
-38.3625068664551

> <r_i_glide_ecoul>
-5.65072584152222

> <r_i_glide_erotb>
0

> <r_i_glide_esite>
-0.0842700658847395

> <r_i_glide_emodel>
-64.3568701541482

> <r_i_glide_energy>
-44.0132327079773

> <r_i_glide_einternal>
0.0553771145641804

> <i_i_glide_confnum>
1

> <i_i_glide_posenum>
71

> <r_i_glide_eff_state_penalty>
0

> <i_f3d_flags>
0

> <s_user_duplicate_titles>
116612

> <s_m_subgroup_title>
dock_pv

> <s_m_subgroupid>
dock_pv1

> <b_m_subgroup_collapsed>
0

$$$$
248344
                    3D
 Schrodinger Suite 2021-1.
 49 53  0  0  1  0            999 V2000
    7.0437   25.5226    4.8686 C   0  0  0  0  0  0
    6.6105   25.6855    6.2147 O   0  0  0  0  0  0
    5.6668   26.6518    6.5030 C   0  0  0  0  0  0
    5.0395   27.4589    5.5461 C   0  0  0  0  0  0
    4.1195   28.4226    5.9436 C   0  0  0  0  0  0
    3.7896   28.5787    7.2953 C   0  0  0  0  0  0
    4.4047   27.7682    8.2484 C   0  0  0  0  0  0
    5.3389   26.8159    7.8451 C   0  0  0  0  0  0
    2.7028   29.5277    7.6634 C   0  0  0  0  0  0
    1.6386   29.4734    8.5552 C   0  0  0  0  0  0
    0.8316   30.5564    8.2261 C   0  0  0  0  0  0
    1.3414   31.3262    7.3024 N   0  0  0  0  0  0
    2.4579   30.6826    6.9695 N   0  0  0  0  0  0
   -0.3981   30.5324    8.9952 C   0  0  0  0  0  0
   -1.5160   31.3614    9.0111 C   0  0  0  0  0  0
   -2.5970   31.0179    9.8151 C   0  0  0  0  0  0
   -2.5543   29.8499   10.5761 C   0  0  0  0  0  0
   -1.4204   29.0147   10.5790 C   0  0  0  0  0  0
   -0.3205   29.3899    9.7940 C   0  0  0  0  0  0
    1.0017   28.7115    9.6075 C   0  0  0  0  0  0
    1.4157   27.7036   10.1759 O   0  0  0  0  0  0
   -1.3473   27.7992   11.2918 N   0  0  0  0  0  0
   -2.3483   27.0363   11.7789 C   0  0  0  0  0  0
   -3.5328   27.3594   11.7782 O   0  0  0  0  0  0
   -2.0087   25.8424   12.3029 N   0  0  0  0  0  0
   -0.8708   25.0386   12.1111 C   0  0  0  0  0  0
   -0.6005   24.0923   13.1019 C   0  0  0  0  0  0
    0.4570   23.2001   12.9457 C   0  0  0  0  0  0
    1.2459   23.2595   11.7994 C   0  0  0  0  0  0
    0.9820   24.1962   10.8026 C   0  0  0  0  0  0
   -0.0884   25.0735   10.9478 C   0  0  0  0  0  0
    3.1048   31.0513    6.2787 H   0  0  0  0  0  0
    7.8068   24.7458    4.8274 H   0  0  0  0  0  0
    6.2236   25.2131    4.2188 H   0  0  0  0  0  0
    7.4868   26.4393    4.4756 H   0  0  0  0  0  0
    5.2679   27.3639    4.4960 H   0  0  0  0  0  0
    3.6468   29.0298    5.1865 H   0  0  0  0  0  0
    4.1494   27.8547    9.2958 H   0  0  0  0  0  0
    5.8144   26.1832    8.5768 H   0  0  0  0  0  0
   -1.5603   32.2510    8.4002 H   0  0  0  0  0  0
   -3.4741   31.6481    9.8468 H   0  0  0  0  0  0
   -3.4173   29.6228   11.1793 H   0  0  0  0  0  0
   -0.4228   27.3939   11.3271 H   0  0  0  0  0  0
   -2.7365   25.4141   12.8534 H   0  0  0  0  0  0
   -1.2137   24.0352   13.9894 H   0  0  0  0  0  0
    0.6608   22.4621   13.7076 H   0  0  0  0  0  0
    2.0581   22.5602   11.6758 H   0  0  0  0  0  0
    1.5853   24.2270    9.9058 H   0  0  0  0  0  0
   -0.3113   25.7496   10.1366 H   0  0  0  0  0  0
  1  2  1  0  0  0
  1 33  1  0  0  0
  1 34  1  0  0  0
  1 35  1  0  0  0
  2  3  1  0  0  0
  3  8  1  0  0  0
  3  4  2  0  0  0
  4  5  1  0  0  0
  4 36  1  0  0  0
  5  6  2  0  0  0
  5 37  1  0  0  0
  6  7  1  0  0  0
  6  9  1  0  0  0
  7  8  2  0  0  0
  7 38  1  0  0  0
  8 39  1  0  0  0
  9 13  1  0  0  0
  9 10  2  0  0  0
 10 20  1  0  0  0
 10 11  1  0  0  0
 11 12  2  0  0  0
 11 14  1  0  0  0
 12 13  1  0  0  0
 13 32  1  0  0  0
 14 19  2  0  0  0
 14 15  1  0  0  0
 15 16  2  0  0  0
 15 40  1  0  0  0
 16 17  1  0  0  0
 16 41  1  0  0  0
 17 18  2  0  0  0
 17 42  1  0  0  0
 18 19  1  0  0  0
 18 22  1  0  0  0
 19 20  1  0  0  0
 20 21  2  0  0  0
 22 23  1  0  0  0
 22 43  1  0  0  0
 23 24  2  0  0  0
 23 25  1  0  0  0
 25 26  1  0  0  0
 25 44  1  0  0  0
 26 31  1  0  0  0
 26 27  2  0  0  0
 27 28  1  0  0  0
 27 45  1  0  0  0
 28 29  2  0  0  0
 28 46  1  0  0  0
 29 30  1  0  0  0
 29 47  1  0  0  0
 30 31  2  0  0  0
 30 48  1  0  0  0
 31 49  1  0  0  0
M  END
> <s_m_entry_id>
34994

> <s_m_entry_name>
ligand_docking-pose.491

> <s_m_Source_Path>
/home/csk/Desktop/cluster/DUD-E-result/cdk2

> <s_m_Source_File>
ligand_docking-pose.sdf

> <i_m_Source_File_Index>
491

> <i_lp_mmshare_version>
53161

> <r_lp_tautomer_probability>
1

> <s_lp_Force_Field>
OPLS_2005

> <r_lp_Energy>
70.252133

> <b_lp_Chiralities_Consistent>
1

> <s_lp_Variant>
248344-1

> <s_i_glide_gridfile>
glide-grid_1h00

> <i_i_glide_lignum>
1634

> <i_i_glide_rotatable_bonds>
6

> <r_i_docking_score>
-6.86956472228444

> <r_i_glide_ligand_efficiency>
-0.221598862009175

> <r_i_glide_ligand_efficiency_sa>
-0.696126376910744

> <r_i_glide_ligand_efficiency_ln>
-1.54929737175056

> <r_i_glide_gscore>
-6.86956472228444

> <r_i_glide_lipo>
-3.33165738436642

> <r_i_glide_hbond>
-0.27972206804789

> <r_i_glide_metal>
0

> <r_i_glide_rewards>
-0.897617256854628

> <r_i_glide_evdw>
-44.1523742675781

> <r_i_glide_ecoul>
-4.13833332061768

> <r_i_glide_erotb>
0.467800698456061

> <r_i_glide_esite>
0

> <r_i_glide_emodel>
-53.7531064825551

> <r_i_glide_energy>
-48.2907075881958

> <r_i_glide_einternal>
8.87495136260986

> <i_i_glide_confnum>
4

> <i_i_glide_posenum>
3

> <r_i_glide_eff_state_penalty>
0

> <i_f3d_flags>
0

> <s_user_duplicate_titles>
248344

> <s_m_subgroup_title>
dock_pv

> <s_m_subgroupid>
dock_pv1

> <b_m_subgroup_collapsed>
0

$$$$
301255
                    3D
 Schrodinger Suite 2021-1.
 39 43  0  0  1  0            999 V2000
   -1.0052   27.6453   13.0017 C   0  0  0  0  0  0
   -0.1667   28.2759   12.0882 C   0  0  0  0  0  0
    0.4640   27.5310   11.0894 C   0  0  0  0  0  0
    0.2994   26.1420   11.0468 C   0  0  0  0  0  0
   -0.5207   25.5117   11.9808 C   0  0  0  0  0  0
   -1.1959   26.2599   12.9525 C   0  0  0  0  0  0
   -2.1237   25.5919   13.9209 C   0  0  0  0  0  0
   -3.1007   26.2517   14.6282 N   0  0  0  0  0  0
   -3.7548   25.3119   15.3752 C   0  0  0  0  0  0
   -3.1244   24.1205   15.0477 C   0  0  0  0  0  0
   -2.1408   24.3001   14.1811 N   0  0  0  0  0  0
    1.1965   28.1861   10.0745 N   0  0  0  0  0  0
    0.8965   29.3279    9.3496 C   0  0  0  0  0  0
    1.9732   29.5499    8.4634 C   0  0  0  0  0  0
    1.9191   30.6520    7.5874 C   0  0  0  0  0  0
    0.8566   31.5635    7.6237 C   0  0  0  0  0  0
   -0.2071   31.3088    8.4967 C   0  0  0  0  0  0
   -0.2309   30.1914    9.3432 C   0  0  0  0  0  0
   -1.4923   30.2427   10.0119 C   0  0  0  0  0  0
   -2.1492   31.3191    9.6623 N   0  0  0  0  0  0
   -1.3844   31.9779    8.7700 N   0  0  0  0  0  0
    2.8975   28.4715    8.7174 C   0  0  0  0  0  0
    2.4124   27.7232    9.6939 N   0  0  0  0  0  0
    4.1587   28.1636    8.0718 C   0  0  0  0  0  0
    5.0240   27.4589    8.5759 O   0  0  0  0  0  0
    4.3163   28.6519    6.8432 N   0  0  0  0  0  0
   -1.7059   32.8478    8.3707 H   0  0  0  0  0  0
   -1.5109   28.2453   13.7455 H   0  0  0  0  0  0
   -0.0263   29.3463   12.1474 H   0  0  0  0  0  0
    0.7815   25.5533   10.2790 H   0  0  0  0  0  0
   -0.6536   24.4414   11.9276 H   0  0  0  0  0  0
   -4.5809   25.5743   16.0200 H   0  0  0  0  0  0
   -3.3168   27.2457   14.5762 H   0  0  0  0  0  0
   -3.3743   23.1350   15.4143 H   0  0  0  0  0  0
    2.7333   30.8432    6.9074 H   0  0  0  0  0  0
    0.8574   32.4295    6.9775 H   0  0  0  0  0  0
   -1.9269   29.5550   10.7199 H   0  0  0  0  0  0
    3.6345   29.2766    6.4411 H   0  0  0  0  0  0
    5.1689   28.4455    6.3430 H   0  0  0  0  0  0
  1  6  1  0  0  0
  1  2  2  0  0  0
  1 28  1  0  0  0
  2  3  1  0  0  0
  2 29  1  0  0  0
  3  4  2  0  0  0
  3 12  1  0  0  0
  4  5  1  0  0  0
  4 30  1  0  0  0
  5  6  2  0  0  0
  5 31  1  0  0  0
  6  7  1  0  0  0
  7 11  2  0  0  0
  7  8  1  0  0  0
  8  9  1  0  0  0
  8 33  1  0  0  0
  9 32  1  0  0  0
  9 10  2  0  0  0
 10 34  1  0  0  0
 10 11  1  0  0  0
 12 23  1  0  0  0
 12 13  1  0  0  0
 13 18  2  0  0  0
 13 14  1  0  0  0
 14 15  2  0  0  0
 14 22  1  0  0  0
 15 16  1  0  0  0
 15 35  1  0  0  0
 16 17  2  0  0  0
 16 36  1  0  0  0
 17 21  1  0  0  0
 17 18  1  0  0  0
 18 19  1  0  0  0
 19 20  2  0  0  0
 19 37  1  0  0  0
 20 21  1  0  0  0
 21 27  1  0  0  0
 22 23  2  0  0  0
 22 24  1  0  0  0
 24 25  2  0  0  0
 24 26  1  0  0  0
 26 38  1  0  0  0
 26 39  1  0  0  0
M  END
> <s_m_entry_id>
34995

> <s_m_entry_name>
ligand_docking-pose.492

> <s_m_Source_Path>
/home/csk/Desktop/cluster/DUD-E-result/cdk2

> <s_m_Source_File>
ligand_docking-pose.sdf

> <i_m_Source_File_Index>
492

> <i_lp_mmshare_version>
53161

> <r_lp_tautomer_probability>
0.499999999999999

> <s_lp_Force_Field>
OPLS_2005

> <r_lp_Energy>
64.297193

> <b_lp_Chiralities_Consistent>
1

> <s_lp_Variant>
301255-1

> <s_i_glide_gridfile>
glide-grid_1h00

> <i_i_glide_lignum>
208

> <i_i_glide_rotatable_bonds>
3

> <r_i_docking_score>
-6.86926516467409

> <r_i_glide_ligand_efficiency>
-0.264202506333619

> <r_i_glide_ligand_efficiency_sa>
-0.782698885426683

> <r_i_glide_ligand_efficiency_ln>
-1.61322438402627

> <r_i_glide_gscore>
-6.86926516467409

> <r_i_glide_lipo>
-2.365979348285

> <r_i_glide_hbond>
-0.16

> <r_i_glide_metal>
0

> <r_i_glide_rewards>
-1.93325534158577

> <r_i_glide_evdw>
-41.0751342773438

> <r_i_glide_ecoul>
-3.7531955242157

> <r_i_glide_erotb>
0.321906689605026

> <r_i_glide_esite>
-0.115201121908797

> <r_i_glide_emodel>
-64.3271454092246

> <r_i_glide_energy>
-44.8283298015594

> <r_i_glide_einternal>
3.43589067459106

> <i_i_glide_confnum>
7

> <i_i_glide_posenum>
241

> <r_i_glide_eff_state_penalty>
0

> <i_f3d_flags>
0

> <s_user_duplicate_titles>
301255

> <s_m_subgroup_title>
dock_pv

> <s_m_subgroupid>
dock_pv1

> <b_m_subgroup_collapsed>
0

$$$$
312805
                    3D
 Schrodinger Suite 2021-1.
 39 42  0  0  1  0            999 V2000
   -0.9703   23.8086   13.4338 C   0  0  0  0  0  0
   -0.0024   24.2567   12.4881 O   0  0  0  0  0  0
   -0.1611   25.4886   11.8818 C   0  0  0  0  0  0
    0.8095   25.8857   10.9649 C   0  0  0  0  0  0
    0.7018   27.1208   10.3218 C   0  0  0  0  0  0
   -0.3925   27.9516   10.6232 C   0  0  0  0  0  0
   -0.9040   29.2362   10.2564 C   0  0  0  0  0  0
   -2.0661   29.3353   11.0248 C   0  0  0  0  0  0
   -2.3221   28.2848   11.7757 N   0  0  0  0  0  0
   -1.3037   27.4353   11.5618 N   0  0  0  0  0  0
   -1.2473   26.2527   12.1991 N   0  0  0  0  0  0
   -0.3417   30.2385    9.2958 C   0  0  0  0  0  0
   -0.8741   31.5201    9.1022 C   0  0  0  0  0  0
   -0.2229   32.3430    8.1764 C   0  0  0  0  0  0
    0.8594   31.9337    7.4641 N   0  0  0  0  0  0
    1.3105   30.6792    7.7176 C   0  0  0  0  0  0
    0.7551   29.8256    8.6109 N   0  0  0  0  0  0
    2.4049   30.2520    6.9551 N   0  0  0  0  0  0
    3.2588   29.1451    7.0811 C   0  0  0  0  0  0
    3.5116   28.5535    8.3163 C   0  0  0  0  0  0
    4.3509   27.4528    8.4016 C   0  0  0  0  0  0
    4.9730   26.9573    7.2541 C   0  0  0  0  0  0
    4.7495   27.5648    6.0187 C   0  0  0  0  0  0
    3.8876   28.6520    5.9348 C   0  0  0  0  0  0
    5.8651   25.8130    7.3289 C   0  0  0  0  0  0
    6.5751   24.9001    7.3788 N   0  0  0  0  0  0
   -0.6930   22.8219   13.8044 H   0  0  0  0  0  0
   -1.0272   24.4808   14.2915 H   0  0  0  0  0  0
   -1.9591   23.7256   12.9815 H   0  0  0  0  0  0
    1.6489   25.2391   10.7536 H   0  0  0  0  0  0
    1.4499   27.4202    9.6051 H   0  0  0  0  0  0
   -2.7396   30.1819   11.0399 H   0  0  0  0  0  0
   -1.7356   31.8695    9.6522 H   0  0  0  0  0  0
   -0.5697   33.3494    7.9817 H   0  0  0  0  0  0
    2.6809   30.8898    6.2241 H   0  0  0  0  0  0
    3.0691   28.9453    9.2194 H   0  0  0  0  0  0
    4.4937   27.0109    9.3745 H   0  0  0  0  0  0
    5.2358   27.2012    5.1245 H   0  0  0  0  0  0
    3.7183   29.1180    4.9762 H   0  0  0  0  0  0
  1  2  1  0  0  0
  1 27  1  0  0  0
  1 28  1  0  0  0
  1 29  1  0  0  0
  2  3  1  0  0  0
  3 11  2  0  0  0
  3  4  1  0  0  0
  4  5  2  0  0  0
  4 30  1  0  0  0
  5  6  1  0  0  0
  5 31  1  0  0  0
  6 10  1  0  0  0
  6  7  2  0  0  0
  7  8  1  0  0  0
  7 12  1  0  0  0
  8  9  2  0  0  0
  8 32  1  0  0  0
  9 10  1  0  0  0
 10 11  1  0  0  0
 12 17  1  0  0  0
 12 13  2  0  0  0
 13 14  1  0  0  0
 13 33  1  0  0  0
 14 15  2  0  0  0
 14 34  1  0  0  0
 15 16  1  0  0  0
 16 17  2  0  0  0
 16 18  1  0  0  0
 18 19  1  0  0  0
 18 35  1  0  0  0
 19 24  1  0  0  0
 19 20  2  0  0  0
 20 21  1  0  0  0
 20 36  1  0  0  0
 21 22  2  0  0  0
 21 37  1  0  0  0
 22 23  1  0  0  0
 22 25  1  0  0  0
 23 24  2  0  0  0
 23 38  1  0  0  0
 24 39  1  0  0  0
 25 26  3  0  0  0
M  END
> <s_m_entry_id>
34997

> <s_m_entry_name>
ligand_docking-pose.494

> <s_m_Source_Path>
/home/csk/Desktop/cluster/DUD-E-result/cdk2

> <s_m_Source_File>
ligand_docking-pose.sdf

> <i_m_Source_File_Index>
494

> <i_lp_mmshare_version>
53161

> <r_lp_tautomer_probability>
0.999999987636

> <s_lp_Force_Field>
OPLS_2005

> <r_lp_Energy>
16.48199

> <b_lp_Chiralities_Consistent>
1

> <s_lp_Variant>
312805-1

> <s_i_glide_gridfile>
glide-grid_1h00

> <i_i_glide_lignum>
1605

> <i_i_glide_rotatable_bonds>
4

> <r_i_docking_score>
-6.86702249537626

> <r_i_glide_ligand_efficiency>
-0.264116249822164

> <r_i_glide_ligand_efficiency_sa>
-0.782443350850901

> <r_i_glide_ligand_efficiency_ln>
-1.61269770050047

> <r_i_glide_gscore>
-6.86702249537626

> <r_i_glide_lipo>
-2.46172197151252

> <r_i_glide_hbond>
-0.106503090327688

> <r_i_glide_metal>
0

> <r_i_glide_rewards>
-2.22661322222368

> <r_i_glide_evdw>
-39.7997512817383

> <r_i_glide_ecoul>
-3.76704454421997

> <r_i_glide_erotb>
0.482860034407539

> <r_i_glide_esite>
0

> <r_i_glide_emodel>
-61.8686560042545

> <r_i_glide_energy>
-43.5667958259583

> <r_i_glide_einternal>
1.84545803070068

> <i_i_glide_confnum>
3

> <i_i_glide_posenum>
116

> <r_i_glide_eff_state_penalty>
0

> <i_f3d_flags>
0

> <s_user_duplicate_titles>
312805

> <s_m_subgroup_title>
dock_pv

> <s_m_subgroupid>
dock_pv1

> <b_m_subgroup_collapsed>
0

$$$$
361192
                    3D
 Schrodinger Suite 2021-1.
 47 49  0  0  1  0            999 V2000
    1.3934   24.3109   11.7732 C   0  0  0  0  0  0
   -0.2164   23.7069   12.5421 S   0  0  0  0  0  0
    0.0551   23.4186   13.9546 O   0  0  0  0  0  0
   -0.7415   22.6660   11.6522 O   0  0  0  0  0  0
   -1.3198   25.0999   12.4703 N   0  0  2  0  0  0
   -1.9419   25.4521   11.1678 C   0  0  0  0  0  0
   -1.1395   26.5117   10.4205 C   0  0  0  0  0  0
   -0.9777   27.7530   11.3307 C   0  0  0  0  0  0
   -0.3425   27.4122   12.6973 C   0  0  0  0  0  0
   -1.0941   26.2511   13.3887 C   0  0  0  0  0  0
   -0.2678   28.8284   10.6429 N   0  0  0  0  0  0
    0.9354   28.6521    9.9514 C   0  0  0  0  0  0
    1.7520   27.5992   10.2264 N   0  0  0  0  0  0
    2.8674   27.4706    9.4685 C   0  0  0  0  0  0
    3.1886   28.3805    8.4589 C   0  0  0  0  0  0
    2.2952   29.4521    8.2758 C   0  0  0  0  0  0
    1.1672   29.5865    9.0050 N   0  0  0  0  0  0
    2.4578   30.4380    7.3101 N   0  0  0  0  0  0
    4.4394   28.2470    7.6869 C   0  0  0  0  0  0
    5.2581   29.1474    7.7765 O   0  0  0  0  0  0
    4.5697   27.2054    6.6282 C   0  0  0  0  0  0
    4.8577   25.8623    6.9113 C   0  0  0  0  0  0
    4.9386   24.9254    5.8793 C   0  0  0  0  0  0
    4.7501   25.3163    4.5548 C   0  0  0  0  0  0
    4.4882   26.6517    4.2623 C   0  0  0  0  0  0
    4.4025   27.5895    5.2906 C   0  0  0  0  0  0
    4.1396   28.8752    4.9763 F   0  0  0  0  0  0
    5.0544   25.4398    8.1762 F   0  0  0  0  0  0
    2.1336   23.5240   11.8927 H   0  0  0  0  0  0
    1.2376   24.5029   10.7139 H   0  0  0  0  0  0
    1.7293   25.2125   12.2804 H   0  0  0  0  0  0
   -2.9353   25.8527   11.3730 H   0  0  0  0  0  0
   -2.0753   24.5503   10.5714 H   0  0  0  0  0  0
   -1.6216   26.7762    9.4820 H   0  0  0  0  0  0
   -0.1918   26.0747   10.1242 H   0  0  0  0  0  0
   -1.9782   28.1530   11.5100 H   0  0  0  0  0  0
    0.7028   27.1492   12.5736 H   0  0  0  0  0  0
   -0.3502   28.2877   13.3479 H   0  0  0  0  0  0
   -2.0706   26.5955   13.7335 H   0  0  0  0  0  0
   -0.5524   25.9076   14.2705 H   0  0  0  0  0  0
   -0.8303   29.5992   10.3155 H   0  0  0  0  0  0
    3.5155   26.6420    9.7196 H   0  0  0  0  0  0
    3.3569   30.5285    6.8391 H   0  0  0  0  0  0
    1.7943   31.1954    7.3132 H   0  0  0  0  0  0
    5.1489   23.8910    6.1090 H   0  0  0  0  0  0
    4.8130   24.5925    3.7533 H   0  0  0  0  0  0
    4.3505   26.9581    3.2355 H   0  0  0  0  0  0
  1  2  1  0  0  0
  1 29  1  0  0  0
  1 30  1  0  0  0
  1 31  1  0  0  0
  2  3  2  0  0  0
  2  4  2  0  0  0
  2  5  1  0  0  0
  5 10  1  0  0  0
  5  6  1  0  0  0
  6  7  1  0  0  0
  6 32  1  0  0  0
  6 33  1  0  0  0
  7  8  1  0  0  0
  7 34  1  0  0  0
  7 35  1  0  0  0
  8  9  1  0  0  0
  8 11  1  0  0  0
  8 36  1  0  0  0
  9 10  1  0  0  0
  9 37  1  0  0  0
  9 38  1  0  0  0
 10 39  1  0  0  0
 10 40  1  0  0  0
 11 12  1  0  0  0
 11 41  1  0  0  0
 12 17  1  0  0  0
 12 13  2  0  0  0
 13 14  1  0  0  0
 14 15  2  0  0  0
 14 42  1  0  0  0
 15 16  1  0  0  0
 15 19  1  0  0  0
 16 17  2  0  0  0
 16 18  1  0  0  0
 18 43  1  0  0  0
 18 44  1  0  0  0
 19 20  2  0  0  0
 19 21  1  0  0  0
 21 26  1  0  0  0
 21 22  2  0  0  0
 22 23  1  0  0  0
 22 28  1  0  0  0
 23 24  2  0  0  0
 23 45  1  0  0  0
 24 25  1  0  0  0
 24 46  1  0  0  0
 25 26  2  0  0  0
 25 47  1  0  0  0
 26 27  1  0  0  0
M  END
> <s_m_entry_id>
34998

> <s_m_entry_name>
ligand_docking-pose.495

> <s_m_Source_Path>
/home/csk/Desktop/cluster/DUD-E-result/cdk2

> <s_m_Source_File>
ligand_docking-pose.sdf

> <i_m_Source_File_Index>
495

> <i_lp_mmshare_version>
53161

> <r_lp_tautomer_probability>
1

> <s_lp_Force_Field>
OPLS_2005

> <r_lp_Energy>
14.209573

> <b_lp_Chiralities_Consistent>
1

> <s_lp_Variant>
361192-1

> <s_i_glide_gridfile>
glide-grid_1h00

> <i_i_glide_lignum>
1767

> <i_i_glide_rotatable_bonds>
5

> <r_i_docking_score>
-6.86564973193904

> <r_i_glide_ligand_efficiency>
-0.24520177614068

> <r_i_glide_ligand_efficiency_sa>
-0.744577008486086

> <r_i_glide_ligand_efficiency_ln>
-1.58479354236704

> <r_i_glide_gscore>
-6.86564973193904

> <r_i_glide_lipo>
-2.02990994521647

> <r_i_glide_hbond>
-0.32

> <r_i_glide_metal>
0

> <r_i_glide_rewards>
-1.86472702960055

> <r_i_glide_evdw>
-40.6893501281738

> <r_i_glide_ecoul>
-7.07476902008057

> <r_i_glide_erotb>
0.465745993718616

> <r_i_glide_esite>
-0.0210758914198585

> <r_i_glide_emodel>
-63.1682621354117

> <r_i_glide_energy>
-47.7641191482544

> <r_i_glide_einternal>
9.08731365203857

> <i_i_glide_confnum>
20

> <i_i_glide_posenum>
224

> <r_i_glide_eff_state_penalty>
0

> <i_f3d_flags>
0

> <s_user_duplicate_titles>
361192

> <s_m_subgroup_title>
dock_pv

> <s_m_subgroupid>
dock_pv1

> <b_m_subgroup_collapsed>
0

$$$$
301203
                    3D
 Schrodinger Suite 2021-1.
 38 41  0  0  1  0            999 V2000
   -0.6466   23.8150   14.9747 C   0  0  0  0  0  0
   -0.3419   23.8630   13.5876 O   0  0  0  0  0  0
   -0.3944   25.0738   12.9258 C   0  0  0  0  0  0
   -0.7699   26.2916   13.5158 C   0  0  0  0  0  0
   -0.8024   27.4598   12.7563 C   0  0  0  0  0  0
   -0.4480   27.4213   11.4030 C   0  0  0  0  0  0
   -0.0739   26.2106   10.8171 C   0  0  0  0  0  0
   -0.0485   25.0468   11.5766 C   0  0  0  0  0  0
   -0.4901   28.5958   10.6182 N   0  0  0  0  0  0
    0.4466   29.0915    9.7376 C   0  0  0  0  0  0
   -0.1028   30.2520    9.2074 C   0  0  0  0  0  0
   -1.3875   30.3547    9.7889 C   0  0  0  0  0  0
   -1.5894   29.3664   10.6427 N   0  0  0  0  0  0
   -2.3502   31.3965    9.4764 C   0  0  0  0  0  0
   -2.1647   32.2272    8.5926 O   0  0  0  0  0  0
   -3.4840   31.3975   10.1759 N   0  0  0  0  0  0
    0.6223   31.1161    8.1722 C   0  0  0  0  0  0
    1.9025   30.4742    7.5520 C   0  0  0  0  0  0
    2.4851   29.3344    8.3677 C   0  0  0  0  0  0
    1.7814   28.6548    9.3760 C   0  0  0  0  0  0
    2.6632   27.6884    9.8241 C   0  0  0  0  0  0
    3.7837   27.8440    9.0557 N   0  0  0  0  0  0
    3.6900   28.8429    8.1766 N   0  0  0  0  0  0
    4.6264   27.2920    9.1611 H   0  0  0  0  0  0
   -0.5673   22.7856   15.3243 H   0  0  0  0  0  0
    0.0580   24.4134   15.5521 H   0  0  0  0  0  0
   -1.6633   24.1558   15.1756 H   0  0  0  0  0  0
   -1.0456   26.3511   14.5569 H   0  0  0  0  0  0
   -1.1040   28.3889   13.2211 H   0  0  0  0  0  0
    0.1967   26.1631    9.7757 H   0  0  0  0  0  0
    0.2408   24.1146   11.1149 H   0  0  0  0  0  0
   -3.5409   30.9192   11.0717 H   0  0  0  0  0  0
   -4.1725   32.1004    9.9542 H   0  0  0  0  0  0
   -0.0756   31.3421    7.3759 H   0  0  0  0  0  0
    0.8579   32.0970    8.5759 H   0  0  0  0  0  0
    1.6579   30.0805    6.5760 H   0  0  0  0  0  0
    2.6536   31.2448    7.3756 H   0  0  0  0  0  0
    2.6180   26.9459   10.6086 H   0  0  0  0  0  0
  1  2  1  0  0  0
  1 25  1  0  0  0
  1 26  1  0  0  0
  1 27  1  0  0  0
  2  3  1  0  0  0
  3  8  1  0  0  0
  3  4  2  0  0  0
  4  5  1  0  0  0
  4 28  1  0  0  0
  5  6  2  0  0  0
  5 29  1  0  0  0
  6  7  1  0  0  0
  6  9  1  0  0  0
  7  8  2  0  0  0
  7 30  1  0  0  0
  8 31  1  0  0  0
  9 13  1  0  0  0
  9 10  1  0  0  0
 10 20  1  0  0  0
 10 11  2  0  0  0
 11 12  1  0  0  0
 11 17  1  0  0  0
 12 13  2  0  0  0
 12 14  1  0  0  0
 14 15  2  0  0  0
 14 16  1  0  0  0
 16 32  1  0  0  0
 16 33  1  0  0  0
 17 18  1  0  0  0
 17 34  1  0  0  0
 17 35  1  0  0  0
 18 19  1  0  0  0
 18 36  1  0  0  0
 18 37  1  0  0  0
 19 23  2  0  0  0
 19 20  1  0  0  0
 20 21  2  0  0  0
 21 22  1  0  0  0
 21 38  1  0  0  0
 22 24  1  0  0  0
 22 23  1  0  0  0
M  END
> <s_m_entry_id>
34999

> <s_m_entry_name>
ligand_docking-pose.496

> <s_m_Source_Path>
/home/csk/Desktop/cluster/DUD-E-result/cdk2

> <s_m_Source_File>
ligand_docking-pose.sdf

> <i_m_Source_File_Index>
496

> <i_lp_mmshare_version>
53161

> <r_lp_tautomer_probability>
0.5

> <s_lp_Force_Field>
OPLS_2005

> <r_lp_Energy>
25.927388

> <b_lp_Chiralities_Consistent>
1

> <s_lp_Variant>
301203-1

> <s_i_glide_gridfile>
glide-grid_1h00

> <i_i_glide_lignum>
1701

> <i_i_glide_rotatable_bonds>
3

> <r_i_docking_score>
-6.86518764846771

> <r_i_glide_ligand_efficiency>
-0.298486419498596

> <r_i_glide_ligand_efficiency_sa>
-0.848855671458986

> <r_i_glide_ligand_efficiency_ln>
-1.66006462347941

> <r_i_glide_gscore>
-6.86518764846771

> <r_i_glide_lipo>
-2.45510195837841

> <r_i_glide_hbond>
-0.169242901973491

> <r_i_glide_metal>
0

> <r_i_glide_rewards>
-2.08674278552934

> <r_i_glide_evdw>
-38.0560531616211

> <r_i_glide_ecoul>
-2.70408177375793

> <r_i_glide_erotb>
0.193503448124884

> <r_i_glide_esite>
-0.0391885265666083

> <r_i_glide_emodel>
-58.90237254555

> <r_i_glide_energy>
-40.760134935379

> <r_i_glide_einternal>
0.247097685933113

> <i_i_glide_confnum>
3

> <i_i_glide_posenum>
186

> <r_i_glide_eff_state_penalty>
0

> <i_f3d_flags>
0

> <s_user_duplicate_titles>
301203

> <s_m_subgroup_title>
dock_pv

> <s_m_subgroupid>
dock_pv1

> <b_m_subgroup_collapsed>
0

$$$$
316313
                    3D
 Schrodinger Suite 2021-1.
 45 48  0  0  1  0            999 V2000
   -1.8409   32.5215   10.1572 C   0  0  0  0  0  0
   -1.6707   31.5428    8.9836 C   0  0  0  0  0  0
   -0.9068   30.2968    9.3822 C   0  0  0  0  0  0
    0.4045   29.8513    9.0089 C   0  0  0  0  0  0
    0.6254   28.6775    9.7760 C   0  0  0  0  0  0
    1.7549   27.9455    9.7752 N   0  0  0  0  0  0
    2.7103   28.4389    8.9351 C   0  0  0  0  0  0
    2.6067   29.5461    8.1571 N   0  0  0  0  0  0
    1.4545   30.2521    8.1631 C   0  0  0  0  0  0
    1.2568   31.3548    7.3766 O   0  0  0  0  0  0
    4.0179   27.6484    8.7990 C   0  0  0  0  0  0
    4.4156   27.2439    7.3746 C   0  0  0  0  0  0
    4.6604   28.2188    6.4023 C   0  0  0  0  0  0
    4.8578   27.8511    5.0765 C   0  0  0  0  0  0
    4.8632   26.5057    4.7226 C   0  0  0  0  0  0
    4.6779   25.5201    5.6911 C   0  0  0  0  0  0
    4.4592   25.8900    7.0174 C   0  0  0  0  0  0
    5.0528   26.1526    3.3875 N   0  0  0  0  0  0
   -0.5427   28.4800   10.4990 N   0  0  0  0  0  0
   -1.4405   29.4520   10.2282 N   0  0  0  0  0  0
   -0.8674   27.4865   11.4452 C   0  0  0  0  0  0
   -1.1365   26.1696   11.0404 C   0  0  0  0  0  0
   -1.4549   25.2009   11.9930 C   0  0  0  0  0  0
   -1.5441   25.5391   13.3402 C   0  0  0  0  0  0
   -1.3205   26.8524   13.7410 C   0  0  0  0  0  0
   -0.9874   27.8314   12.8035 C   0  0  0  0  0  0
   -0.7430   29.4521   13.3560 Cl  0  0  0  0  0  0
   -1.9487   24.3375   14.5104 Cl  0  0  0  0  0  0
   -1.1416   25.7031    9.3762 Cl  0  0  0  0  0  0
   -2.3488   33.4320    9.8432 H   0  0  0  0  0  0
   -2.4264   32.0757   10.9647 H   0  0  0  0  0  0
   -0.8767   32.8125   10.5747 H   0  0  0  0  0  0
   -1.1760   32.0707    8.1747 H   0  0  0  0  0  0
   -2.6539   31.2724    8.5977 H   0  0  0  0  0  0
    0.4056   31.7605    7.5385 H   0  0  0  0  0  0
    4.8250   28.2377    9.2318 H   0  0  0  0  0  0
    3.9467   26.7416    9.3949 H   0  0  0  0  0  0
    4.6559   29.2667    6.6655 H   0  0  0  0  0  0
    5.0234   28.6168    4.3351 H   0  0  0  0  0  0
    4.6868   24.4753    5.4184 H   0  0  0  0  0  0
    4.2727   25.1224    7.7537 H   0  0  0  0  0  0
    4.8545   25.2080    3.0785 H   0  0  0  0  0  0
    5.1626   26.8810    2.6990 H   0  0  0  0  0  0
   -1.6631   24.1907   11.6799 H   0  0  0  0  0  0
   -1.4216   27.1156   14.7830 H   0  0  0  0  0  0
  1  2  1  0  0  0
  1 30  1  0  0  0
  1 31  1  0  0  0
  1 32  1  0  0  0
  2  3  1  0  0  0
  2 33  1  0  0  0
  2 34  1  0  0  0
  3 20  2  0  0  0
  3  4  1  0  0  0
  4  9  2  0  0  0
  4  5  1  0  0  0
  5  6  2  0  0  0
  5 19  1  0  0  0
  6  7  1  0  0  0
  7  8  2  0  0  0
  7 11  1  0  0  0
  8  9  1  0  0  0
  9 10  1  0  0  0
 10 35  1  0  0  0
 11 12  1  0  0  0
 11 36  1  0  0  0
 11 37  1  0  0  0
 12 17  1  0  0  0
 12 13  2  0  0  0
 13 14  1  0  0  0
 13 38  1  0  0  0
 14 15  2  0  0  0
 14 39  1  0  0  0
 15 16  1  0  0  0
 15 18  1  0  0  0
 16 17  2  0  0  0
 16 40  1  0  0  0
 17 41  1  0  0  0
 18 42  1  0  0  0
 18 43  1  0  0  0
 19 20  1  0  0  0
 19 21  1  0  0  0
 21 26  1  0  0  0
 21 22  2  0  0  0
 22 23  1  0  0  0
 22 29  1  0  0  0
 23 24  2  0  0  0
 23 44  1  0  0  0
 24 25  1  0  0  0
 24 28  1  0  0  0
 25 26  2  0  0  0
 25 45  1  0  0  0
 26 27  1  0  0  0
M  END
> <s_m_entry_id>
35000

> <s_m_entry_name>
ligand_docking-pose.497

> <s_m_Source_Path>
/home/csk/Desktop/cluster/DUD-E-result/cdk2

> <s_m_Source_File>
ligand_docking-pose.sdf

> <i_m_Source_File_Index>
497

> <i_lp_mmshare_version>
53161

> <r_lp_tautomer_probability>
1

> <s_lp_Force_Field>
OPLS_2005

> <r_lp_Energy>
6.204314

> <b_lp_Chiralities_Consistent>
1

> <s_lp_Variant>
316313-1

> <s_i_glide_gridfile>
glide-grid_1h00

> <i_i_glide_lignum>
939

> <i_i_glide_rotatable_bonds>
5

> <r_i_docking_score>
-6.86454740960403

> <r_i_glide_ligand_efficiency>
-0.236708531365656

> <r_i_glide_ligand_efficiency_sa>
-0.72724360288181

> <r_i_glide_ligand_efficiency_ln>
-1.57180728689618

> <r_i_glide_gscore>
-6.86454740960403

> <r_i_glide_lipo>
-3.19774151890876

> <r_i_glide_hbond>
0

> <r_i_glide_metal>
0

> <r_i_glide_rewards>
-1.42462629402228

> <r_i_glide_evdw>
-47.5294609069824

> <r_i_glide_ecoul>
-0.799854397773743

> <r_i_glide_erotb>
0.298496979108292

> <r_i_glide_esite>
-0.0442253707660893

> <r_i_glide_emodel>
-66.8966048671492

> <r_i_glide_energy>
-48.3293153047562

> <r_i_glide_einternal>
2.19338250160217

> <i_i_glide_confnum>
4

> <i_i_glide_posenum>
7

> <r_i_glide_eff_state_penalty>
0

> <i_f3d_flags>
0

> <s_user_duplicate_titles>
316313

> <s_m_subgroup_title>
dock_pv

> <s_m_subgroupid>
dock_pv1

> <b_m_subgroup_collapsed>
0

$$$$
441662
                    3D
 Schrodinger Suite 2021-1.
 36 39  0  0  1  0            999 V2000
    3.0736   25.4391    9.4032 C   0  0  0  0  0  0
    2.4051   26.4847   10.1075 O   0  0  0  0  0  0
    2.2782   27.6973    9.4690 C   0  0  0  0  0  0
    3.2584   28.2519    8.6331 C   0  0  0  0  0  0
    3.0149   29.4677    8.0014 C   0  0  0  0  0  0
    1.8827   30.2020    8.1460 N   0  0  0  0  0  0
    0.9755   29.6740    8.9781 C   0  0  0  0  0  0
    1.0811   28.4274    9.6698 C   0  0  0  0  0  0
   -0.1689   28.2972   10.3874 C   0  0  0  0  0  0
   -1.0124   29.4324   10.1816 C   0  0  0  0  0  0
   -0.2453   30.2527    9.3299 N   0  0  0  0  0  0
   -0.7415   31.4966    8.9584 C   0  0  0  0  0  0
   -1.9491   31.9443    9.3633 N   0  0  0  0  0  0
   -2.6963   31.1442   10.1559 C   0  0  0  0  0  0
   -2.2847   29.8834   10.5788 C   0  0  0  0  0  0
   -0.0222   32.3976    8.1762 N   0  0  0  0  0  0
   -0.5790   27.1204   11.2174 C   0  0  0  0  0  0
   -0.3401   25.7967   10.8281 C   0  0  0  0  0  0
   -0.7577   24.7895   11.7002 C   0  0  0  0  0  0
   -1.4006   25.0549   12.8669 N   0  0  0  0  0  0
   -1.6234   26.3637   13.1404 C   0  0  0  0  0  0
   -1.2343   27.4128   12.3757 N   0  0  0  0  0  0
   -2.3418   26.6515   14.2923 N   0  0  0  0  0  0
    3.2170   24.5968   10.0787 H   0  0  0  0  0  0
    4.0533   25.7051    9.0056 H   0  0  0  0  0  0
    2.4588   25.0895    8.5756 H   0  0  0  0  0  0
    4.2034   27.7591    8.4685 H   0  0  0  0  0  0
    3.7695   29.8869    7.3537 H   0  0  0  0  0  0
   -3.6498   31.5417   10.4771 H   0  0  0  0  0  0
   -2.9100   29.2963   11.2359 H   0  0  0  0  0  0
   -0.3849   33.3362    8.0948 H   0  0  0  0  0  0
    0.9619   32.2108    8.0445 H   0  0  0  0  0  0
    0.1449   25.5584    9.8946 H   0  0  0  0  0  0
   -0.5903   23.7488   11.4656 H   0  0  0  0  0  0
   -2.7881   27.5723   14.3096 H   0  0  0  0  0  0
   -2.8065   25.8749   14.7296 H   0  0  0  0  0  0
  1  2  1  0  0  0
  1 24  1  0  0  0
  1 25  1  0  0  0
  1 26  1  0  0  0
  2  3  1  0  0  0
  3  8  1  0  0  0
  3  4  2  0  0  0
  4  5  1  0  0  0
  4 27  1  0  0  0
  5  6  2  0  0  0
  5 28  1  0  0  0
  6  7  1  0  0  0
  7 11  1  0  0  0
  7  8  2  0  0  0
  8  9  1  0  0  0
  9 10  2  0  0  0
  9 17  1  0  0  0
 10 15  1  0  0  0
 10 11  1  0  0  0
 11 12  1  0  0  0
 12 13  2  0  0  0
 12 16  1  0  0  0
 13 14  1  0  0  0
 14 15  2  0  0  0
 14 29  1  0  0  0
 15 30  1  0  0  0
 16 31  1  0  0  0
 16 32  1  0  0  0
 17 22  1  0  0  0
 17 18  2  0  0  0
 18 19  1  0  0  0
 18 33  1  0  0  0
 19 20  2  0  0  0
 19 34  1  0  0  0
 20 21  1  0  0  0
 21 22  2  0  0  0
 21 23  1  0  0  0
 23 35  1  0  0  0
 23 36  1  0  0  0
M  END
> <s_m_entry_id>
35002

> <s_m_entry_name>
ligand_docking-pose.499

> <s_m_Source_Path>
/home/csk/Desktop/cluster/DUD-E-result/cdk2

> <s_m_Source_File>
ligand_docking-pose.sdf

> <i_m_Source_File_Index>
499

> <i_lp_mmshare_version>
53161

> <r_lp_tautomer_probability>
0.999999987636

> <s_lp_Force_Field>
OPLS_2005

> <r_lp_Energy>
28.325873

> <b_lp_Chiralities_Consistent>
1

> <s_lp_Variant>
441662-1

> <s_i_glide_gridfile>
glide-grid_1h00

> <i_i_glide_lignum>
1715

> <i_i_glide_rotatable_bonds>
2

> <r_i_docking_score>
-6.8613234656357

> <r_i_glide_ligand_efficiency>
-0.298318411549378

> <r_i_glide_ligand_efficiency_sa>
-0.848377879200353

> <r_i_glide_ligand_efficiency_ln>
-1.65913022903216

> <r_i_glide_gscore>
-6.8613234656357

> <r_i_glide_lipo>
-1.79931801676598

> <r_i_glide_hbond>
-0.16

> <r_i_glide_metal>
0

> <r_i_glide_rewards>
-2.50262531081384

> <r_i_glide_evdw>
-36.5732574462891

> <r_i_glide_ecoul>
-4.54074764251709

> <r_i_glide_erotb>
0.195733097733485

> <r_i_glide_esite>
-0.0853382170973525

> <r_i_glide_emodel>
-56.8524463189263

> <r_i_glide_energy>
-41.1140050888062

> <r_i_glide_einternal>
2.81412267684937

> <i_i_glide_confnum>
1

> <i_i_glide_posenum>
49

> <r_i_glide_eff_state_penalty>
0

> <i_f3d_flags>
0

> <s_user_duplicate_titles>
441662

> <s_m_subgroup_title>
dock_pv

> <s_m_subgroupid>
dock_pv1

> <b_m_subgroup_collapsed>
0

$$$$
301044
                    3D
 Schrodinger Suite 2021-1.
 34 37  0  0  1  0            999 V2000
   -0.5413   25.1018   12.9190 C   0  0  0  0  0  0
   -0.9468   26.3065   13.4905 C   0  0  0  0  0  0
   -0.9524   27.4673   12.7227 C   0  0  0  0  0  0
   -0.5429   27.4196   11.3832 C   0  0  0  0  0  0
   -0.1480   26.2039   10.8135 C   0  0  0  0  0  0
   -0.1437   25.0452   11.5846 C   0  0  0  0  0  0
   -0.5571   28.5938   10.5980 N   0  0  0  0  0  0
    0.3939   29.0792    9.7263 C   0  0  0  0  0  0
   -0.1359   30.2464    9.1951 C   0  0  0  0  0  0
   -1.4182   30.3728    9.7757 C   0  0  0  0  0  0
   -1.6406   29.3852   10.6235 N   0  0  0  0  0  0
   -2.3638   31.4285    9.4651 C   0  0  0  0  0  0
   -2.1699   32.2513    8.5761 O   0  0  0  0  0  0
   -3.4904   31.4510   10.1760 N   0  0  0  0  0  0
    0.6053   31.0885    8.1594 C   0  0  0  0  0  0
    1.8868   30.4297    7.5492 C   0  0  0  0  0  0
    2.4575   29.2964    8.3816 C   0  0  0  0  0  0
    1.7292   28.6317    9.3808 C   0  0  0  0  0  0
    2.5949   27.6647    9.8578 C   0  0  0  0  0  0
    3.7256   27.7947    9.1015 N   0  0  0  0  0  0
    3.6578   28.7864    8.2102 N   0  0  0  0  0  0
    4.5605   27.2348    9.2265 H   0  0  0  0  0  0
   -0.5390   24.2011   13.5146 H   0  0  0  0  0  0
   -1.2609   26.3425   14.5231 H   0  0  0  0  0  0
   -1.2774   28.3972   13.1701 H   0  0  0  0  0  0
    0.1504   26.1517    9.7764 H   0  0  0  0  0  0
    0.1640   24.1067   11.1477 H   0  0  0  0  0  0
   -3.5432   30.9789   11.0751 H   0  0  0  0  0  0
   -4.1754   32.1581    9.9574 H   0  0  0  0  0  0
   -0.0941   31.3353    7.3755 H   0  0  0  0  0  0
    0.8571   32.0606    8.5760 H   0  0  0  0  0  0
    1.6549   30.0265    6.5758 H   0  0  0  0  0  0
    2.6451   31.1941    7.3760 H   0  0  0  0  0  0
    2.5306   26.9336   10.6514 H   0  0  0  0  0  0
  1  6  1  0  0  0
  1  2  2  0  0  0
  1 23  1  0  0  0
  2  3  1  0  0  0
  2 24  1  0  0  0
  3  4  2  0  0  0
  3 25  1  0  0  0
  4  5  1  0  0  0
  4  7  1  0  0  0
  5  6  2  0  0  0
  5 26  1  0  0  0
  6 27  1  0  0  0
  7 11  1  0  0  0
  7  8  1  0  0  0
  8 18  1  0  0  0
  8  9  2  0  0  0
  9 10  1  0  0  0
  9 15  1  0  0  0
 10 11  2  0  0  0
 10 12  1  0  0  0
 12 13  2  0  0  0
 12 14  1  0  0  0
 14 28  1  0  0  0
 14 29  1  0  0  0
 15 16  1  0  0  0
 15 30  1  0  0  0
 15 31  1  0  0  0
 16 17  1  0  0  0
 16 32  1  0  0  0
 16 33  1  0  0  0
 17 21  2  0  0  0
 17 18  1  0  0  0
 18 19  2  0  0  0
 19 20  1  0  0  0
 19 34  1  0  0  0
 20 22  1  0  0  0
 20 21  1  0  0  0
M  END
> <s_m_entry_id>
35003

> <s_m_entry_name>
ligand_docking-pose.500

> <s_m_Source_Path>
/home/csk/Desktop/cluster/DUD-E-result/cdk2

> <s_m_Source_File>
ligand_docking-pose.sdf

> <i_m_Source_File_Index>
500

> <i_lp_mmshare_version>
53161

> <r_lp_tautomer_probability>
0.5

> <s_lp_Force_Field>
OPLS_2005

> <r_lp_Energy>
22.715498

> <b_lp_Chiralities_Consistent>
1

> <s_lp_Variant>
301044-1

> <s_i_glide_gridfile>
glide-grid_1h00

> <i_i_glide_lignum>
397

> <i_i_glide_rotatable_bonds>
2

> <r_i_docking_score>
-6.86014648807103

> <r_i_glide_ligand_efficiency>
-0.326673642289097

> <r_i_glide_ligand_efficiency_sa>
-0.901267808583223

> <r_i_glide_ligand_efficiency_ln>
-1.69615735694434

> <r_i_glide_gscore>
-6.86014648807103

> <r_i_glide_lipo>
-2.36410421519828

> <r_i_glide_hbond>
-0.18803901953377

> <r_i_glide_metal>
0

> <r_i_glide_rewards>
-2.29673835229931

> <r_i_glide_evdw>
-34.9700164794922

> <r_i_glide_ecoul>
-3.03308081626892

> <r_i_glide_erotb>
0.231271135001365

> <r_i_glide_esite>
-0.0390730896260856

> <r_i_glide_emodel>
-54.9065468429031

> <r_i_glide_energy>
-38.0030972957611

> <r_i_glide_einternal>
0.204773679375648

> <i_i_glide_confnum>
2

> <i_i_glide_posenum>
140

> <r_i_glide_eff_state_penalty>
0

> <i_f3d_flags>
0

> <s_user_duplicate_titles>
301044

> <s_m_subgroup_title>
dock_pv

> <s_m_subgroupid>
dock_pv1

> <b_m_subgroup_collapsed>
0

$$$$
321259
                    3D
 Schrodinger Suite 2021-1.
 43 46  0  0  1  0            999 V2000
   -2.4814   29.8166   10.4188 C   0  0  0  0  0  0
   -1.0605   29.3081   10.7658 C   0  0  1  0  0  0
   -1.0846   27.8802   11.3435 C   0  0  0  0  0  0
   -1.0602   27.7093   12.7285 C   0  0  0  0  0  0
   -1.0597   26.4334   13.2830 C   0  0  0  0  0  0
   -1.1063   25.2901   12.4654 C   0  0  0  0  0  0
   -1.1537   25.4730   11.0721 C   0  0  0  0  0  0
   -1.1421   26.7508   10.5188 C   0  0  0  0  0  0
   -1.1336   23.9847   13.0466 N   0  0  0  0  0  0
   -1.5226   23.6627   14.3028 C   0  0  0  0  0  0
   -1.4964   22.4317   14.5420 N   0  0  0  0  0  0
   -1.1094   21.9132   13.3869 N   0  0  0  0  0  0
   -0.7421   22.8176   12.4718 C   0  0  0  0  0  0
   -0.2265   22.5991   11.3760 O   0  0  0  0  0  0
   -0.0384   29.4901    9.6150 C   0  0  0  0  0  0
   -0.3410   30.1391    8.6104 O   0  0  0  0  0  0
    1.1635   28.9042    9.8041 N   0  0  0  0  0  0
    2.2425   28.9301    8.9455 C   0  0  0  0  0  0
    3.2574   27.9643    8.9440 C   0  0  0  0  0  0
    4.0971   28.2910    7.8945 C   0  0  0  0  0  0
    3.5671   29.4509    7.4007 N   0  0  0  0  0  0
    2.4609   29.8517    8.0263 N   0  0  0  0  0  0
    5.3222   27.6588    7.2911 C   0  0  0  0  0  0
    5.8469   26.3319    7.7757 C   0  0  0  0  0  0
    5.1882   26.4398    6.4140 C   0  0  0  0  0  0
    3.9874   30.0069    6.6612 H   0  0  0  0  0  0
   -2.8371   29.4522    9.4564 H   0  0  0  0  0  0
   -3.2084   29.5095   11.1696 H   0  0  0  0  0  0
   -2.5065   30.9062   10.3714 H   0  0  0  0  0  0
   -0.6887   29.9624   11.5563 H   0  0  0  0  0  0
   -1.0354   28.5686   13.3830 H   0  0  0  0  0  0
   -1.0195   26.3561   14.3585 H   0  0  0  0  0  0
   -1.2181   24.6343   10.3963 H   0  0  0  0  0  0
   -1.1819   26.8603    9.4444 H   0  0  0  0  0  0
   -1.8418   24.3970   15.0356 H   0  0  0  0  0  0
   -1.0220   20.9076   13.3096 H   0  0  0  0  0  0
    1.2574   28.2991   10.6060 H   0  0  0  0  0  0
    3.3488   27.1071    9.5958 H   0  0  0  0  0  0
    6.0579   28.3885    6.9759 H   0  0  0  0  0  0
    5.3178   25.8150    8.5757 H   0  0  0  0  0  0
    6.9265   26.1976    7.8404 H   0  0  0  0  0  0
    5.8042   26.3816    5.5158 H   0  0  0  0  0  0
    4.1983   26.0062    6.2665 H   0  0  0  0  0  0
  1  2  1  0  0  0
  1 27  1  0  0  0
  1 28  1  0  0  0
  1 29  1  0  0  0
  2  3  1  0  0  0
  2 15  1  0  0  0
  2 30  1  0  0  0
  3  8  1  0  0  0
  3  4  2  0  0  0
  4  5  1  0  0  0
  4 31  1  0  0  0
  5  6  2  0  0  0
  5 32  1  0  0  0
  6  7  1  0  0  0
  6  9  1  0  0  0
  7  8  2  0  0  0
  7 33  1  0  0  0
  8 34  1  0  0  0
  9 13  1  0  0  0
  9 10  1  0  0  0
 10 35  1  0  0  0
 10 11  2  0  0  0
 11 12  1  0  0  0
 12 36  1  0  0  0
 12 13  1  0  0  0
 13 14  2  0  0  0
 15 16  2  0  0  0
 15 17  1  0  0  0
 17 18  1  0  0  0
 17 37  1  0  0  0
 18 22  2  0  0  0
 18 19  1  0  0  0
 19 20  2  0  0  0
 19 38  1  0  0  0
 20 21  1  0  0  0
 20 23  1  0  0  0
 21 26  1  0  0  0
 21 22  1  0  0  0
 23 25  1  0  0  0
 23 24  1  0  0  0
 23 39  1  0  0  0
 24 25  1  0  0  0
 24 40  1  0  0  0
 24 41  1  0  0  0
 25 42  1  0  0  0
 25 43  1  0  0  0
M  END
> <s_m_entry_id>
35004

> <s_m_entry_name>
ligand_docking-pose.501

> <s_m_Source_Path>
/home/csk/Desktop/cluster/DUD-E-result/cdk2

> <s_m_Source_File>
ligand_docking-pose.sdf

> <i_m_Source_File_Index>
501

> <i_lp_mmshare_version>
53161

> <r_lp_tautomer_probability>
0.499949999087591

> <s_lp_Force_Field>
OPLS_2005

> <r_lp_Energy>
45.680582

> <b_lp_Chiralities_Consistent>
1

> <s_lp_Variant>
321259-2

> <s_i_glide_gridfile>
glide-grid_1h00

> <i_i_glide_lignum>
1044

> <i_i_glide_rotatable_bonds>
6

> <r_i_docking_score>
-6.85789073139697

> <r_i_glide_ligand_efficiency>
-0.274315629255879

> <r_i_glide_ligand_efficiency_sa>
-0.802103764952589

> <r_i_glide_ligand_efficiency_ln>
-1.62552561774231

> <r_i_glide_gscore>
-6.85789073139697

> <r_i_glide_lipo>
-2.40420629152391

> <r_i_glide_hbond>
-0.496099401270359

> <r_i_glide_metal>
0

> <r_i_glide_rewards>
-1.84870016301632

> <r_i_glide_evdw>
-39.8639183044434

> <r_i_glide_ecoul>
-7.18671798706055

> <r_i_glide_erotb>
0.991057180798099

> <r_i_glide_esite>
-0.0287384431032247

> <r_i_glide_emodel>
-64.8540147536293

> <r_i_glide_energy>
-47.0506362915039

> <r_i_glide_einternal>
3.99376130104065

> <i_i_glide_confnum>
31

> <i_i_glide_posenum>
365

> <r_i_glide_eff_state_penalty>
0

> <i_f3d_flags>
0

> <s_user_duplicate_titles>
321259

> <s_m_subgroup_title>
dock_pv

> <s_m_subgroupid>
dock_pv1

> <b_m_subgroup_collapsed>
0

$$$$
301089
                    3D
 Schrodinger Suite 2021-1.
 25 27  0  0  1  0            999 V2000
    0.2668   27.6102   11.3467 C   0  0  0  0  0  0
    0.0229   28.6856   10.4018 N   0  0  0  0  0  0
    0.8349   29.2037    9.4187 C   0  0  0  0  0  0
    0.1343   30.2702    8.8344 C   0  0  0  0  0  0
    0.7359   30.9837    7.7785 C   0  0  0  0  0  0
    2.0116   30.6508    7.3026 C   0  0  0  0  0  0
    2.6910   29.5962    7.9216 C   0  0  0  0  0  0
    2.1303   28.8577    8.9760 C   0  0  0  0  0  0
    3.1032   27.8797    9.3381 C   0  0  0  0  0  0
    4.1640   28.0048    8.5762 N   0  0  0  0  0  0
    3.9365   29.0339    7.7323 N   0  0  0  0  0  0
   -1.0981   30.3636    9.5764 C   0  0  0  0  0  0
   -1.1142   29.4063   10.4913 N   0  0  0  0  0  0
   -2.1566   31.3391    9.4086 C   0  0  0  0  0  0
   -2.0800   32.2369    8.5762 O   0  0  0  0  0  0
   -3.2391   31.2130   10.1760 N   0  0  0  0  0  0
    4.6369   29.3129    7.0591 H   0  0  0  0  0  0
    0.8054   26.8027   10.8517 H   0  0  0  0  0  0
   -0.6767   27.2204   11.7309 H   0  0  0  0  0  0
    0.8578   27.9945   12.1763 H   0  0  0  0  0  0
    0.2198   31.8323    7.3598 H   0  0  0  0  0  0
    2.4580   31.2105    6.4949 H   0  0  0  0  0  0
    3.0617   27.1256   10.1105 H   0  0  0  0  0  0
   -3.2186   30.6524   11.0212 H   0  0  0  0  0  0
   -3.9822   31.8831   10.0545 H   0  0  0  0  0  0
  1  2  1  0  0  0
  1 18  1  0  0  0
  1 19  1  0  0  0
  1 20  1  0  0  0
  2 13  1  0  0  0
  2  3  1  0  0  0
  3  8  2  0  0  0
  3  4  1  0  0  0
  4  5  2  0  0  0
  4 12  1  0  0  0
  5  6  1  0  0  0
  5 21  1  0  0  0
  6  7  2  0  0  0
  6 22  1  0  0  0
  7 11  1  0  0  0
  7  8  1  0  0  0
  8  9  1  0  0  0
  9 10  2  0  0  0
  9 23  1  0  0  0
 10 11  1  0  0  0
 11 17  1  0  0  0
 12 13  2  0  0  0
 12 14  1  0  0  0
 14 15  2  0  0  0
 14 16  1  0  0  0
 16 24  1  0  0  0
 16 25  1  0  0  0
M  END
> <s_m_entry_id>
35006

> <s_m_entry_name>
ligand_docking-pose.503

> <s_m_Source_Path>
/home/csk/Desktop/cluster/DUD-E-result/cdk2

> <s_m_Source_File>
ligand_docking-pose.sdf

> <i_m_Source_File_Index>
503

> <i_lp_mmshare_version>
53161

> <r_lp_tautomer_probability>
1

> <s_lp_Force_Field>
OPLS_2005

> <r_lp_Energy>
56.036578

> <b_lp_Chiralities_Consistent>
1

> <s_lp_Variant>
301089-1

> <s_i_glide_gridfile>
glide-grid_1h00

> <i_i_glide_lignum>
1406

> <i_i_glide_rotatable_bonds>
1

> <r_i_docking_score>
-6.84228407271063

> <r_i_glide_ligand_efficiency>
-0.427642754544414

> <r_i_glide_ligand_efficiency_sa>
-1.07759221557516

> <r_i_glide_ligand_efficiency_ln>
-1.81368407119883

> <r_i_glide_gscore>
-6.84228407271063

> <r_i_glide_lipo>
-1.86141149718903

> <r_i_glide_hbond>
-0.0690166710336274

> <r_i_glide_metal>
0

> <r_i_glide_rewards>
-2.75131822127917

> <r_i_glide_evdw>
-29.8381404876709

> <r_i_glide_ecoul>
-4.33610105514526

> <r_i_glide_erotb>
0

> <r_i_glide_esite>
-0.0182155005534686

> <r_i_glide_emodel>
-48.4476708551913

> <r_i_glide_energy>
-34.1742415428162

> <r_i_glide_einternal>
0.0332155711948872

> <i_i_glide_confnum>
1

> <i_i_glide_posenum>
261

> <r_i_glide_eff_state_penalty>
0

> <i_f3d_flags>
0

> <s_user_duplicate_titles>
301089

> <s_m_subgroup_title>
dock_pv

> <s_m_subgroupid>
dock_pv1

> <b_m_subgroup_collapsed>
0

$$$$
301238
                    3D
 Schrodinger Suite 2021-1.
 45 49  0  0  1  0            999 V2000
    0.4115   26.2924   10.9979 C   0  0  0  0  0  0
   -0.4073   25.7350   11.9787 C   0  0  0  0  0  0
   -1.0300   26.5318   12.9577 C   0  0  0  0  0  0
   -0.7767   27.9136   12.9220 C   0  0  0  0  0  0
    0.0574   28.4747   11.9618 C   0  0  0  0  0  0
    0.6261   27.6714   10.9754 C   0  0  0  0  0  0
    1.3395   28.2646    9.9127 N   0  0  0  0  0  0
    1.0417   29.3862    9.1576 C   0  0  0  0  0  0
    2.1175   29.5902    8.2729 C   0  0  0  0  0  0
    2.0579   30.6696    7.3729 C   0  0  0  0  0  0
    0.9939   31.5797    7.3801 C   0  0  0  0  0  0
   -0.0549   31.3554    8.2775 C   0  0  0  0  0  0
   -0.0793   30.2518    9.1420 C   0  0  0  0  0  0
   -1.3324   30.3197    9.8240 C   0  0  0  0  0  0
   -1.9771   31.4050    9.4808 N   0  0  0  0  0  0
   -1.2127   32.0485    8.5763 N   0  0  0  0  0  0
    3.0534   28.5359    8.5760 C   0  0  0  0  0  0
    2.5583   27.7980    9.5548 N   0  0  0  0  0  0
    4.3435   28.2501    7.9881 C   0  0  0  0  0  0
    5.2293   27.6406    8.5753 O   0  0  0  0  0  0
    4.5052   28.6519    6.7291 N   0  0  0  0  0  0
   -1.9581   25.9937   13.8649 N   0  0  0  0  0  0
   -2.1466   24.5361   14.0197 C   0  0  0  0  0  0
   -3.4506   24.1409   14.7490 C   0  0  0  0  0  0
   -3.5420   24.7891   16.0073 O   0  0  0  0  0  0
   -3.5228   26.1993   15.8571 C   0  0  0  0  0  0
   -2.2195   26.6519   15.1627 C   0  0  0  0  0  0
   -1.5250   32.9208    8.1766 H   0  0  0  0  0  0
    0.8454   25.6562   10.2391 H   0  0  0  0  0  0
   -0.5611   24.6692   11.9379 H   0  0  0  0  0  0
   -1.2445   28.5976   13.6102 H   0  0  0  0  0  0
    0.2262   29.5424   11.9681 H   0  0  0  0  0  0
    2.8579   30.8360    6.6749 H   0  0  0  0  0  0
    0.9952   32.4334    6.7196 H   0  0  0  0  0  0
   -1.7616   29.6399   10.5441 H   0  0  0  0  0  0
    3.8210   29.2394    6.2805 H   0  0  0  0  0  0
    5.3794   28.4516    6.2649 H   0  0  0  0  0  0
   -2.2104   24.0744   13.0355 H   0  0  0  0  0  0
   -1.2773   24.1032   14.5164 H   0  0  0  0  0  0
   -3.4699   23.0630   14.9119 H   0  0  0  0  0  0
   -4.3235   24.3745   14.1362 H   0  0  0  0  0  0
   -3.5943   26.6564   16.8447 H   0  0  0  0  0  0
   -4.3966   26.5403   15.2978 H   0  0  0  0  0  0
   -1.3497   26.5198   15.8019 H   0  0  0  0  0  0
   -2.3417   27.7230   15.0373 H   0  0  0  0  0  0
  1  6  1  0  0  0
  1  2  2  0  0  0
  1 29  1  0  0  0
  2  3  1  0  0  0
  2 30  1  0  0  0
  3  4  2  0  0  0
  3 22  1  0  0  0
  4  5  1  0  0  0
  4 31  1  0  0  0
  5  6  2  0  0  0
  5 32  1  0  0  0
  6  7  1  0  0  0
  7 18  1  0  0  0
  7  8  1  0  0  0
  8 13  2  0  0  0
  8  9  1  0  0  0
  9 10  2  0  0  0
  9 17  1  0  0  0
 10 11  1  0  0  0
 10 33  1  0  0  0
 11 12  2  0  0  0
 11 34  1  0  0  0
 12 16  1  0  0  0
 12 13  1  0  0  0
 13 14  1  0  0  0
 14 15  2  0  0  0
 14 35  1  0  0  0
 15 16  1  0  0  0
 16 28  1  0  0  0
 17 18  2  0  0  0
 17 19  1  0  0  0
 19 20  2  0  0  0
 19 21  1  0  0  0
 21 36  1  0  0  0
 21 37  1  0  0  0
 22 27  1  0  0  0
 22 23  1  0  0  0
 23 24  1  0  0  0
 23 38  1  0  0  0
 23 39  1  0  0  0
 24 25  1  0  0  0
 24 40  1  0  0  0
 24 41  1  0  0  0
 25 26  1  0  0  0
 26 27  1  0  0  0
 26 42  1  0  0  0
 26 43  1  0  0  0
 27 44  1  0  0  0
 27 45  1  0  0  0
M  END
> <s_m_entry_id>
35007

> <s_m_entry_name>
ligand_docking-pose.504

> <s_m_Source_Path>
/home/csk/Desktop/cluster/DUD-E-result/cdk2

> <s_m_Source_File>
ligand_docking-pose.sdf

> <i_m_Source_File_Index>
504

> <i_lp_mmshare_version>
53161

> <r_lp_tautomer_probability>
1

> <s_lp_Force_Field>
OPLS_2005

> <r_lp_Energy>
73.112117

> <b_lp_Chiralities_Consistent>
1

> <s_lp_Variant>
301238-1

> <s_i_glide_gridfile>
glide-grid_1h00

> <i_i_glide_lignum>
394

> <i_i_glide_rotatable_bonds>
3

> <r_i_docking_score>
-6.84103045000791

> <r_i_glide_ligand_efficiency>
-0.253371498148441

> <r_i_glide_ligand_efficiency_sa>
-0.760114493610252

> <r_i_glide_ligand_efficiency_ln>
-1.59247910556039

> <r_i_glide_gscore>
-6.84103045000791

> <r_i_glide_lipo>
-2.68896855014247

> <r_i_glide_hbond>
-0.137361848209656

> <r_i_glide_metal>
0

> <r_i_glide_rewards>
-1.64481179366702

> <r_i_glide_evdw>
-41.963996887207

> <r_i_glide_ecoul>
-3.54851603507996

> <r_i_glide_erotb>
0.292429822036168

> <r_i_glide_esite>
-0.0318408304025902

> <r_i_glide_emodel>
-62.7307769849481

> <r_i_glide_energy>
-45.512512922287

> <r_i_glide_einternal>
5.05226898193359

> <i_i_glide_confnum>
10

> <i_i_glide_posenum>
262

> <r_i_glide_eff_state_penalty>
0

> <i_f3d_flags>
0

> <s_user_duplicate_titles>
301238

> <s_m_subgroup_title>
dock_pv

> <s_m_subgroupid>
dock_pv1

> <b_m_subgroup_collapsed>
0

$$$$
248443
                    3D
 Schrodinger Suite 2021-1.
 37 40  0  0  1  0            999 V2000
   -2.8777   22.4820   15.4411 C   0  0  0  0  0  0
   -1.6151   22.9974   15.0335 O   0  0  0  0  0  0
   -1.5764   24.1693   14.3037 C   0  0  0  0  0  0
   -0.3750   24.4686   13.6671 C   0  0  0  0  0  0
   -0.2447   25.6212   12.8952 C   0  0  0  0  0  0
   -1.3250   26.4924   12.7416 C   0  0  0  0  0  0
   -2.5276   26.2017   13.3986 C   0  0  0  0  0  0
   -2.6549   25.0533   14.1743 C   0  0  0  0  0  0
   -1.2209   27.6963   11.8542 C   0  0  0  0  0  0
   -0.2682   28.1621   10.9397 C   0  0  0  0  0  0
   -0.8206   29.2996   10.3830 C   0  0  0  0  0  0
   -1.9829   29.6179   10.8875 N   0  0  0  0  0  0
   -2.2063   28.6521   11.7759 N   0  0  0  0  0  0
    0.0465   29.8619    9.3682 C   0  0  0  0  0  0
   -0.1274   30.9653    8.5429 C   0  0  0  0  0  0
    0.8585   31.2801    7.6217 C   0  0  0  0  0  0
    2.0107   30.5040    7.5397 C   0  0  0  0  0  0
    2.2357   29.4144    8.4054 C   0  0  0  0  0  0
    1.1997   29.0691    9.3238 C   0  0  0  0  0  0
    1.0371   27.9435   10.3276 C   0  0  0  0  0  0
    1.8204   27.0314   10.5759 O   0  0  0  0  0  0
    3.5412   28.6441    8.2662 C   0  0  0  0  0  0
    3.6576   27.4655    8.5764 O   0  0  0  0  0  0
    4.5977   29.2958    7.7798 N   0  0  0  0  0  0
   -3.0170   28.6813   12.3841 H   0  0  0  0  0  0
   -2.7343   21.5087   15.9108 H   0  0  0  0  0  0
   -3.3622   23.1301   16.1709 H   0  0  0  0  0  0
   -3.5446   22.3407   14.5894 H   0  0  0  0  0  0
    0.4579   23.7896   13.7637 H   0  0  0  0  0  0
    0.6999   25.8229   12.4151 H   0  0  0  0  0  0
   -3.3837   26.8531   13.3037 H   0  0  0  0  0  0
   -3.6005   24.8603   14.6549 H   0  0  0  0  0  0
   -1.0192   31.5707    8.6058 H   0  0  0  0  0  0
    0.7383   32.1365    6.9760 H   0  0  0  0  0  0
    2.7401   30.7803    6.7934 H   0  0  0  0  0  0
    4.5006   30.2030    7.3390 H   0  0  0  0  0  0
    5.4666   28.7927    7.6926 H   0  0  0  0  0  0
  1  2  1  0  0  0
  1 26  1  0  0  0
  1 27  1  0  0  0
  1 28  1  0  0  0
  2  3  1  0  0  0
  3  8  1  0  0  0
  3  4  2  0  0  0
  4  5  1  0  0  0
  4 29  1  0  0  0
  5  6  2  0  0  0
  5 30  1  0  0  0
  6  7  1  0  0  0
  6  9  1  0  0  0
  7  8  2  0  0  0
  7 31  1  0  0  0
  8 32  1  0  0  0
  9 13  1  0  0  0
  9 10  2  0  0  0
 10 20  1  0  0  0
 10 11  1  0  0  0
 11 12  2  0  0  0
 11 14  1  0  0  0
 12 13  1  0  0  0
 13 25  1  0  0  0
 14 19  2  0  0  0
 14 15  1  0  0  0
 15 16  2  0  0  0
 15 33  1  0  0  0
 16 17  1  0  0  0
 16 34  1  0  0  0
 17 18  2  0  0  0
 17 35  1  0  0  0
 18 19  1  0  0  0
 18 22  1  0  0  0
 19 20  1  0  0  0
 20 21  2  0  0  0
 22 23  2  0  0  0
 22 24  1  0  0  0
 24 36  1  0  0  0
 24 37  1  0  0  0
M  END
> <s_m_entry_id>
35009

> <s_m_entry_name>
ligand_docking-pose.506

> <s_m_Source_Path>
/home/csk/Desktop/cluster/DUD-E-result/cdk2

> <s_m_Source_File>
ligand_docking-pose.sdf

> <i_m_Source_File_Index>
506

> <i_lp_mmshare_version>
53161

> <r_lp_tautomer_probability>
1

> <s_lp_Force_Field>
OPLS_2005

> <r_lp_Energy>
53.945227

> <b_lp_Chiralities_Consistent>
1

> <s_lp_Variant>
248443-1

> <s_i_glide_gridfile>
glide-grid_1h00

> <i_i_glide_lignum>
1620

> <i_i_glide_rotatable_bonds>
3

> <r_i_docking_score>
-6.83412976768003

> <r_i_glide_ligand_efficiency>
-0.284755406986668

> <r_i_glide_ligand_efficiency_sa>
-0.821376725868339

> <r_i_glide_ligand_efficiency_ln>
-1.63572085118656

> <r_i_glide_gscore>
-6.83412976768003

> <r_i_glide_lipo>
-1.98627184166324

> <r_i_glide_hbond>
-0.425057621356676

> <r_i_glide_metal>
0

> <r_i_glide_rewards>
-2.19676534987243

> <r_i_glide_evdw>
-34.8712043762207

> <r_i_glide_ecoul>
-4.05539131164551

> <r_i_glide_erotb>
0.182982043715565

> <r_i_glide_esite>
-0.0571480829453839

> <r_i_glide_emodel>
-57.8393232830131

> <r_i_glide_energy>
-38.9265956878662

> <r_i_glide_einternal>
1.61060881614685

> <i_i_glide_confnum>
2

> <i_i_glide_posenum>
353

> <r_i_glide_eff_state_penalty>
0

> <i_f3d_flags>
0

> <s_user_duplicate_titles>
248443

> <s_m_subgroup_title>
dock_pv

> <s_m_subgroupid>
dock_pv1

> <b_m_subgroup_collapsed>
0

$$$$
316291
                    3D
 Schrodinger Suite 2021-1.
 36 38  0  0  1  0            999 V2000
    4.2461   28.3229    6.7543 C   0  0  0  0  0  0
    4.1761   28.8902    8.1780 C   0  0  0  0  0  0
    2.7973   28.7659    8.8013 C   0  0  0  0  0  0
    1.6288   29.5658    8.5763 C   0  0  0  0  0  0
    0.6651   29.0398    9.4691 C   0  0  0  0  0  0
   -0.5917   29.4873    9.6068 N   0  0  0  0  0  0
   -0.8533   30.5870    8.8643 C   0  0  0  0  0  0
   -0.0239   31.1839    7.9786 N   0  0  0  0  0  0
    1.2062   30.6524    7.7788 C   0  0  0  0  0  0
    2.0583   31.1454    6.8356 O   0  0  0  0  0  0
   -2.2324   31.2084    9.0400 C   0  0  0  0  0  0
   -2.3575   32.0426   10.3259 C   0  0  0  0  0  0
    1.2708   27.9869   10.1368 N   0  0  0  0  0  0
    2.5524   27.8523    9.7186 N   0  0  0  0  0  0
    0.7285   27.1641   11.1615 C   0  0  0  0  0  0
    0.0571   27.7466   12.2595 C   0  0  0  0  0  0
   -0.5991   26.9372   13.1879 C   0  0  0  0  0  0
   -0.5485   25.5537   13.0815 C   0  0  0  0  0  0
    0.1462   24.9671   12.0278 C   0  0  0  0  0  0
    0.7764   25.7563   11.0654 C   0  0  0  0  0  0
    1.5740   24.9267    9.7756 Cl  0  0  0  0  0  0
   -1.3307   24.5667   14.2638 Cl  0  0  0  0  0  0
    0.0559   29.4511   12.5766 Cl  0  0  0  0  0  0
    5.2353   28.4813    6.3189 H   0  0  0  0  0  0
    4.0581   27.2491    6.7491 H   0  0  0  0  0  0
    3.5181   28.7925    6.0941 H   0  0  0  0  0  0
    4.4909   29.9344    8.1749 H   0  0  0  0  0  0
    4.9220   28.3827    8.7926 H   0  0  0  0  0  0
    2.9280   30.7348    6.8377 H   0  0  0  0  0  0
   -2.4696   31.8326    8.1769 H   0  0  0  0  0  0
   -2.9785   30.4099    9.0451 H   0  0  0  0  0  0
   -3.3448   32.4989   10.4016 H   0  0  0  0  0  0
   -2.2231   31.4241   11.2150 H   0  0  0  0  0  0
   -1.6192   32.8456   10.3543 H   0  0  0  0  0  0
   -1.1405   27.3918   14.0057 H   0  0  0  0  0  0
    0.1836   23.8923   11.9495 H   0  0  0  0  0  0
  1  2  1  0  0  0
  1 24  1  0  0  0
  1 25  1  0  0  0
  1 26  1  0  0  0
  2  3  1  0  0  0
  2 27  1  0  0  0
  2 28  1  0  0  0
  3 14  2  0  0  0
  3  4  1  0  0  0
  4  9  2  0  0  0
  4  5  1  0  0  0
  5  6  2  0  0  0
  5 13  1  0  0  0
  6  7  1  0  0  0
  7  8  2  0  0  0
  7 11  1  0  0  0
  8  9  1  0  0  0
  9 10  1  0  0  0
 10 29  1  0  0  0
 11 12  1  0  0  0
 11 30  1  0  0  0
 11 31  1  0  0  0
 12 32  1  0  0  0
 12 33  1  0  0  0
 12 34  1  0  0  0
 13 14  1  0  0  0
 13 15  1  0  0  0
 15 20  1  0  0  0
 15 16  2  0  0  0
 16 17  1  0  0  0
 16 23  1  0  0  0
 17 18  2  0  0  0
 17 35  1  0  0  0
 18 19  1  0  0  0
 18 22  1  0  0  0
 19 20  2  0  0  0
 19 36  1  0  0  0
 20 21  1  0  0  0
M  END
> <s_m_entry_id>
35011

> <s_m_entry_name>
ligand_docking-pose.508

> <s_m_Source_Path>
/home/csk/Desktop/cluster/DUD-E-result/cdk2

> <s_m_Source_File>
ligand_docking-pose.sdf

> <i_m_Source_File_Index>
508

> <i_lp_mmshare_version>
53161

> <r_lp_tautomer_probability>
1

> <s_lp_Force_Field>
OPLS_2005

> <r_lp_Energy>
-2.798473

> <b_lp_Chiralities_Consistent>
1

> <s_lp_Variant>
316291-1

> <s_i_glide_gridfile>
glide-grid_1h00

> <i_i_glide_lignum>
963

> <i_i_glide_rotatable_bonds>
4

> <r_i_docking_score>
-6.82929792981007

> <r_i_glide_ligand_efficiency>
-0.296925996948264

> <r_i_glide_ligand_efficiency_sa>
-0.844418037298119

> <r_i_glide_ligand_efficiency_ln>
-1.65138616407802

> <r_i_glide_gscore>
-6.82929792981007

> <r_i_glide_lipo>
-2.5682994808815

> <r_i_glide_hbond>
-0.14491333111841

> <r_i_glide_metal>
0

> <r_i_glide_rewards>
-1.87440679598816

> <r_i_glide_evdw>
-38.3199920654297

> <r_i_glide_ecoul>
-3.10299634933472

> <r_i_glide_erotb>
0.139770733849684

> <r_i_glide_esite>
0

> <r_i_glide_emodel>
-57.0233984964837

> <r_i_glide_energy>
-41.4229884147644

> <r_i_glide_einternal>
2.45181775093079

> <i_i_glide_confnum>
2

> <i_i_glide_posenum>
232

> <r_i_glide_eff_state_penalty>
0

> <i_f3d_flags>
0

> <s_user_duplicate_titles>
316291

> <s_m_subgroup_title>
dock_pv

> <s_m_subgroupid>
dock_pv1

> <b_m_subgroup_collapsed>
0

$$$$
248756
                    3D
 Schrodinger Suite 2021-1.
 57 61  0  0  1  0            999 V2000
    7.4306   25.6358    4.6225 C   0  0  0  0  0  0
    6.9464   25.6279    6.0042 N   0  0  0  0  0  0
    7.8104   24.9853    6.9918 C   0  0  0  0  0  0
    5.9656   26.5727    6.4183 C   0  0  0  0  0  0
    5.6650   26.7702    7.7760 C   0  0  0  0  0  0
    4.7051   27.6954    8.1761 C   0  0  0  0  0  0
    4.0115   28.4419    7.2270 C   0  0  0  0  0  0
    4.2982   28.2599    5.8733 C   0  0  0  0  0  0
    5.2577   27.3353    5.4759 C   0  0  0  0  0  0
    2.8797   29.3237    7.6348 C   0  0  0  0  0  0
    1.9329   29.2053    8.6378 C   0  0  0  0  0  0
    0.9920   30.1989    8.3972 C   0  0  0  0  0  0
    1.3125   30.9646    7.3789 N   0  0  0  0  0  0
    2.4580   30.4279    6.9416 N   0  0  0  0  0  0
   -0.1119   30.0870    9.3526 C   0  0  0  0  0  0
   -1.2966   30.7985    9.5318 C   0  0  0  0  0  0
   -2.1737   30.4127   10.5447 C   0  0  0  0  0  0
   -1.8679   29.3282   11.3712 C   0  0  0  0  0  0
   -0.6744   28.6132   11.1961 C   0  0  0  0  0  0
    0.2094   29.0078   10.1804 C   0  0  0  0  0  0
    1.5155   28.4106    9.7759 C   0  0  0  0  0  0
    2.0897   27.4512   10.2855 O   0  0  0  0  0  0
   -0.3396   27.5284   12.0212 N   0  0  0  0  0  0
   -1.1610   26.5467   12.4469 C   0  0  0  0  0  0
   -2.3631   26.4800   12.1848 O   0  0  0  0  0  0
   -0.4992   25.4354   13.2835 C   0  0  0  0  0  0
   -0.0336   24.3144   12.4375 N   0  0  0  0  0  0
    0.2249   23.1278   13.2710 C   0  0  0  0  0  0
    0.9204   21.9821   12.5009 C   0  0  0  0  0  0
    2.1005   22.4631   11.8633 O   0  0  0  0  0  0
    1.7985   23.4731   10.9070 C   0  0  0  0  0  0
    1.1261   24.6773   11.5961 C   0  0  0  0  0  0
    2.9868   30.8307    6.1758 H   0  0  0  0  0  0
    6.6145   25.4979    3.9130 H   0  0  0  0  0  0
    7.9033   26.5932    4.3981 H   0  0  0  0  0  0
    8.1649   24.8520    4.4367 H   0  0  0  0  0  0
    7.2150   24.5165    7.7752 H   0  0  0  0  0  0
    8.4394   24.2132    6.5472 H   0  0  0  0  0  0
    8.4622   25.7250    7.4610 H   0  0  0  0  0  0
    6.1648   26.2148    8.5542 H   0  0  0  0  0  0
    4.4885   27.8038    9.2292 H   0  0  0  0  0  0
    3.7607   28.8127    5.1192 H   0  0  0  0  0  0
    5.4352   27.2292    4.4178 H   0  0  0  0  0  0
   -1.5444   31.6336    8.8941 H   0  0  0  0  0  0
   -3.0954   30.9552   10.6986 H   0  0  0  0  0  0
   -2.5606   29.0538   12.1555 H   0  0  0  0  0  0
    0.6536   27.3685   12.1245 H   0  0  0  0  0  0
   -1.2456   25.0981   14.0043 H   0  0  0  0  0  0
    0.3235   25.8539   13.8676 H   0  0  0  0  0  0
   -0.7104   22.7835   13.7147 H   0  0  0  0  0  0
    0.8576   23.4088   14.1118 H   0  0  0  0  0  0
    1.1968   21.1867   13.1934 H   0  0  0  0  0  0
    0.2405   21.5349   11.7713 H   0  0  0  0  0  0
    2.7219   23.7990   10.4259 H   0  0  0  0  0  0
    1.1709   23.0709   10.1121 H   0  0  0  0  0  0
    1.8805   25.1779   12.2056 H   0  0  0  0  0  0
    0.8165   25.4003   10.8439 H   0  0  0  0  0  0
  1  2  1  0  0  0
  1 34  1  0  0  0
  1 35  1  0  0  0
  1 36  1  0  0  0
  2  3  1  0  0  0
  2  4  1  0  0  0
  3 37  1  0  0  0
  3 38  1  0  0  0
  3 39  1  0  0  0
  4  9  1  0  0  0
  4  5  2  0  0  0
  5  6  1  0  0  0
  5 40  1  0  0  0
  6  7  2  0  0  0
  6 41  1  0  0  0
  7  8  1  0  0  0
  7 10  1  0  0  0
  8  9  2  0  0  0
  8 42  1  0  0  0
  9 43  1  0  0  0
 10 14  1  0  0  0
 10 11  2  0  0  0
 11 21  1  0  0  0
 11 12  1  0  0  0
 12 13  2  0  0  0
 12 15  1  0  0  0
 13 14  1  0  0  0
 14 33  1  0  0  0
 15 20  2  0  0  0
 15 16  1  0  0  0
 16 17  2  0  0  0
 16 44  1  0  0  0
 17 18  1  0  0  0
 17 45  1  0  0  0
 18 19  2  0  0  0
 18 46  1  0  0  0
 19 20  1  0  0  0
 19 23  1  0  0  0
 20 21  1  0  0  0
 21 22  2  0  0  0
 23 24  1  0  0  0
 23 47  1  0  0  0
 24 25  2  0  0  0
 24 26  1  0  0  0
 26 27  1  0  0  0
 26 48  1  0  0  0
 26 49  1  0  0  0
 27 32  1  0  0  0
 27 28  1  0  0  0
 28 29  1  0  0  0
 28 50  1  0  0  0
 28 51  1  0  0  0
 29 30  1  0  0  0
 29 52  1  0  0  0
 29 53  1  0  0  0
 30 31  1  0  0  0
 31 32  1  0  0  0
 31 54  1  0  0  0
 31 55  1  0  0  0
 32 56  1  0  0  0
 32 57  1  0  0  0
M  END
> <s_m_entry_id>
35012

> <s_m_entry_name>
ligand_docking-pose.509

> <s_m_Source_Path>
/home/csk/Desktop/cluster/DUD-E-result/cdk2

> <s_m_Source_File>
ligand_docking-pose.sdf

> <i_m_Source_File_Index>
509

> <i_lp_mmshare_version>
53161

> <r_lp_tautomer_probability>
1

> <s_lp_Force_Field>
OPLS_2005

> <r_lp_Energy>
75.086228

> <b_lp_Chiralities_Consistent>
1

> <s_lp_Variant>
248756-1

> <s_i_glide_gridfile>
glide-grid_1h00

> <i_i_glide_lignum>
1518

> <i_i_glide_rotatable_bonds>
6

> <r_i_docking_score>
-6.82867474001424

> <r_i_glide_ligand_efficiency>
-0.213396085625445

> <r_i_glide_ligand_efficiency_sa>
-0.677490340832787

> <r_i_glide_ligand_efficiency_ln>
-1.52912641693234

> <r_i_glide_gscore>
-6.82867474001424

> <r_i_glide_lipo>
-2.72024810540338

> <r_i_glide_hbond>
-0.255204639018488

> <r_i_glide_metal>
0

> <r_i_glide_rewards>
-1.29294465923839

> <r_i_glide_evdw>
-44.0055961608887

> <r_i_glide_ecoul>
-5.18809843063354

> <r_i_glide_erotb>
0.42733229355151

> <r_i_glide_esite>
-0.00911505726601524

> <r_i_glide_emodel>
-64.7729971357011

> <r_i_glide_energy>
-49.1936945915222

> <r_i_glide_einternal>
7.65295743942261

> <i_i_glide_confnum>
1

> <i_i_glide_posenum>
107

> <r_i_glide_eff_state_penalty>
0

> <i_f3d_flags>
0

> <s_user_duplicate_titles>
248756

> <s_m_subgroup_title>
dock_pv

> <s_m_subgroupid>
dock_pv1

> <b_m_subgroup_collapsed>
0

$$$$
311452
                    3D
 Schrodinger Suite 2021-1.
 39 42  0  0  1  0            999 V2000
    4.4583   23.3545    6.8349 C   0  0  0  0  0  0
    4.3252   23.0286    5.4868 C   0  0  0  0  0  0
    4.3664   24.0004    4.4866 C   0  0  0  0  0  0
    4.5580   25.3238    4.8962 C   0  0  0  0  0  0
    4.6981   25.6895    6.2710 C   0  0  0  0  0  0
    4.6402   24.6766    7.2426 C   0  0  0  0  0  0
    4.8791   27.1177    6.3287 C   0  0  0  0  0  0
    4.8548   27.5468    5.0122 C   0  0  0  0  0  0
    4.6535   26.4852    4.1660 N   0  0  0  0  0  0
    5.0614   27.9614    7.5794 C   0  0  0  0  0  0
    3.7147   28.3793    8.1780 C   0  0  0  0  0  0
    3.2242   27.7124    9.0876 O   0  0  0  0  0  0
    3.1606   29.4790    7.6306 N   0  0  0  0  0  0
    1.9402   30.0815    7.9232 C   0  0  0  0  0  0
    1.6309   31.2160    7.3683 N   0  0  0  0  0  0
    0.4585   31.6560    7.7757 C   0  0  0  0  0  0
   -0.2852   30.8588    8.6371 C   0  0  0  0  0  0
    0.7030   29.4544    8.9901 S   0  0  0  0  0  0
   -1.6623   31.1056    9.2131 C   0  0  0  0  0  0
   -1.8745   30.8707   10.7152 C   0  0  0  0  0  0
   -2.8110   32.0886   10.6919 C   0  0  0  0  0  0
   -2.0316   32.5740    9.4687 C   0  0  0  0  0  0
    4.6102   26.5751    3.1614 H   0  0  0  0  0  0
    4.4047   22.5709    7.5757 H   0  0  0  0  0  0
    4.1739   21.9943    5.2083 H   0  0  0  0  0  0
    4.2554   23.7373    3.4423 H   0  0  0  0  0  0
    4.7312   24.9240    8.2912 H   0  0  0  0  0  0
    4.9712   28.5429    4.6062 H   0  0  0  0  0  0
    5.6388   27.4327    8.3404 H   0  0  0  0  0  0
    5.6389   28.8608    7.3610 H   0  0  0  0  0  0
    3.7212   29.9696    6.9454 H   0  0  0  0  0  0
    0.1153   32.6041    7.3849 H   0  0  0  0  0  0
   -2.4107   30.5932    8.6046 H   0  0  0  0  0  0
   -2.3447   29.9283   10.9991 H   0  0  0  0  0  0
   -0.9845   31.0485   11.3203 H   0  0  0  0  0  0
   -3.8533   31.8385   10.4834 H   0  0  0  0  0  0
   -2.7672   32.7353   11.5674 H   0  0  0  0  0  0
   -1.1891   33.2111    9.7445 H   0  0  0  0  0  0
   -2.6202   33.0508    8.6916 H   0  0  0  0  0  0
  1  6  1  0  0  0
  1  2  2  0  0  0
  1 24  1  0  0  0
  2  3  1  0  0  0
  2 25  1  0  0  0
  3  4  2  0  0  0
  3 26  1  0  0  0
  4  9  1  0  0  0
  4  5  1  0  0  0
  5  6  2  0  0  0
  5  7  1  0  0  0
  6 27  1  0  0  0
  7  8  2  0  0  0
  7 10  1  0  0  0
  8  9  1  0  0  0
  8 28  1  0  0  0
  9 23  1  0  0  0
 10 11  1  0  0  0
 10 29  1  0  0  0
 10 30  1  0  0  0
 11 12  2  0  0  0
 11 13  1  0  0  0
 13 14  1  0  0  0
 13 31  1  0  0  0
 14 18  1  0  0  0
 14 15  2  0  0  0
 15 16  1  0  0  0
 16 17  2  0  0  0
 16 32  1  0  0  0
 17 18  1  0  0  0
 17 19  1  0  0  0
 19 22  1  0  0  0
 19 20  1  0  0  0
 19 33  1  0  0  0
 20 21  1  0  0  0
 20 34  1  0  0  0
 20 35  1  0  0  0
 21 22  1  0  0  0
 21 36  1  0  0  0
 21 37  1  0  0  0
 22 38  1  0  0  0
 22 39  1  0  0  0
M  END
> <s_m_entry_id>
35014

> <s_m_entry_name>
ligand_docking-pose.511

> <s_m_Source_Path>
/home/csk/Desktop/cluster/DUD-E-result/cdk2

> <s_m_Source_File>
ligand_docking-pose.sdf

> <i_m_Source_File_Index>
511

> <i_lp_mmshare_version>
53161

> <r_lp_tautomer_probability>
0.999000488399163

> <s_lp_Force_Field>
OPLS_2005

> <r_lp_Energy>
11.599657

> <b_lp_Chiralities_Consistent>
1

> <s_lp_Variant>
311452-1

> <s_i_glide_gridfile>
glide-grid_1h00

> <i_i_glide_lignum>
125

> <i_i_glide_rotatable_bonds>
5

> <r_i_docking_score>
-6.82427174842164

> <r_i_glide_ligand_efficiency>
-0.310194170382802

> <r_i_glide_ligand_efficiency_sa>
-0.869176264657076

> <r_i_glide_ligand_efficiency_ln>
-1.66810093667438

> <r_i_glide_gscore>
-6.82427174842164

> <r_i_glide_lipo>
-2.44426527064894

> <r_i_glide_hbond>
-0.31213356289857

> <r_i_glide_metal>
0

> <r_i_glide_rewards>
-2.69191168456517

> <r_i_glide_evdw>
-35.3377494812012

> <r_i_glide_ecoul>
-2.49354219436646

> <r_i_glide_erotb>
0.764957572906062

> <r_i_glide_esite>
0

> <r_i_glide_emodel>
-53.7499989809089

> <r_i_glide_energy>
-37.8312916755676

> <r_i_glide_einternal>
1.79435074329376

> <i_i_glide_confnum>
2

> <i_i_glide_posenum>
6

> <r_i_glide_eff_state_penalty>
0

> <i_f3d_flags>
0

> <s_user_duplicate_titles>
311452

> <s_m_subgroup_title>
dock_pv

> <s_m_subgroupid>
dock_pv1

> <b_m_subgroup_collapsed>
0

$$$$
320877
                    3D
 Schrodinger Suite 2021-1.
 44 47  0  0  1  0            999 V2000
   -1.1912   27.2239   13.6360 C   0  0  0  0  0  0
   -1.5838   26.8704   12.1814 C   0  0  1  0  0  0
   -1.0501   27.9399   11.2101 C   0  0  0  0  0  0
    0.2523   27.8720   10.7052 C   0  0  0  0  0  0
    0.6970   28.8067    9.7798 C   0  0  0  0  0  0
   -0.1380   29.8524    9.3565 C   0  0  0  0  0  0
   -1.4206   29.9566    9.9213 C   0  0  0  0  0  0
   -1.8660   29.0155   10.8463 C   0  0  0  0  0  0
    0.3422   30.7809    8.3890 N   0  0  0  0  0  0
    1.3474   30.5336    7.5176 C   0  0  0  0  0  0
    1.6581   31.6535    6.8924 C   0  0  0  0  0  0
    0.8580   32.6071    7.3760 N   0  0  0  0  0  0
   -0.0297   32.0881    8.2392 C   0  0  0  0  0  0
   -0.9390   32.7079    8.7902 O   0  0  0  0  0  0
   -1.2455   25.4169   11.7404 C   0  0  0  0  0  0
   -1.1422   25.1597   10.5372 O   0  0  0  0  0  0
   -1.1337   24.4730   12.7030 N   0  0  0  0  0  0
   -0.8231   23.1456   12.4644 C   0  0  0  0  0  0
    0.0617   22.6168   11.5080 C   0  0  0  0  0  0
   -0.0142   21.2395   11.6170 C   0  0  0  0  0  0
   -0.8873   21.0521   12.6577 N   0  0  0  0  0  0
   -1.3506   22.1883   13.1972 N   0  0  0  0  0  0
    0.6236   20.0898   10.8681 C   0  0  0  0  0  0
    1.2443   20.3132    9.5087 C   0  0  0  0  0  0
    2.1231   20.0240   10.7105 C   0  0  0  0  0  0
   -1.1897   20.1329   12.9761 H   0  0  0  0  0  0
   -0.1087   27.2050   13.7760 H   0  0  0  0  0  0
   -1.5416   28.2268   13.8882 H   0  0  0  0  0  0
   -1.6420   26.5495   14.3639 H   0  0  0  0  0  0
   -2.6742   26.9084   12.1285 H   0  0  0  0  0  0
    0.9190   27.0778   11.0110 H   0  0  0  0  0  0
    1.7092   28.7083    9.4181 H   0  0  0  0  0  0
   -2.0981   30.7497    9.6423 H   0  0  0  0  0  0
   -2.8595   29.1131   11.2621 H   0  0  0  0  0  0
    1.7644   29.5423    7.4198 H   0  0  0  0  0  0
    2.3965   31.8525    6.1298 H   0  0  0  0  0  0
    0.8584   33.5806    7.0938 H   0  0  0  0  0  0
   -1.4370   24.7098   13.6336 H   0  0  0  0  0  0
    0.6508   23.1766   10.7946 H   0  0  0  0  0  0
    0.1128   19.1342   11.0147 H   0  0  0  0  0  0
    1.2556   21.3167    9.0783 H   0  0  0  0  0  0
    1.1108   19.5417    8.7491 H   0  0  0  0  0  0
    2.6046   19.0480   10.7975 H   0  0  0  0  0  0
    2.7254   20.8261   11.1382 H   0  0  0  0  0  0
  1  2  1  0  0  0
  1 27  1  0  0  0
  1 28  1  0  0  0
  1 29  1  0  0  0
  2  3  1  0  0  0
  2 15  1  0  0  0
  2 30  1  0  0  0
  3  8  1  0  0  0
  3  4  2  0  0  0
  4  5  1  0  0  0
  4 31  1  0  0  0
  5  6  2  0  0  0
  5 32  1  0  0  0
  6  7  1  0  0  0
  6  9  1  0  0  0
  7  8  2  0  0  0
  7 33  1  0  0  0
  8 34  1  0  0  0
  9 13  1  0  0  0
  9 10  1  0  0  0
 10 35  1  0  0  0
 10 11  2  0  0  0
 11 36  1  0  0  0
 11 12  1  0  0  0
 12 37  1  0  0  0
 12 13  1  0  0  0
 13 14  2  0  0  0
 15 16  2  0  0  0
 15 17  1  0  0  0
 17 18  1  0  0  0
 17 38  1  0  0  0
 18 22  2  0  0  0
 18 19  1  0  0  0
 19 20  2  0  0  0
 19 39  1  0  0  0
 20 21  1  0  0  0
 20 23  1  0  0  0
 21 26  1  0  0  0
 21 22  1  0  0  0
 23 25  1  0  0  0
 23 24  1  0  0  0
 23 40  1  0  0  0
 24 25  1  0  0  0
 24 41  1  0  0  0
 24 42  1  0  0  0
 25 43  1  0  0  0
 25 44  1  0  0  0
M  END
> <s_m_entry_id>
35015

> <s_m_entry_name>
ligand_docking-pose.512

> <s_m_Source_Path>
/home/csk/Desktop/cluster/DUD-E-result/cdk2

> <s_m_Source_File>
ligand_docking-pose.sdf

> <i_m_Source_File_Index>
512

> <i_lp_mmshare_version>
53161

> <r_lp_tautomer_probability>
0.499999999992507

> <s_lp_Force_Field>
OPLS_2005

> <r_lp_Energy>
62.585432

> <b_lp_Chiralities_Consistent>
1

> <s_lp_Variant>
320877-2

> <s_i_glide_gridfile>
glide-grid_1h00

> <i_i_glide_lignum>
1028

> <i_i_glide_rotatable_bonds>
6

> <r_i_docking_score>
-6.82143907038079

> <r_i_glide_ligand_efficiency>
-0.272857562815231

> <r_i_glide_ligand_efficiency_sa>
-0.797840352821218

> <r_i_glide_ligand_efficiency_ln>
-1.61688548171334

> <r_i_glide_gscore>
-6.82143907038079

> <r_i_glide_lipo>
-1.73872601485479

> <r_i_glide_hbond>
-0.456

> <r_i_glide_metal>
0

> <r_i_glide_rewards>
-2.78799948590251

> <r_i_glide_evdw>
-36.3636474609375

> <r_i_glide_ecoul>
-6.11157512664795

> <r_i_glide_erotb>
0.996205072420587

> <r_i_glide_esite>
-0.1

> <r_i_glide_emodel>
-56.7198653610013

> <r_i_glide_energy>
-42.4752225875854

> <r_i_glide_einternal>
5.92919635772705

> <i_i_glide_confnum>
39

> <i_i_glide_posenum>
368

> <r_i_glide_eff_state_penalty>
0

> <i_f3d_flags>
0

> <s_user_duplicate_titles>
320877

> <s_m_subgroup_title>
dock_pv

> <s_m_subgroupid>
dock_pv1

> <b_m_subgroup_collapsed>
0

$$$$
211080
                    3D
 Schrodinger Suite 2021-1.
 46 48  0  0  1  0            999 V2000
   -1.0495   25.4562   10.5105 C   0  0  0  0  0  0
   -0.8074   26.1046   11.8907 C   0  0  0  0  0  0
   -1.8956   25.6280   12.8745 C   0  0  0  0  0  0
    0.5771   25.6685   12.4099 C   0  0  0  0  0  0
   -0.8710   27.6251   11.7774 C   0  0  0  0  0  0
   -0.0647   28.7006   12.1293 C   0  0  0  0  0  0
   -0.6183   29.8494   11.7950 N   0  0  0  0  0  0
   -1.7297   29.4932   11.1872 C   0  0  0  0  0  0
   -1.9546   28.1595   11.1746 O   0  0  0  0  0  0
   -2.7124   30.3515   10.4126 C   0  0  0  0  0  0
   -2.1688   32.0551   10.0433 S   0  0  0  0  0  0
   -0.8276   31.7995    8.9167 C   0  0  0  0  0  0
   -0.1704   32.7817    8.1771 C   0  0  0  0  0  0
    0.8588   32.4029    7.4444 N   0  0  0  0  0  0
    1.1039   31.1277    7.5859 C   0  0  0  0  0  0
   -0.0515   30.2725    8.5670 S   0  0  0  0  0  0
    2.1932   30.5363    6.9762 N   0  0  0  0  0  0
    2.8582   29.4488    7.4086 C   0  0  0  0  0  0
    2.6404   28.8613    8.4701 O   0  0  0  0  0  0
    3.7606   29.0507    6.4890 N   0  0  0  0  0  0
    4.5432   27.8826    6.5101 C   0  0  0  0  0  0
    5.2449   27.4561    7.6510 C   0  0  0  0  0  0
    5.9893   26.2765    7.6181 C   0  0  0  0  0  0
    6.0731   25.5347    6.4413 C   0  0  0  0  0  0
    5.4203   25.9777    5.2919 C   0  0  0  0  0  0
    4.6653   27.1508    5.3196 C   0  0  0  0  0  0
    4.0583   27.5671    4.1827 F   0  0  0  0  0  0
    5.2460   28.1938    8.7815 F   0  0  0  0  0  0
   -0.9959   24.3702   10.5683 H   0  0  0  0  0  0
   -0.3089   25.7876    9.7812 H   0  0  0  0  0  0
   -2.0297   25.7132   10.1074 H   0  0  0  0  0  0
   -1.7609   26.0699   13.8624 H   0  0  0  0  0  0
   -2.8916   25.9119   12.5351 H   0  0  0  0  0  0
   -1.8884   24.5432   12.9910 H   0  0  0  0  0  0
    0.7909   26.1235   13.3742 H   0  0  0  0  0  0
    0.6471   24.5884   12.5319 H   0  0  0  0  0  0
    1.3752   25.9768   11.7342 H   0  0  0  0  0  0
    0.9075   28.6513   12.5939 H   0  0  0  0  0  0
   -2.9737   29.8715    9.4692 H   0  0  0  0  0  0
   -3.6456   30.4168   10.9715 H   0  0  0  0  0  0
   -0.4349   33.8311    8.1760 H   0  0  0  0  0  0
    2.5640   30.9986    6.1595 H   0  0  0  0  0  0
    3.8225   29.5947    5.6404 H   0  0  0  0  0  0
    6.5101   25.9540    8.5087 H   0  0  0  0  0  0
    6.6574   24.6257    6.4156 H   0  0  0  0  0  0
    5.5038   25.4174    4.3712 H   0  0  0  0  0  0
  1  2  1  0  0  0
  1 29  1  0  0  0
  1 30  1  0  0  0
  1 31  1  0  0  0
  2  3  1  0  0  0
  2  4  1  0  0  0
  2  5  1  0  0  0
  3 32  1  0  0  0
  3 33  1  0  0  0
  3 34  1  0  0  0
  4 35  1  0  0  0
  4 36  1  0  0  0
  4 37  1  0  0  0
  5  9  1  0  0  0
  5  6  2  0  0  0
  6  7  1  0  0  0
  6 38  1  0  0  0
  7  8  2  0  0  0
  8  9  1  0  0  0
  8 10  1  0  0  0
 10 11  1  0  0  0
 10 39  1  0  0  0
 10 40  1  0  0  0
 11 12  1  0  0  0
 12 16  1  0  0  0
 12 13  2  0  0  0
 13 14  1  0  0  0
 13 41  1  0  0  0
 14 15  2  0  0  0
 15 16  1  0  0  0
 15 17  1  0  0  0
 17 18  1  0  0  0
 17 42  1  0  0  0
 18 19  2  0  0  0
 18 20  1  0  0  0
 20 21  1  0  0  0
 20 43  1  0  0  0
 21 26  1  0  0  0
 21 22  2  0  0  0
 22 23  1  0  0  0
 22 28  1  0  0  0
 23 24  2  0  0  0
 23 44  1  0  0  0
 24 25  1  0  0  0
 24 45  1  0  0  0
 25 26  2  0  0  0
 25 46  1  0  0  0
 26 27  1  0  0  0
M  END
> <s_m_entry_id>
35016

> <s_m_entry_name>
ligand_docking-pose.513

> <s_m_Source_Path>
/home/csk/Desktop/cluster/DUD-E-result/cdk2

> <s_m_Source_File>
ligand_docking-pose.sdf

> <i_m_Source_File_Index>
513

> <i_lp_mmshare_version>
53161

> <r_lp_tautomer_probability>
0.999000488399163

> <s_lp_Force_Field>
OPLS_2005

> <r_lp_Energy>
16.012781

> <b_lp_Chiralities_Consistent>
1

> <s_lp_Variant>
211080-1

> <s_i_glide_gridfile>
glide-grid_1h00

> <i_i_glide_lignum>
1157

> <i_i_glide_rotatable_bonds>
8

> <r_i_docking_score>
-6.81928310222234

> <r_i_glide_ligand_efficiency>
-0.243545825079369

> <r_i_glide_ligand_efficiency_sa>
-0.739548565760929

> <r_i_glide_ligand_efficiency_ln>
-1.57409076284502

> <r_i_glide_gscore>
-6.81928310222234

> <r_i_glide_lipo>
-3.05617464230752

> <r_i_glide_hbond>
-0.129665677068413

> <r_i_glide_metal>
0

> <r_i_glide_rewards>
-1.39954900787185

> <r_i_glide_evdw>
-45.4986152648926

> <r_i_glide_ecoul>
-4.0887303352356

> <r_i_glide_erotb>
0.660256667737651

> <r_i_glide_esite>
-0.00591012918223506

> <r_i_glide_emodel>
-67.5523582476822

> <r_i_glide_energy>
-49.5873456001282

> <r_i_glide_einternal>
5.32305431365967

> <i_i_glide_confnum>
1

> <i_i_glide_posenum>
47

> <r_i_glide_eff_state_penalty>
0

> <i_f3d_flags>
0

> <s_user_duplicate_titles>
211080

> <s_m_subgroup_title>
dock_pv

> <s_m_subgroupid>
dock_pv1

> <b_m_subgroup_collapsed>
0

$$$$
452953
                    3D
 Schrodinger Suite 2021-1.
 45 47  0  0  1  0            999 V2000
   -0.3052   25.3052   13.2108 C   0  0  0  0  0  0
   -0.4957   26.7061   12.6626 C   0  0  0  0  0  0
   -1.1401   27.6151   13.3447 N   0  0  0  0  0  0
   -1.1421   28.6794   12.5753 C   0  0  0  0  0  0
   -0.5085   28.4830   11.3552 C   0  0  0  0  0  0
   -0.0661   27.1618   11.4224 N   0  0  0  0  0  0
    0.6793   26.3982   10.3995 C   0  0  0  0  0  0
   -0.0170   25.0773   10.0141 C   0  0  0  0  0  0
    2.1529   26.2107   10.8098 C   0  0  0  0  0  0
   -0.3574   29.4849   10.2449 C   0  0  0  0  0  0
   -1.2983   30.5070   10.0656 C   0  0  0  0  0  0
   -1.0849   31.3958    9.0085 C   0  0  0  0  0  0
   -0.0113   31.2983    8.1799 N   0  0  0  0  0  0
    0.8584   30.2881    8.4286 C   0  0  0  0  0  0
    0.7199   29.3752    9.4259 N   0  0  0  0  0  0
    1.9580   30.2203    7.5626 N   0  0  0  0  0  0
    3.0026   29.2869    7.4653 C   0  0  0  0  0  0
    3.5472   29.0520    6.2075 C   0  0  0  0  0  0
    4.5279   28.0786    6.0220 C   0  0  0  0  0  0
    4.9864   27.3246    7.1128 C   0  0  0  0  0  0
    4.4636   27.5989    8.3801 C   0  0  0  0  0  0
    3.4905   28.5731    8.5584 C   0  0  0  0  0  0
    6.0015   26.2138    6.9535 C   0  0  0  0  0  0
    6.1028   25.3040    7.7743 O   0  0  0  0  0  0
    6.7962   26.2520    5.8848 N   0  0  0  0  0  0
   -0.4002   25.2769   14.2966 H   0  0  0  0  0  0
    0.6708   24.8871   12.9753 H   0  0  0  0  0  0
   -1.0563   24.6215   12.8157 H   0  0  0  0  0  0
   -1.6219   29.5914   12.9021 H   0  0  0  0  0  0
    0.6765   26.9843    9.4885 H   0  0  0  0  0  0
    0.4594   24.6522    9.1312 H   0  0  0  0  0  0
    0.0473   24.3170   10.7892 H   0  0  0  0  0  0
   -1.0700   25.2339    9.7757 H   0  0  0  0  0  0
    2.7357   25.7957    9.9872 H   0  0  0  0  0  0
    2.6143   27.1587   11.0859 H   0  0  0  0  0  0
    2.2758   25.5394   11.6562 H   0  0  0  0  0  0
   -2.1582   30.6061   10.7133 H   0  0  0  0  0  0
   -1.7747   32.2053    8.8154 H   0  0  0  0  0  0
    1.9345   30.9052    6.8240 H   0  0  0  0  0  0
    3.1977   29.6265    5.3686 H   0  0  0  0  0  0
    4.9092   27.9110    5.0248 H   0  0  0  0  0  0
    4.8004   27.0540    9.2454 H   0  0  0  0  0  0
    3.1212   28.7536    9.5531 H   0  0  0  0  0  0
    7.4546   25.5041    5.7382 H   0  0  0  0  0  0
    6.9134   27.1251    5.3815 H   0  0  0  0  0  0
  1  2  1  0  0  0
  1 26  1  0  0  0
  1 27  1  0  0  0
  1 28  1  0  0  0
  2  6  1  0  0  0
  2  3  2  0  0  0
  3  4  1  0  0  0
  4  5  2  0  0  0
  4 29  1  0  0  0
  5  6  1  0  0  0
  5 10  1  0  0  0
  6  7  1  0  0  0
  7  8  1  0  0  0
  7  9  1  0  0  0
  7 30  1  0  0  0
  8 31  1  0  0  0
  8 32  1  0  0  0
  8 33  1  0  0  0
  9 34  1  0  0  0
  9 35  1  0  0  0
  9 36  1  0  0  0
 10 15  1  0  0  0
 10 11  2  0  0  0
 11 12  1  0  0  0
 11 37  1  0  0  0
 12 13  2  0  0  0
 12 38  1  0  0  0
 13 14  1  0  0  0
 14 15  2  0  0  0
 14 16  1  0  0  0
 16 17  1  0  0  0
 16 39  1  0  0  0
 17 22  1  0  0  0
 17 18  2  0  0  0
 18 19  1  0  0  0
 18 40  1  0  0  0
 19 20  2  0  0  0
 19 41  1  0  0  0
 20 21  1  0  0  0
 20 23  1  0  0  0
 21 22  2  0  0  0
 21 42  1  0  0  0
 22 43  1  0  0  0
 23 24  2  0  0  0
 23 25  1  0  0  0
 25 44  1  0  0  0
 25 45  1  0  0  0
M  END
> <s_m_entry_id>
35017

> <s_m_entry_name>
ligand_docking-pose.514

> <s_m_Source_Path>
/home/csk/Desktop/cluster/DUD-E-result/cdk2

> <s_m_Source_File>
ligand_docking-pose.sdf

> <i_m_Source_File_Index>
514

> <i_lp_mmshare_version>
53161

> <r_lp_tautomer_probability>
0.999999987636

> <s_lp_Force_Field>
OPLS_2005

> <r_lp_Energy>
17.38953

> <b_lp_Chiralities_Consistent>
1

> <s_lp_Variant>
452953-1

> <s_i_glide_gridfile>
glide-grid_1h00

> <i_i_glide_lignum>
864

> <i_i_glide_rotatable_bonds>
5

> <r_i_docking_score>
-6.81712486440926

> <r_i_glide_ligand_efficiency>
-0.272684994576371

> <r_i_glide_ligand_efficiency_sa>
-0.797335760230278

> <r_i_glide_ligand_efficiency_ln>
-1.61586288561177

> <r_i_glide_gscore>
-6.81712486440926

> <r_i_glide_lipo>
-2.25659931074627

> <r_i_glide_hbond>
-0.289225773437503

> <r_i_glide_metal>
0

> <r_i_glide_rewards>
-2.04290794139902

> <r_i_glide_evdw>
-39.3514556884766

> <r_i_glide_ecoul>
-4.81005907058716

> <r_i_glide_erotb>
0.500688003624993

> <r_i_glide_esite>
-0.0399981974395641

> <r_i_glide_emodel>
-59.9562306038732

> <r_i_glide_energy>
-44.1615147590637

> <r_i_glide_einternal>
4.32110500335693

> <i_i_glide_confnum>
5

> <i_i_glide_posenum>
284

> <r_i_glide_eff_state_penalty>
0

> <i_f3d_flags>
0

> <s_user_duplicate_titles>
452953

> <s_m_subgroup_title>
dock_pv

> <s_m_subgroupid>
dock_pv1

> <b_m_subgroup_collapsed>
0

$$$$
301101
                    3D
 Schrodinger Suite 2021-1.
 42 45  0  0  1  0            999 V2000
   -4.2359   26.2520   13.5580 C   0  0  0  0  0  0
   -3.3101   25.1653   13.9187 N   0  0  2  0  0  0
   -1.7434   25.5933   14.5760 S   0  0  0  0  0  0
   -1.9420   26.6520   15.5748 O   0  0  0  0  0  0
   -1.0737   24.3391   14.9389 O   0  0  0  0  0  0
   -0.8384   26.2920   13.2020 C   0  0  0  0  0  0
   -0.7386   27.6762   13.0873 C   0  0  0  0  0  0
    0.0580   28.2314   12.0991 C   0  0  0  0  0  0
    0.6691   27.4132   11.1480 C   0  0  0  0  0  0
    0.5370   26.0207   11.2360 C   0  0  0  0  0  0
   -0.2082   25.4601   12.2727 C   0  0  0  0  0  0
    1.4310   28.0090   10.1198 N   0  0  0  0  0  0
    1.1426   29.1343    9.3760 C   0  0  0  0  0  0
    2.2466   29.3280    8.5477 C   0  0  0  0  0  0
    3.1217   28.2546    8.8249 C   0  0  0  0  0  0
    2.6191   27.4820    9.7735 N   0  0  0  0  0  0
    4.3722   28.0251    8.1204 C   0  0  0  0  0  0
    4.6981   28.6521    7.1177 O   0  0  0  0  0  0
    5.1534   27.0520    8.5760 N   0  0  0  0  0  0
    2.3241   30.4531    7.5122 C   0  0  0  0  0  0
    0.9671   31.1609    7.2462 C   0  0  0  0  0  0
   -0.0194   31.0809    8.3976 C   0  0  0  0  0  0
    0.0043   30.0593    9.3573 C   0  0  0  0  0  0
   -1.1722   30.2508   10.0742 C   0  0  0  0  0  0
   -1.7177   31.4033    9.5827 N   0  0  0  0  0  0
   -1.0151   31.9227    8.5760 N   0  0  0  0  0  0
   -2.5616   31.8393    9.9296 H   0  0  0  0  0  0
   -5.0652   25.8520   12.9759 H   0  0  0  0  0  0
   -4.6471   26.6808   14.4712 H   0  0  0  0  0  0
   -3.7219   27.0191   12.9761 H   0  0  0  0  0  0
   -3.2854   24.3996   13.2398 H   0  0  0  0  0  0
   -1.2488   28.3301   13.7760 H   0  0  0  0  0  0
    0.2011   29.3017   12.0846 H   0  0  0  0  0  0
    1.0178   25.3760   10.5137 H   0  0  0  0  0  0
   -0.2865   24.3858   12.3576 H   0  0  0  0  0  0
    5.0409   26.6520    9.5129 H   0  0  0  0  0  0
    5.9716   26.8147    8.0392 H   0  0  0  0  0  0
    3.0995   31.1665    7.7760 H   0  0  0  0  0  0
    2.6744   30.0514    6.5608 H   0  0  0  0  0  0
    1.1303   32.1909    6.9272 H   0  0  0  0  0  0
    0.5021   30.6520    6.4089 H   0  0  0  0  0  0
   -1.6522   29.7303   10.8893 H   0  0  0  0  0  0
  1  2  1  0  0  0
  1 28  1  0  0  0
  1 29  1  0  0  0
  1 30  1  0  0  0
  2  3  1  0  0  0
  2 31  1  0  0  0
  3  4  2  0  0  0
  3  5  2  0  0  0
  3  6  1  0  0  0
  6 11  1  0  0  0
  6  7  2  0  0  0
  7  8  1  0  0  0
  7 32  1  0  0  0
  8  9  2  0  0  0
  8 33  1  0  0  0
  9 10  1  0  0  0
  9 12  1  0  0  0
 10 11  2  0  0  0
 10 34  1  0  0  0
 11 35  1  0  0  0
 12 16  1  0  0  0
 12 13  1  0  0  0
 13 23  1  0  0  0
 13 14  2  0  0  0
 14 15  1  0  0  0
 14 20  1  0  0  0
 15 16  2  0  0  0
 15 17  1  0  0  0
 17 18  2  0  0  0
 17 19  1  0  0  0
 19 36  1  0  0  0
 19 37  1  0  0  0
 20 21  1  0  0  0
 20 38  1  0  0  0
 20 39  1  0  0  0
 21 22  1  0  0  0
 21 40  1  0  0  0
 21 41  1  0  0  0
 22 26  2  0  0  0
 22 23  1  0  0  0
 23 24  2  0  0  0
 24 25  1  0  0  0
 24 42  1  0  0  0
 25 27  1  0  0  0
 25 26  1  0  0  0
M  END
> <s_m_entry_id>
35018

> <s_m_entry_name>
ligand_docking-pose.515

> <s_m_Source_Path>
/home/csk/Desktop/cluster/DUD-E-result/cdk2

> <s_m_Source_File>
ligand_docking-pose.sdf

> <i_m_Source_File_Index>
515

> <i_lp_mmshare_version>
53161

> <r_lp_tautomer_probability>
0.5

> <s_lp_Force_Field>
OPLS_2005

> <r_lp_Energy>
24.683306

> <b_lp_Chiralities_Consistent>
1

> <s_lp_Variant>
301101-1

> <s_i_glide_gridfile>
glide-grid_1h00

> <i_i_glide_lignum>
1579

> <i_i_glide_rotatable_bonds>
4

> <r_i_docking_score>
-6.8169475799085

> <r_i_glide_ligand_efficiency>
-0.262190291534942

> <r_i_glide_ligand_efficiency_sa>
-0.776737707003286

> <r_i_glide_ligand_efficiency_ln>
-1.60093777091207

> <r_i_glide_gscore>
-6.8169475799085

> <r_i_glide_lipo>
-2.36923678263942

> <r_i_glide_hbond>
-0.261802631971251

> <r_i_glide_metal>
0

> <r_i_glide_rewards>
-1.40398521895802

> <r_i_glide_evdw>
-39.047233581543

> <r_i_glide_ecoul>
-6.06340837478638

> <r_i_glide_erotb>
0.278529380343742

> <r_i_glide_esite>
-0.198579391388443

> <r_i_glide_emodel>
-62.6584017975467

> <r_i_glide_energy>
-45.1106419563293

> <r_i_glide_einternal>
3.37375235557556

> <i_i_glide_confnum>
16

> <i_i_glide_posenum>
139

> <r_i_glide_eff_state_penalty>
0

> <i_f3d_flags>
0

> <s_user_duplicate_titles>
301101

> <s_m_subgroup_title>
dock_pv

> <s_m_subgroupid>
dock_pv1

> <b_m_subgroup_collapsed>
0

$$$$
300993
                    3D
 Schrodinger Suite 2021-1.
 33 36  0  0  1  0            999 V2000
   -1.2427   26.3018   13.6388 C   0  0  0  0  0  0
   -0.7435   25.1031   13.1254 C   0  0  0  0  0  0
   -0.2328   25.0972   11.8262 C   0  0  0  0  0  0
   -0.1981   26.2047   11.0426 N   0  0  0  0  0  0
   -0.6789   27.3709   11.5552 C   0  0  0  0  0  0
   -1.2142   27.4529   12.8499 C   0  0  0  0  0  0
   -0.6339   28.5097   10.7171 N   0  0  0  0  0  0
    0.3475   28.9301    9.8442 C   0  0  0  0  0  0
   -0.1409   30.0790    9.2340 C   0  0  0  0  0  0
   -1.4172   30.2850    9.8095 C   0  0  0  0  0  0
   -1.6862   29.3406   10.6913 N   0  0  0  0  0  0
   -2.3142   31.3753    9.4760 C   0  0  0  0  0  0
   -2.0728   32.1806    8.5818 O   0  0  0  0  0  0
   -3.4476   31.4518   10.1760 N   0  0  0  0  0  0
    0.6451   30.8613    8.1759 C   0  0  0  0  0  0
    1.9813   30.2014    7.6963 C   0  0  0  0  0  0
    2.4616   29.0522    8.5759 C   0  0  0  0  0  0
    1.6774   28.4357    9.5668 C   0  0  0  0  0  0
    2.4949   27.4523   10.0935 C   0  0  0  0  0  0
    3.6565   27.5266    9.3759 N   0  0  0  0  0  0
    3.6536   28.5037    8.4671 N   0  0  0  0  0  0
    4.4752   26.9544    9.5632 H   0  0  0  0  0  0
   -1.6542   26.3434   14.6362 H   0  0  0  0  0  0
   -0.7575   24.2002   13.7177 H   0  0  0  0  0  0
    0.1600   24.1910   11.3894 H   0  0  0  0  0  0
   -1.6038   28.3840   13.2387 H   0  0  0  0  0  0
   -3.5415   30.9780   11.0713 H   0  0  0  0  0  0
   -4.0977   32.1868    9.9427 H   0  0  0  0  0  0
    0.0121   31.0253    7.3084 H   0  0  0  0  0  0
    0.8547   31.8605    8.5562 H   0  0  0  0  0  0
    1.8490   29.8384    6.6791 H   0  0  0  0  0  0
    2.7566   30.9649    7.6236 H   0  0  0  0  0  0
    2.3801   26.7438   10.9007 H   0  0  0  0  0  0
  1  6  1  0  0  0
  1  2  2  0  0  0
  1 23  1  0  0  0
  2  3  1  0  0  0
  2 24  1  0  0  0
  3  4  2  0  0  0
  3 25  1  0  0  0
  4  5  1  0  0  0
  5  6  2  0  0  0
  5  7  1  0  0  0
  6 26  1  0  0  0
  7 11  1  0  0  0
  7  8  1  0  0  0
  8 18  1  0  0  0
  8  9  2  0  0  0
  9 10  1  0  0  0
  9 15  1  0  0  0
 10 11  2  0  0  0
 10 12  1  0  0  0
 12 13  2  0  0  0
 12 14  1  0  0  0
 14 27  1  0  0  0
 14 28  1  0  0  0
 15 16  1  0  0  0
 15 29  1  0  0  0
 15 30  1  0  0  0
 16 17  1  0  0  0
 16 31  1  0  0  0
 16 32  1  0  0  0
 17 21  2  0  0  0
 17 18  1  0  0  0
 18 19  2  0  0  0
 19 20  1  0  0  0
 19 33  1  0  0  0
 20 22  1  0  0  0
 20 21  1  0  0  0
M  END
> <s_m_entry_id>
35019

> <s_m_entry_name>
ligand_docking-pose.516

> <s_m_Source_Path>
/home/csk/Desktop/cluster/DUD-E-result/cdk2

> <s_m_Source_File>
ligand_docking-pose.sdf

> <i_m_Source_File_Index>
516

> <i_lp_mmshare_version>
53161

> <r_lp_tautomer_probability>
0.5

> <s_lp_Force_Field>
OPLS_2005

> <r_lp_Energy>
20.659926

> <b_lp_Chiralities_Consistent>
1

> <s_lp_Variant>
300993-1

> <s_i_glide_gridfile>
glide-grid_1h00

> <i_i_glide_lignum>
577

> <i_i_glide_rotatable_bonds>
2

> <r_i_docking_score>
-6.81099264984015

> <r_i_glide_ligand_efficiency>
-0.324332983325721

> <r_i_glide_ligand_efficiency_sa>
-0.894810107987058

> <r_i_glide_ligand_efficiency_ln>
-1.68400416976644

> <r_i_glide_gscore>
-6.81099264984015

> <r_i_glide_lipo>
-1.88593441496478

> <r_i_glide_hbond>
-0.288268101400502

> <r_i_glide_metal>
0

> <r_i_glide_rewards>
-2.47981471174533

> <r_i_glide_evdw>
-34.7516632080078

> <r_i_glide_ecoul>
-4.03483629226685

> <r_i_glide_erotb>
0.229857084586149

> <r_i_glide_esite>
-0.0440239020752686

> <r_i_glide_emodel>
-56.0190038126449

> <r_i_glide_energy>
-38.7864995002747

> <r_i_glide_einternal>
0.0374633222818375

> <i_i_glide_confnum>
2

> <i_i_glide_posenum>
23

> <r_i_glide_eff_state_penalty>
0

> <i_f3d_flags>
0

> <s_user_duplicate_titles>
300993

> <s_m_subgroup_title>
dock_pv

> <s_m_subgroupid>
dock_pv1

> <b_m_subgroup_collapsed>
0

$$$$
116585
                    3D
 Schrodinger Suite 2021-1.
 39 44  0  0  1  0            999 V2000
    2.0183   30.0653    7.7332 C   0  0  0  0  0  0
    0.7790   30.4044    8.4158 N   0  0  0  0  0  0
    0.2626   31.6595    8.1759 C   0  0  0  0  0  0
   -0.9079   31.8558    8.8298 C   0  0  0  0  0  0
   -1.1678   30.6531    9.5333 C   0  0  0  0  0  0
   -0.0404   29.7600    9.3803 C   0  0  0  0  0  0
   -0.0189   28.4977   10.1278 C   0  0  0  0  0  0
   -1.2044   28.1952   10.8891 C   0  0  0  0  0  0
   -2.3299   29.0522   10.8715 C   0  0  0  0  0  0
   -2.2851   30.2820   10.2629 C   0  0  0  0  0  0
   -3.5210   28.6527   11.3762 F   0  0  0  0  0  0
   -1.2880   27.0172   11.6861 C   0  0  0  0  0  0
   -0.3039   26.0309   11.6819 C   0  0  0  0  0  0
   -0.7421   25.0117   12.5762 C   0  0  0  0  0  0
   -0.2253   23.7656   12.9795 C   0  0  0  0  0  0
   -0.9028   23.0247   13.9463 C   0  0  0  0  0  0
   -2.0747   23.4990   14.5261 C   0  0  0  0  0  0
   -2.6276   24.7251   14.1592 C   0  0  0  0  0  0
   -1.9566   25.4581   13.1723 C   0  0  0  0  0  0
   -2.2717   26.6650   12.5904 N   0  0  0  0  0  0
    0.8260   26.2618   10.8869 C   0  0  0  0  0  0
    1.0194   27.4704   10.2105 C   0  0  0  0  0  0
    2.4581   27.4018    9.7880 C   0  0  0  0  0  0
    3.2236   28.2533    9.3751 O   0  0  0  0  0  0
    2.8578   26.1431    9.9823 N   0  0  0  0  0  0
    2.0097   25.3908   10.6725 C   0  0  0  0  0  0
    2.2330   24.2420   11.0484 O   0  0  0  0  0  0
   -3.0768   27.2387   12.8113 H   0  0  0  0  0  0
    2.0992   30.6203    6.7970 H   0  0  0  0  0  0
    2.8716   30.3480    8.3461 H   0  0  0  0  0  0
    2.0581   29.0260    7.4533 H   0  0  0  0  0  0
    0.7808   32.3379    7.5120 H   0  0  0  0  0  0
   -1.5232   32.7423    8.7692 H   0  0  0  0  0  0
   -3.1444   30.9336   10.3216 H   0  0  0  0  0  0
    0.6839   23.3655   12.5671 H   0  0  0  0  0  0
   -0.5103   22.0650   14.2515 H   0  0  0  0  0  0
   -2.5730   22.8937   15.2688 H   0  0  0  0  0  0
   -3.5448   25.0803   14.6048 H   0  0  0  0  0  0
    3.8117   25.8544    9.8113 H   0  0  0  0  0  0
  1  2  1  0  0  0
  1 29  1  0  0  0
  1 30  1  0  0  0
  1 31  1  0  0  0
  2  6  1  0  0  0
  2  3  1  0  0  0
  3  4  2  0  0  0
  3 32  1  0  0  0
  4  5  1  0  0  0
  4 33  1  0  0  0
  5 10  2  0  0  0
  5  6  1  0  0  0
  6  7  2  0  0  0
  7 22  1  0  0  0
  7  8  1  0  0  0
  8  9  2  0  0  0
  8 12  1  0  0  0
  9 10  1  0  0  0
  9 11  1  0  0  0
 10 34  1  0  0  0
 12 20  1  0  0  0
 12 13  2  0  0  0
 13 14  1  0  0  0
 13 21  1  0  0  0
 14 19  2  0  0  0
 14 15  1  0  0  0
 15 16  2  0  0  0
 15 35  1  0  0  0
 16 17  1  0  0  0
 16 36  1  0  0  0
 17 18  2  0  0  0
 17 37  1  0  0  0
 18 19  1  0  0  0
 18 38  1  0  0  0
 19 20  1  0  0  0
 20 28  1  0  0  0
 21 26  1  0  0  0
 21 22  2  0  0  0
 22 23  1  0  0  0
 23 24  2  0  0  0
 23 25  1  0  0  0
 25 26  1  0  0  0
 25 39  1  0  0  0
 26 27  2  0  0  0
M  END
> <s_m_entry_id>
35020

> <s_m_entry_name>
ligand_docking-pose.517

> <s_m_Source_Path>
/home/csk/Desktop/cluster/DUD-E-result/cdk2

> <s_m_Source_File>
ligand_docking-pose.sdf

> <i_m_Source_File_Index>
517

> <i_lp_mmshare_version>
53161

> <r_lp_tautomer_probability>
1

> <s_lp_Force_Field>
OPLS_2005

> <r_lp_Energy>
93.872581

> <b_lp_Chiralities_Consistent>
1

> <s_lp_Variant>
116585-1

> <s_i_glide_gridfile>
glide-grid_1h00

> <i_i_glide_lignum>
1467

> <i_i_glide_rotatable_bonds>
0

> <r_i_docking_score>
-6.80738441400593

> <r_i_glide_ligand_efficiency>
-0.252125348666886

> <r_i_glide_ligand_efficiency_sa>
-0.756376045169695

> <r_i_glide_ligand_efficiency_ln>
-1.58464686307738

> <r_i_glide_gscore>
-6.80738441400593

> <r_i_glide_lipo>
-2.52677412811179

> <r_i_glide_hbond>
-0.0984804827174767

> <r_i_glide_metal>
0

> <r_i_glide_rewards>
-1.58217134652855

> <r_i_glide_evdw>
-37.2791519165039

> <r_i_glide_ecoul>
-4.16133499145508

> <r_i_glide_erotb>
0

> <r_i_glide_esite>
-0.111800612104661

> <r_i_glide_emodel>
-57.8118080819345

> <r_i_glide_energy>
-41.440486907959

> <r_i_glide_einternal>
0

> <i_i_glide_confnum>
1

> <i_i_glide_posenum>
183

> <r_i_glide_eff_state_penalty>
0

> <i_f3d_flags>
0

> <s_user_duplicate_titles>
116585

> <s_m_subgroup_title>
dock_pv

> <s_m_subgroupid>
dock_pv1

> <b_m_subgroup_collapsed>
0

$$$$
