CHEMBL2208_lig882
                    3D
 Schrodinger Suite 2021-1.
 42 45  0  0  1  0            999 V2000
   43.4268    9.2253   18.9207 Cl  0  0  0  0  0  0
   38.2774    4.7275   24.0186 O   0  0  0  0  0  0
   39.3743    7.4482   18.2461 N   0  0  0  0  0  0
   39.8780    6.5588   13.6513 N   0  0  0  0  0  0
   41.0204    8.4246   19.7157 N   0  0  0  0  0  0
   37.8782    5.2253   13.4265 N   0  0  0  0  0  0
   38.9921    7.7351   20.5961 N   0  0  0  0  0  0
   39.8365    7.0130   15.8801 C   0  0  0  0  0  0
   38.6945    6.1963   15.5431 C   0  0  0  0  0  0
   40.2618    7.5246   17.2196 C   0  0  0  0  0  0
   38.7524    5.9411   14.1387 C   0  0  0  0  0  0
   40.4983    7.2250   14.6768 C   0  0  0  0  0  0
   39.8071    7.8721   19.4676 C   0  0  0  0  0  0
   41.5496    8.0251   17.4122 C   0  0  0  0  0  0
   41.8780    8.5092   18.6731 C   0  0  0  0  0  0
   37.6141    5.6279   16.2425 C   0  0  0  0  0  0
   37.6394    7.1847   20.5448 C   0  0  2  0  0  0
   36.6986    4.8557   15.5275 C   0  0  0  0  0  0
   36.8622    4.6920   14.1527 C   0  0  0  0  0  0
   36.9274    7.5575   21.8588 C   0  0  0  0  0  0
   37.6527    5.6439   20.3842 C   0  0  0  0  0  0
   37.5987    5.3262   22.9355 C   0  0  1  0  0  0
   37.5292    6.8599   23.1023 C   0  0  0  0  0  0
   38.2440    4.9024   21.5978 C   0  0  0  0  0  0
   39.2322    4.8273   23.8721 H   0  0  0  0  0  0
   40.2225    6.5711   12.7002 H   0  0  0  0  0  0
   39.4488    7.7603   21.4971 H   0  0  0  0  0  0
   41.3875    7.7985   14.4623 H   0  0  0  0  0  0
   42.2758    8.0249   16.6207 H   0  0  0  0  0  0
   37.4997    5.7673   17.3070 H   0  0  0  0  0  0
   37.1196    7.6217   19.6905 H   0  0  0  0  0  0
   35.8781    4.3748   16.0365 H   0  0  0  0  0  0
   36.1610    4.0856   13.5970 H   0  0  0  0  0  0
   36.9317    8.6396   22.0036 H   0  0  0  0  0  0
   35.8783    7.2782   21.7769 H   0  0  0  0  0  0
   36.6310    5.2971   20.2197 H   0  0  0  0  0  0
   38.2054    5.3563   19.4902 H   0  0  0  0  0  0
   36.5796    4.9391   22.9834 H   0  0  0  0  0  0
   36.9272    7.1055   23.9782 H   0  0  0  0  0  0
   38.5264    7.2527   23.3071 H   0  0  0  0  0  0
   38.1116    3.8308   21.4535 H   0  0  0  0  0  0
   39.3213    5.0703   21.6302 H   0  0  0  0  0  0
  1 15  1  0  0  0
  2 22  1  0  0  0
  2 25  1  0  0  0
  3 10  2  0  0  0
  3 13  1  0  0  0
  4 11  1  0  0  0
  4 12  1  0  0  0
  4 26  1  0  0  0
  5 13  2  0  0  0
  5 15  1  0  0  0
  6 11  2  0  0  0
  6 19  1  0  0  0
  7 13  1  0  0  0
  7 17  1  0  0  0
  7 27  1  0  0  0
  8  9  1  0  0  0
  8 10  1  0  0  0
  8 12  2  0  0  0
  9 11  1  0  0  0
  9 16  2  0  0  0
 10 14  1  0  0  0
 12 28  1  0  0  0
 14 15  2  0  0  0
 14 29  1  0  0  0
 16 18  1  0  0  0
 16 30  1  0  0  0
 17 20  1  0  0  0
 17 21  1  0  0  0
 17 31  1  0  0  0
 18 19  2  0  0  0
 18 32  1  0  0  0
 19 33  1  0  0  0
 20 23  1  0  0  0
 20 34  1  0  0  0
 20 35  1  0  0  0
 21 24  1  0  0  0
 21 36  1  0  0  0
 21 37  1  0  0  0
 22 23  1  0  0  0
 22 24  1  0  0  0
 22 38  1  0  0  0
 23 39  1  0  0  0
 23 40  1  0  0  0
 24 41  1  0  0  0
 24 42  1  0  0  0
M  END
> <s_m_entry_id>
7441

> <s_m_entry_name>
dock_pv.2

> <s_m_Source_Path>
/home/csk/Desktop/cluster/DUD-E-result/mapk2

> <s_m_Source_File>
dock_pv.maegz

> <i_m_Source_File_Index>
2

> <chembl_id>
CHEMBL1986943

> <chembl_pref_name>
None

> <i_lp_mmshare_version>
53161

> <i_f3d_flags>
0

> <r_lp_tautomer_probability>
0.999998420164496

> <s_lp_Force_Field>
OPLS_2005

> <r_lp_Energy>
7.423245

> <b_lp_Chiralities_Consistent>
1

> <s_lp_Variant>
CHEMBL2208_lig882-2

> <s_i_glide_gridfile>
glide-grid_3m2w

> <i_i_glide_lignum>
1128

> <i_i_glide_rotatable_bonds>
4

> <r_i_docking_score>
-8.9851897742369

> <r_i_glide_ligand_efficiency>
-0.374382907259871

> <r_i_glide_ligand_efficiency_sa>
-1.07990717310797

> <r_i_glide_ligand_efficiency_ln>
-2.15056821646757

> <r_i_glide_gscore>
-8.9851897742369

> <r_i_glide_lipo>
-2.08716581778312

> <r_i_glide_hbond>
-0.609516329982932

> <r_i_glide_metal>
0

> <r_i_glide_rewards>
-3.11264505009145

> <r_i_glide_evdw>
-42.1537322998047

> <r_i_glide_ecoul>
-10.0468072891235

> <r_i_glide_erotb>
0.481693526222459

> <r_i_glide_esite>
-0.0428483942430943

> <r_i_glide_emodel>
-76.1738043114591

> <r_i_glide_energy>
-52.2005395889282

> <r_i_glide_einternal>
3.98892998695374

> <i_i_glide_confnum>
21

> <i_i_glide_posenum>
290

> <r_i_glide_eff_state_penalty>
0

> <s_user_duplicate_titles>
CHEMBL2208_lig882

> <s_m_subgroup_title>
dock_pv

> <s_m_subgroupid>
dock_pv

> <b_m_subgroup_collapsed>
1

$$$$
CHEMBL2208_lig1287
                    3D
 Schrodinger Suite 2021-1.
 42 45  0  0  1  0            999 V2000
   43.3510    9.1921   18.6721 Cl  0  0  0  0  0  0
   37.8839    4.6217   23.9158 O   0  0  0  0  0  0
   39.3570    7.2456   18.0749 N   0  0  0  0  0  0
   39.9700    6.5115   13.4723 N   0  0  0  0  0  0
   41.4628    8.0251   17.1915 N   0  0  0  0  0  0
   37.9343    5.2375   13.1796 N   0  0  0  0  0  0
   38.9302    7.4330   20.4317 N   0  0  0  0  0  0
   39.8639    6.9598   15.7008 C   0  0  0  0  0  0
   38.7143    6.1729   15.3223 C   0  0  0  0  0  0
   40.2393    7.4485   17.0629 C   0  0  0  0  0  0
   38.8102    5.9238   13.9200 C   0  0  0  0  0  0
   40.5695    7.1618   14.5218 C   0  0  0  0  0  0
   39.7657    7.6053   19.3218 C   0  0  0  0  0  0
   37.6007    5.6272   15.9877 C   0  0  0  0  0  0
   41.8244    8.4250   18.4376 C   0  0  0  0  0  0
   41.0116    8.1876   19.5437 C   0  0  0  0  0  0
   37.5555    6.9477   20.3283 C   0  0  2  0  0  0
   36.6782    4.8960   15.2421 C   0  0  0  0  0  0
   36.8763    4.7406   13.8718 C   0  0  0  0  0  0
   36.7872    7.4087   21.5821 C   0  0  0  0  0  0
   37.5197    5.4072   20.2153 C   0  0  0  0  0  0
   37.3000    5.2008   22.7721 C   0  0  1  0  0  0
   37.3024    6.7406   22.8793 C   0  0  0  0  0  0
   38.0038    4.6946   21.4946 C   0  0  0  0  0  0
   38.8354    4.7791   23.8727 H   0  0  0  0  0  0
   40.3503    6.5193   12.5324 H   0  0  0  0  0  0
   39.3651    7.3887   21.3424 H   0  0  0  0  0  0
   41.4779    7.7182   14.3501 H   0  0  0  0  0  0
   37.4595    5.7623   17.0490 H   0  0  0  0  0  0
   41.3284    8.4365   20.5424 H   0  0  0  0  0  0
   37.0971    7.3689   19.4346 H   0  0  0  0  0  0
   35.8177    4.4511   15.7233 H   0  0  0  0  0  0
   36.1725    4.1622   13.2907 H   0  0  0  0  0  0
   36.8395    8.4940   21.6824 H   0  0  0  0  0  0
   35.7289    7.1761   21.4594 H   0  0  0  0  0  0
   36.4995    5.0917   19.9927 H   0  0  0  0  0  0
   38.1207    5.0722   19.3688 H   0  0  0  0  0  0
   36.2628    4.8632   22.7693 H   0  0  0  0  0  0
   36.6782    7.0493   23.7188 H   0  0  0  0  0  0
   38.3086    7.0947   23.1140 H   0  0  0  0  0  0
   37.8358    3.6250   21.3875 H   0  0  0  0  0  0
   39.0836    4.8169   21.5930 H   0  0  0  0  0  0
  1 15  1  0  0  0
  2 22  1  0  0  0
  2 25  1  0  0  0
  3 10  2  0  0  0
  3 13  1  0  0  0
  4 11  1  0  0  0
  4 12  1  0  0  0
  4 26  1  0  0  0
  5 10  1  0  0  0
  5 15  2  0  0  0
  6 11  2  0  0  0
  6 19  1  0  0  0
  7 13  1  0  0  0
  7 17  1  0  0  0
  7 27  1  0  0  0
  8  9  1  0  0  0
  8 10  1  0  0  0
  8 12  2  0  0  0
  9 11  1  0  0  0
  9 14  2  0  0  0
 12 28  1  0  0  0
 13 16  2  0  0  0
 14 18  1  0  0  0
 14 29  1  0  0  0
 15 16  1  0  0  0
 16 30  1  0  0  0
 17 20  1  0  0  0
 17 21  1  0  0  0
 17 31  1  0  0  0
 18 19  2  0  0  0
 18 32  1  0  0  0
 19 33  1  0  0  0
 20 23  1  0  0  0
 20 34  1  0  0  0
 20 35  1  0  0  0
 21 24  1  0  0  0
 21 36  1  0  0  0
 21 37  1  0  0  0
 22 23  1  0  0  0
 22 24  1  0  0  0
 22 38  1  0  0  0
 23 39  1  0  0  0
 23 40  1  0  0  0
 24 41  1  0  0  0
 24 42  1  0  0  0
M  END
> <s_m_entry_id>
7442

> <s_m_entry_name>
dock_pv.3

> <s_m_Source_Path>
/home/csk/Desktop/cluster/DUD-E-result/mapk2

> <s_m_Source_File>
dock_pv.maegz

> <i_m_Source_File_Index>
3

> <chembl_id>
CHEMBL1991674

> <chembl_pref_name>
None

> <i_lp_mmshare_version>
53161

> <i_f3d_flags>
0

> <r_lp_tautomer_probability>
0.999998015729938

> <s_lp_Force_Field>
OPLS_2005

> <r_lp_Energy>
5.514423

> <b_lp_Chiralities_Consistent>
1

> <s_lp_Variant>
CHEMBL2208_lig1287-2

> <s_i_glide_gridfile>
glide-grid_3m2w

> <i_i_glide_lignum>
1747

> <i_i_glide_rotatable_bonds>
4

> <r_i_docking_score>
-8.93635693183824

> <r_i_glide_ligand_efficiency>
-0.37234820549326

> <r_i_glide_ligand_efficiency_sa>
-1.07403807761699

> <r_i_glide_ligand_efficiency_ln>
-2.13888027648845

> <r_i_glide_gscore>
-8.93635693183824

> <r_i_glide_lipo>
-1.88434318313911

> <r_i_glide_hbond>
-0.753490318048829

> <r_i_glide_metal>
0

> <r_i_glide_rewards>
-3.46677898320311

> <r_i_glide_evdw>
-44.7309036254883

> <r_i_glide_ecoul>
-6.96799421310425

> <r_i_glide_erotb>
0.481693526222459

> <r_i_glide_esite>
-0.0316936604295953

> <r_i_glide_emodel>
-78.2842448962836

> <r_i_glide_energy>
-51.6988978385925

> <r_i_glide_einternal>
1.35734045505524

> <i_i_glide_confnum>
20

> <i_i_glide_posenum>
305

> <r_i_glide_eff_state_penalty>
0

> <s_user_duplicate_titles>
CHEMBL2208_lig1287

> <s_m_subgroup_title>
dock_pv

> <s_m_subgroupid>
dock_pv

> <b_m_subgroup_collapsed>
1

$$$$
CHEMBL2208_lig872
                    3D
 Schrodinger Suite 2021-1.
 43 46  0  0  1  0            999 V2000
   40.1598    6.6582   13.5961 N   0  0  0  0  0  0
   39.1361    7.1139   18.1368 N   0  0  0  0  0  0
   38.1884    5.3643   13.0719 N   0  0  0  0  0  0
   38.3997    7.1522   20.4071 N   0  0  0  0  0  0
   40.4465    8.1471   19.8721 N   0  0  0  0  0  0
   38.6781    4.4250   21.5154 N   0  0  0  0  0  0
   39.8600    6.9808   15.8258 C   0  0  0  0  0  0
   38.7565    6.2044   15.3111 C   0  0  0  0  0  0
   40.1044    7.4132   17.2323 C   0  0  0  0  0  0
   38.9826    6.0250   13.9155 C   0  0  0  0  0  0
   40.6605    7.2571   14.7246 C   0  0  0  0  0  0
   39.3490    7.4823   19.4292 C   0  0  0  0  0  0
   37.5876    5.6252   15.8440 C   0  0  0  0  0  0
   41.2775    8.0696   17.6108 C   0  0  0  0  0  0
   37.3943    6.1093   20.1706 C   0  0  1  0  0  0
   41.4044    8.4250   18.9531 C   0  0  0  0  0  0
   36.7412    4.9276   14.9824 C   0  0  0  0  0  0
   37.0779    4.8250   13.6349 C   0  0  0  0  0  0
   38.0425    4.6977   20.2405 C   0  0  2  0  0  0
   36.2562    6.2367   21.2120 C   0  0  0  0  0  0
   36.9549    3.6430   19.9513 C   0  0  0  0  0  0
   35.2140    5.0983   21.0717 C   0  0  0  0  0  0
   35.8342    3.6895   21.0118 C   0  0  0  0  0  0
   40.6036    6.7264   12.6874 H   0  0  0  0  0  0
   38.7188    7.2432   21.3605 H   0  0  0  0  0  0
   38.9003    3.4325   21.5842 H   0  0  0  0  0  0
   39.5494    4.9237   21.6379 H   0  0  0  0  0  0
   41.5677    7.8378   14.6531 H   0  0  0  0  0  0
   37.3427    5.7103   16.8905 H   0  0  0  0  0  0
   42.0587    8.2965   16.9042 H   0  0  0  0  0  0
   36.9780    6.2557   19.1724 H   0  0  0  0  0  0
   42.2834    8.9419   19.3045 H   0  0  0  0  0  0
   35.8380    4.4673   15.3570 H   0  0  0  0  0  0
   36.4383    4.2709   12.9618 H   0  0  0  0  0  0
   38.8129    4.6142   19.4719 H   0  0  0  0  0  0
   36.6658    6.2209   22.2243 H   0  0  0  0  0  0
   35.7606    7.2026   21.1056 H   0  0  0  0  0  0
   36.5233    3.8124   18.9646 H   0  0  0  0  0  0
   37.3950    2.6467   19.9213 H   0  0  0  0  0  0
   34.6781    5.2256   20.1371 H   0  0  0  0  0  0
   34.4792    5.1554   21.8761 H   0  0  0  0  0  0
   35.0675    2.9489   20.7772 H   0  0  0  0  0  0
   36.2279    3.4127   21.9918 H   0  0  0  0  0  0
  1 10  1  0  0  0
  1 11  1  0  0  0
  1 24  1  0  0  0
  2  9  2  0  0  0
  2 12  1  0  0  0
  3 10  2  0  0  0
  3 18  1  0  0  0
  4 12  1  0  0  0
  4 15  1  0  0  0
  4 25  1  0  0  0
  5 12  2  0  0  0
  5 16  1  0  0  0
  6 19  1  0  0  0
  6 26  1  0  0  0
  6 27  1  0  0  0
  7  8  1  0  0  0
  7  9  1  0  0  0
  7 11  2  0  0  0
  8 10  1  0  0  0
  8 13  2  0  0  0
  9 14  1  0  0  0
 11 28  1  0  0  0
 13 17  1  0  0  0
 13 29  1  0  0  0
 14 16  2  0  0  0
 14 30  1  0  0  0
 15 19  1  0  0  0
 15 20  1  0  0  0
 15 31  1  0  0  0
 16 32  1  0  0  0
 17 18  2  0  0  0
 17 33  1  0  0  0
 18 34  1  0  0  0
 19 21  1  0  0  0
 19 35  1  0  0  0
 20 22  1  0  0  0
 20 36  1  0  0  0
 20 37  1  0  0  0
 21 23  1  0  0  0
 21 38  1  0  0  0
 21 39  1  0  0  0
 22 23  1  0  0  0
 22 40  1  0  0  0
 22 41  1  0  0  0
 23 42  1  0  0  0
 23 43  1  0  0  0
M  END
> <s_m_entry_id>
7443

> <s_m_entry_name>
dock_pv.4

> <s_m_Source_Path>
/home/csk/Desktop/cluster/DUD-E-result/mapk2

> <s_m_Source_File>
dock_pv.maegz

> <i_m_Source_File_Index>
4

> <chembl_id>
CHEMBL1995813

> <chembl_pref_name>
None

> <i_lp_mmshare_version>
53161

> <i_f3d_flags>
0

> <r_lp_tautomer_probability>
0.999998420164496

> <s_lp_Force_Field>
OPLS_2005

> <r_lp_Energy>
13.420806

> <b_lp_Chiralities_Consistent>
1

> <s_lp_Variant>
CHEMBL2208_lig872-2

> <s_i_glide_gridfile>
glide-grid_3m2w

> <i_i_glide_lignum>
1111

> <i_i_glide_rotatable_bonds>
3

> <r_i_docking_score>
-8.79753561293427

> <r_i_glide_ligand_efficiency>
-0.382501548388446

> <r_i_glide_ligand_efficiency_sa>
-1.08778352206709

> <r_i_glide_ligand_efficiency_ln>
-2.12732388285004

> <r_i_glide_gscore>
-8.79753561293427

> <r_i_glide_lipo>
-1.8792356864924

> <r_i_glide_hbond>
-0.917384142540036

> <r_i_glide_metal>
0

> <r_i_glide_rewards>
-3.43104718043409

> <r_i_glide_evdw>
-39.9548988342285

> <r_i_glide_ecoul>
-7.55606317520142

> <r_i_glide_erotb>
0.583625750748594

> <r_i_glide_esite>
-0.0223399362247024

> <r_i_glide_emodel>
-70.3611392212753

> <r_i_glide_energy>
-47.5109620094299

> <r_i_glide_einternal>
2.55726790428162

> <i_i_glide_confnum>
18

> <i_i_glide_posenum>
89

> <r_i_glide_eff_state_penalty>
0

> <s_user_duplicate_titles>
CHEMBL2208_lig872

> <s_m_subgroup_title>
dock_pv

> <s_m_subgroupid>
dock_pv

> <b_m_subgroup_collapsed>
1

$$$$
CHEMBL2208_lig1122
                    3D
 Schrodinger Suite 2021-1.
 39 42  0  0  1  0            999 V2000
   39.9129    8.0805   19.5633 O   0  0  0  0  0  0
   37.4540    7.6633   22.9566 O   0  0  0  0  0  0
   34.4412    5.2249   22.1714 O   0  0  0  0  0  0
   37.4096    5.4818   22.2600 N   0  0  0  0  0  0
   39.4780    8.0284   20.8930 N   0  0  0  0  0  0
   39.7664    6.3626   13.3344 N   0  0  0  0  0  0
   38.6754    5.6247   13.0714 N   0  0  0  0  0  0
   39.0780    7.3199   18.8092 C   0  0  0  0  0  0
   38.4643    7.1870   20.9298 C   0  0  0  0  0  0
   39.3243    7.1636   17.3510 C   0  0  0  0  0  0
   37.7488    6.7998   22.1266 C   0  0  0  0  0  0
   38.0996    6.8259   19.6330 C   0  0  0  0  0  0
   38.6580    6.1824   15.2513 C   0  0  0  0  0  0
   39.7934    6.7687   14.6503 C   0  0  0  0  0  0
   38.4225    6.3848   16.6142 C   0  0  0  0  0  0
   40.4253    7.7515   16.7245 C   0  0  0  0  0  0
   40.6785    7.5723   15.3627 C   0  0  0  0  0  0
   38.0145    5.4879   14.1888 C   0  0  0  0  0  0
   36.5610    5.0095   23.3739 C   0  0  0  0  0  0
   37.8986    4.3946   21.3910 C   0  0  0  0  0  0
   35.3094    4.2911   22.7786 C   0  0  2  0  0  0
   36.6792    3.7487   20.6957 C   0  0  0  0  0  0
   35.6788    3.2190   21.7359 C   0  0  0  0  0  0
   34.2781    5.9226   22.8284 H   0  0  0  0  0  0
   40.4288    6.5792   12.5952 H   0  0  0  0  0  0
   37.2625    6.2144   19.3412 H   0  0  0  0  0  0
   37.5621    5.9304   17.0806 H   0  0  0  0  0  0
   41.1070    8.3582   17.3019 H   0  0  0  0  0  0
   41.5244    8.0248   14.8763 H   0  0  0  0  0  0
   37.1056    4.9052   14.2300 H   0  0  0  0  0  0
   36.2593    5.8195   24.0397 H   0  0  0  0  0  0
   37.1202    4.3129   24.0005 H   0  0  0  0  0  0
   38.3319    3.6391   22.0558 H   0  0  0  0  0  0
   38.7339    4.6498   20.7390 H   0  0  0  0  0  0
   34.7564    3.8214   23.5946 H   0  0  0  0  0  0
   37.0177    2.9246   20.0662 H   0  0  0  0  0  0
   36.1886    4.4543   20.0273 H   0  0  0  0  0  0
   36.1070    2.3574   22.2420 H   0  0  0  0  0  0
   34.7859    2.8445   21.2335 H   0  0  0  0  0  0
  1  5  1  0  0  0
  1  8  1  0  0  0
  2 11  2  0  0  0
  3 21  1  0  0  0
  3 24  1  0  0  0
  4 11  1  0  0  0
  4 19  1  0  0  0
  4 20  1  0  0  0
  5  9  2  0  0  0
  6  7  1  0  0  0
  6 14  1  0  0  0
  6 25  1  0  0  0
  7 18  2  0  0  0
  8 10  1  0  0  0
  8 12  2  0  0  0
  9 11  1  0  0  0
  9 12  1  0  0  0
 10 15  1  0  0  0
 10 16  2  0  0  0
 12 26  1  0  0  0
 13 14  1  0  0  0
 13 15  2  0  0  0
 13 18  1  0  0  0
 14 17  2  0  0  0
 15 27  1  0  0  0
 16 17  1  0  0  0
 16 28  1  0  0  0
 17 29  1  0  0  0
 18 30  1  0  0  0
 19 21  1  0  0  0
 19 31  1  0  0  0
 19 32  1  0  0  0
 20 22  1  0  0  0
 20 33  1  0  0  0
 20 34  1  0  0  0
 21 23  1  0  0  0
 21 35  1  0  0  0
 22 23  1  0  0  0
 22 36  1  0  0  0
 22 37  1  0  0  0
 23 38  1  0  0  0
 23 39  1  0  0  0
M  END
> <s_m_entry_id>
7444

> <s_m_entry_name>
dock_pv.5

> <s_m_Source_Path>
/home/csk/Desktop/cluster/DUD-E-result/mapk2

> <s_m_Source_File>
dock_pv.maegz

> <i_m_Source_File_Index>
5

> <chembl_id>
CHEMBL1997340

> <chembl_pref_name>
None

> <i_lp_mmshare_version>
53161

> <i_f3d_flags>
0

> <r_lp_tautomer_probability>
0.980392156862745

> <s_lp_Force_Field>
OPLS_2005

> <r_lp_Energy>
32.990028

> <b_lp_Chiralities_Consistent>
1

> <s_lp_Variant>
CHEMBL2208_lig1122-1

> <s_i_glide_gridfile>
glide-grid_3m2w

> <i_i_glide_lignum>
1495

> <i_i_glide_rotatable_bonds>
4

> <r_i_docking_score>
-8.73687856346142

> <r_i_glide_ligand_efficiency>
-0.379864285367888

> <r_i_glide_ligand_efficiency_sa>
-1.08028349685357

> <r_i_glide_ligand_efficiency_ln>
-2.11265645827979

> <r_i_glide_gscore>
-8.73687856346142

> <r_i_glide_lipo>
-2.19241674240211

> <r_i_glide_hbond>
-1.28

> <r_i_glide_metal>
0

> <r_i_glide_rewards>
-2.12487976636456

> <r_i_glide_evdw>
-34.43212890625

> <r_i_glide_ecoul>
-12.6622972488403

> <r_i_glide_erotb>
0.570749084962497

> <r_i_glide_esite>
-0.0893801070186988

> <r_i_glide_emodel>
-69.0944673515569

> <r_i_glide_energy>
-47.0944261550903

> <r_i_glide_einternal>
4.87725400924683

> <i_i_glide_confnum>
22

> <i_i_glide_posenum>
283

> <r_i_glide_eff_state_penalty>
0

> <s_user_duplicate_titles>
CHEMBL2208_lig1122,CHEMBL2208_lig1122

> <s_m_subgroup_title>
dock_pv

> <s_m_subgroupid>
dock_pv

> <b_m_subgroup_collapsed>
1

$$$$
CHEMBL2208_lig1282
                    3D
 Schrodinger Suite 2021-1.
 41 44  0  0  1  0            999 V2000
   43.2979    9.2252   19.0103 Cl  0  0  0  0  0  0
   39.2921    7.4485   18.0981 N   0  0  0  0  0  0
   40.0034    6.6039   13.5260 N   0  0  0  0  0  0
   40.8505    8.4246   19.6613 N   0  0  0  0  0  0
   38.0053    5.2912   13.1994 N   0  0  0  0  0  0
   38.7744    7.7397   20.4186 N   0  0  0  0  0  0
   39.8724    7.0238   15.7612 C   0  0  0  0  0  0
   38.7431    6.2141   15.3648 C   0  0  0  0  0  0
   40.2358    7.5255   17.1231 C   0  0  0  0  0  0
   38.8566    5.9840   13.9592 C   0  0  0  0  0  0
   40.5788    7.2531   14.5879 C   0  0  0  0  0  0
   39.6534    7.8757   19.3414 C   0  0  0  0  0  0
   41.5106    8.0250   17.3920 C   0  0  0  0  0  0
   37.6336    5.6382   16.0114 C   0  0  0  0  0  0
   41.7698    8.5035   18.6716 C   0  0  0  0  0  0
   36.7315    4.9010   15.2428 C   0  0  0  0  0  0
   36.9493    4.7663   13.8724 C   0  0  0  0  0  0
   37.4877    7.0508   20.3198 C   0  0  0  0  0  0
   37.6801    5.5174   20.2062 C   0  0  0  0  0  0
   36.6783    7.3806   21.5890 C   0  0  0  0  0  0
   38.3059    4.8944   21.4679 C   0  0  0  0  0  0
   37.3128    6.7904   22.8732 C   0  0  0  0  0  0
   37.5342    5.2700   22.7485 C   0  0  0  0  0  0
   40.3830    6.6367   12.5856 H   0  0  0  0  0  0
   39.1944    7.7760   21.3360 H   0  0  0  0  0  0
   41.4643    7.8440   14.4177 H   0  0  0  0  0  0
   42.2779    8.0249   16.6398 H   0  0  0  0  0  0
   37.4800    5.7572   17.0742 H   0  0  0  0  0  0
   35.8779    4.4258   15.7055 H   0  0  0  0  0  0
   36.2689    4.1736   13.2781 H   0  0  0  0  0  0
   36.9607    7.4037   19.4331 H   0  0  0  0  0  0
   36.7117    5.0494   20.0200 H   0  0  0  0  0  0
   38.2930    5.2647   19.3397 H   0  0  0  0  0  0
   36.5633    8.4606   21.6966 H   0  0  0  0  0  0
   35.6668    6.9896   21.4725 H   0  0  0  0  0  0
   38.3303    3.8125   21.3569 H   0  0  0  0  0  0
   39.3464    5.2125   21.5571 H   0  0  0  0  0  0
   36.6778    7.0020   23.7349 H   0  0  0  0  0  0
   38.2654    7.2800   23.0832 H   0  0  0  0  0  0
   36.5670    4.7650   22.7468 H   0  0  0  0  0  0
   38.0706    4.8977   23.6233 H   0  0  0  0  0  0
  1 15  1  0  0  0
  2  9  2  0  0  0
  2 12  1  0  0  0
  3 10  1  0  0  0
  3 11  1  0  0  0
  3 24  1  0  0  0
  4 12  2  0  0  0
  4 15  1  0  0  0
  5 10  2  0  0  0
  5 17  1  0  0  0
  6 12  1  0  0  0
  6 18  1  0  0  0
  6 25  1  0  0  0
  7  8  1  0  0  0
  7  9  1  0  0  0
  7 11  2  0  0  0
  8 10  1  0  0  0
  8 14  2  0  0  0
  9 13  1  0  0  0
 11 26  1  0  0  0
 13 15  2  0  0  0
 13 27  1  0  0  0
 14 16  1  0  0  0
 14 28  1  0  0  0
 16 17  2  0  0  0
 16 29  1  0  0  0
 17 30  1  0  0  0
 18 19  1  0  0  0
 18 20  1  0  0  0
 18 31  1  0  0  0
 19 21  1  0  0  0
 19 32  1  0  0  0
 19 33  1  0  0  0
 20 22  1  0  0  0
 20 34  1  0  0  0
 20 35  1  0  0  0
 21 23  1  0  0  0
 21 36  1  0  0  0
 21 37  1  0  0  0
 22 23  1  0  0  0
 22 38  1  0  0  0
 22 39  1  0  0  0
 23 40  1  0  0  0
 23 41  1  0  0  0
M  END
> <s_m_entry_id>
7445

> <s_m_entry_name>
dock_pv.6

> <s_m_Source_Path>
/home/csk/Desktop/cluster/DUD-E-result/mapk2

> <s_m_Source_File>
dock_pv.maegz

> <i_m_Source_File_Index>
6

> <chembl_id>
CHEMBL2006439

> <chembl_pref_name>
None

> <i_lp_mmshare_version>
53161

> <i_f3d_flags>
0

> <r_lp_tautomer_probability>
0.999998420164496

> <s_lp_Force_Field>
OPLS_2005

> <r_lp_Energy>
4.270312

> <b_lp_Chiralities_Consistent>
1

> <s_lp_Variant>
CHEMBL2208_lig1282-1

> <s_i_glide_gridfile>
glide-grid_3m2w

> <i_i_glide_lignum>
1741

> <i_i_glide_rotatable_bonds>
3

> <r_i_docking_score>
-8.48569500228147

> <r_i_glide_ligand_efficiency>
-0.36894326096876

> <r_i_glide_ligand_efficiency_sa>
-1.0492255562112

> <r_i_glide_ligand_efficiency_ln>
-2.05191799557987

> <r_i_glide_gscore>
-8.48569500228147

> <r_i_glide_lipo>
-2.19691785546768

> <r_i_glide_hbond>
-0.578725269461166

> <r_i_glide_metal>
0

> <r_i_glide_rewards>
-3.27317735755974

> <r_i_glide_evdw>
-41.2816467285156

> <r_i_glide_ecoul>
-5.81085586547852

> <r_i_glide_erotb>
0.524097179591306

> <r_i_glide_esite>
-0.0252609831366296

> <r_i_glide_emodel>
-68.1174092920066

> <r_i_glide_energy>
-47.0925025939941

> <r_i_glide_einternal>
2.56079292297363

> <i_i_glide_confnum>
27

> <i_i_glide_posenum>
364

> <r_i_glide_eff_state_penalty>
0

> <s_user_duplicate_titles>
CHEMBL2208_lig1282

> <s_m_subgroup_title>
dock_pv

> <s_m_subgroupid>
dock_pv

> <b_m_subgroup_collapsed>
1

$$$$
CHEMBL2208_lig872
                    3D
 Schrodinger Suite 2021-1.
 43 46  0  0  1  0            999 V2000
   40.0921    6.6392   13.4971 N   0  0  0  0  0  0
   39.4436    6.9071   18.1386 N   0  0  0  0  0  0
   38.0803    5.3616   13.0731 N   0  0  0  0  0  0
   38.9602    6.8023   20.4749 N   0  0  0  0  0  0
   40.8160    8.0237   19.7775 N   0  0  0  0  0  0
   36.2781    7.5878   21.3431 N   0  0  0  0  0  0
   39.9347    6.9314   15.7505 C   0  0  0  0  0  0
   38.7862    6.1855   15.2870 C   0  0  0  0  0  0
   40.2800    7.3246   17.1533 C   0  0  0  0  0  0
   38.9279    6.0129   13.8770 C   0  0  0  0  0  0
   40.6612    7.2235   14.6013 C   0  0  0  0  0  0
   39.7570    7.2548   19.4174 C   0  0  0  0  0  0
   37.6384    5.6250   15.8790 C   0  0  0  0  0  0
   41.4179    8.0780   17.4482 C   0  0  0  0  0  0
   37.8045    5.9252   20.2642 C   0  0  2  0  0  0
   41.6377    8.4262   18.7779 C   0  0  0  0  0  0
   36.7389    4.9362   15.0638 C   0  0  0  0  0  0
   36.9987    4.8251   13.6991 C   0  0  0  0  0  0
   36.7337    6.2108   21.3452 C   0  0  2  0  0  0
   38.2719    4.4550   20.2845 C   0  0  0  0  0  0
   35.5532    5.2231   21.2193 C   0  0  0  0  0  0
   37.0782    3.4875   20.1569 C   0  0  0  0  0  0
   36.0105    3.7560   21.2332 C   0  0  0  0  0  0
   40.4896    6.7087   12.5659 H   0  0  0  0  0  0
   39.3567    6.8444   21.4034 H   0  0  0  0  0  0
   35.7108    7.7251   22.1708 H   0  0  0  0  0  0
   37.0829    8.1902   21.4398 H   0  0  0  0  0  0
   41.5671    7.7981   14.4813 H   0  0  0  0  0  0
   37.4549    5.7114   16.9388 H   0  0  0  0  0  0
   42.0950    8.3990   16.6741 H   0  0  0  0  0  0
   37.3676    6.1313   19.2871 H   0  0  0  0  0  0
   42.4838    9.0368   19.0562 H   0  0  0  0  0  0
   35.8501    4.4888   15.4882 H   0  0  0  0  0  0
   36.3035    4.2847   13.0693 H   0  0  0  0  0  0
   37.2055    6.0261   22.3128 H   0  0  0  0  0  0
   38.9813    4.2719   19.4770 H   0  0  0  0  0  0
   38.8092    4.2435   21.2115 H   0  0  0  0  0  0
   34.8278    5.3861   22.0199 H   0  0  0  0  0  0
   35.0333    5.4055   20.2765 H   0  0  0  0  0  0
   37.4251    2.4582   20.2557 H   0  0  0  0  0  0
   36.6362    3.5731   19.1650 H   0  0  0  0  0  0
   36.4139    3.5061   22.2161 H   0  0  0  0  0  0
   35.1591    3.0911   21.0816 H   0  0  0  0  0  0
  1 10  1  0  0  0
  1 11  1  0  0  0
  1 24  1  0  0  0
  2  9  2  0  0  0
  2 12  1  0  0  0
  3 10  2  0  0  0
  3 18  1  0  0  0
  4 12  1  0  0  0
  4 15  1  0  0  0
  4 25  1  0  0  0
  5 12  2  0  0  0
  5 16  1  0  0  0
  6 19  1  0  0  0
  6 26  1  0  0  0
  6 27  1  0  0  0
  7  8  1  0  0  0
  7  9  1  0  0  0
  7 11  2  0  0  0
  8 10  1  0  0  0
  8 13  2  0  0  0
  9 14  1  0  0  0
 11 28  1  0  0  0
 13 17  1  0  0  0
 13 29  1  0  0  0
 14 16  2  0  0  0
 14 30  1  0  0  0
 15 19  1  0  0  0
 15 20  1  0  0  0
 15 31  1  0  0  0
 16 32  1  0  0  0
 17 18  2  0  0  0
 17 33  1  0  0  0
 18 34  1  0  0  0
 19 21  1  0  0  0
 19 35  1  0  0  0
 20 22  1  0  0  0
 20 36  1  0  0  0
 20 37  1  0  0  0
 21 23  1  0  0  0
 21 38  1  0  0  0
 21 39  1  0  0  0
 22 23  1  0  0  0
 22 40  1  0  0  0
 22 41  1  0  0  0
 23 42  1  0  0  0
 23 43  1  0  0  0
M  END
> <s_m_entry_id>
7446

> <s_m_entry_name>
dock_pv.7

> <s_m_Source_Path>
/home/csk/Desktop/cluster/DUD-E-result/mapk2

> <s_m_Source_File>
dock_pv.maegz

> <i_m_Source_File_Index>
7

> <chembl_id>
CHEMBL1995813

> <chembl_pref_name>
None

> <i_lp_mmshare_version>
53161

> <i_f3d_flags>
0

> <r_lp_tautomer_probability>
0.999998420164496

> <s_lp_Force_Field>
OPLS_2005

> <r_lp_Energy>
10.857652

> <b_lp_Chiralities_Consistent>
1

> <s_lp_Variant>
CHEMBL2208_lig872-1

> <s_i_glide_gridfile>
glide-grid_3m2w

> <i_i_glide_lignum>
1110

> <i_i_glide_rotatable_bonds>
3

> <r_i_docking_score>
-8.4833151904193

> <r_i_glide_ligand_efficiency>
-0.368839790887796

> <r_i_glide_ligand_efficiency_sa>
-1.04893130106485

> <r_i_glide_ligand_efficiency_ln>
-2.05134253549265

> <r_i_glide_gscore>
-8.4833151904193

> <r_i_glide_lipo>
-1.88598202323394

> <r_i_glide_hbond>
-0.840407532366453

> <r_i_glide_metal>
0

> <r_i_glide_rewards>
-3.34304654061696

> <r_i_glide_evdw>
-39.6798934936523

> <r_i_glide_ecoul>
-6.42638349533081

> <r_i_glide_erotb>
0.583625750748594

> <r_i_glide_esite>
-0.0495526459683017

> <r_i_glide_emodel>
-68.8502108269382

> <r_i_glide_energy>
-46.1062769889832

> <r_i_glide_einternal>
1.77575218677521

> <i_i_glide_confnum>
2

> <i_i_glide_posenum>
116

> <r_i_glide_eff_state_penalty>
0

> <s_user_duplicate_titles>
CHEMBL2208_lig872

> <s_m_subgroup_title>
dock_pv

> <s_m_subgroupid>
dock_pv

> <b_m_subgroup_collapsed>
1

$$$$
CHEMBL2208_lig1287
                    3D
 Schrodinger Suite 2021-1.
 42 45  0  0  1  0            999 V2000
   42.8934    9.3518   19.0678 Cl  0  0  0  0  0  0
   34.7891    2.8244   21.1312 O   0  0  0  0  0  0
   39.2118    6.9577   18.1992 N   0  0  0  0  0  0
   40.1215    6.6478   13.6029 N   0  0  0  0  0  0
   41.2304    8.0555   17.4720 N   0  0  0  0  0  0
   38.1431    5.3663   13.0722 N   0  0  0  0  0  0
   38.6319    6.9410   20.5280 N   0  0  0  0  0  0
   39.8349    6.9415   15.8373 C   0  0  0  0  0  0
   38.7173    6.1916   15.3189 C   0  0  0  0  0  0
   40.1002    7.3436   17.2478 C   0  0  0  0  0  0
   38.9394    6.0216   13.9210 C   0  0  0  0  0  0
   40.6324    7.2255   14.7354 C   0  0  0  0  0  0
   39.4875    7.3234   19.4822 C   0  0  0  0  0  0
   37.5425    5.6252   15.8492 C   0  0  0  0  0  0
   41.4735    8.4266   18.7501 C   0  0  0  0  0  0
   40.6128    8.0882   19.7963 C   0  0  0  0  0  0
   37.5339    5.9944   20.3290 C   0  0  2  0  0  0
   36.6936    4.9337   14.9836 C   0  0  0  0  0  0
   37.0339    4.8253   13.6372 C   0  0  0  0  0  0
   36.5255    6.1757   21.4797 C   0  0  0  0  0  0
   38.0887    4.5526   20.3113 C   0  0  0  0  0  0
   35.8932    3.6853   21.3240 C   0  0  2  0  0  0
   35.3842    5.1386   21.4094 C   0  0  0  0  0  0
   36.9518    3.5120   20.2142 C   0  0  0  0  0  0
   35.0922    1.9071   21.0718 H   0  0  0  0  0  0
   40.5660    6.7161   12.6940 H   0  0  0  0  0  0
   39.0124    6.9960   21.4618 H   0  0  0  0  0  0
   41.5489    7.7957   14.6784 H   0  0  0  0  0  0
   37.3001    5.7086   16.8984 H   0  0  0  0  0  0
   40.8099    8.4075   20.8096 H   0  0  0  0  0  0
   37.0503    6.2034   19.3727 H   0  0  0  0  0  0
   35.7872    4.4772   15.3586 H   0  0  0  0  0  0
   36.3911    4.2722   12.9663 H   0  0  0  0  0  0
   37.0306    6.0819   22.4414 H   0  0  0  0  0  0
   36.1014    7.1811   21.4543 H   0  0  0  0  0  0
   38.7766    4.4205   19.4753 H   0  0  0  0  0  0
   38.6762    4.3634   21.2124 H   0  0  0  0  0  0
   36.3225    3.4220   22.2926 H   0  0  0  0  0  0
   34.7575    5.3489   20.5420 H   0  0  0  0  0  0
   34.7408    5.2442   22.2843 H   0  0  0  0  0  0
   36.4768    3.5829   19.2339 H   0  0  0  0  0  0
   37.3743    2.5089   20.2720 H   0  0  0  0  0  0
  1 15  1  0  0  0
  2 22  1  0  0  0
  2 25  1  0  0  0
  3 10  2  0  0  0
  3 13  1  0  0  0
  4 11  1  0  0  0
  4 12  1  0  0  0
  4 26  1  0  0  0
  5 10  1  0  0  0
  5 15  2  0  0  0
  6 11  2  0  0  0
  6 19  1  0  0  0
  7 13  1  0  0  0
  7 17  1  0  0  0
  7 27  1  0  0  0
  8  9  1  0  0  0
  8 10  1  0  0  0
  8 12  2  0  0  0
  9 11  1  0  0  0
  9 14  2  0  0  0
 12 28  1  0  0  0
 13 16  2  0  0  0
 14 18  1  0  0  0
 14 29  1  0  0  0
 15 16  1  0  0  0
 16 30  1  0  0  0
 17 20  1  0  0  0
 17 21  1  0  0  0
 17 31  1  0  0  0
 18 19  2  0  0  0
 18 32  1  0  0  0
 19 33  1  0  0  0
 20 23  1  0  0  0
 20 34  1  0  0  0
 20 35  1  0  0  0
 21 24  1  0  0  0
 21 36  1  0  0  0
 21 37  1  0  0  0
 22 23  1  0  0  0
 22 24  1  0  0  0
 22 38  1  0  0  0
 23 39  1  0  0  0
 23 40  1  0  0  0
 24 41  1  0  0  0
 24 42  1  0  0  0
M  END
> <s_m_entry_id>
7447

> <s_m_entry_name>
dock_pv.8

> <s_m_Source_Path>
/home/csk/Desktop/cluster/DUD-E-result/mapk2

> <s_m_Source_File>
dock_pv.maegz

> <i_m_Source_File_Index>
8

> <chembl_id>
CHEMBL1991674

> <chembl_pref_name>
None

> <i_lp_mmshare_version>
53161

> <i_f3d_flags>
0

> <r_lp_tautomer_probability>
0.999998015729938

> <s_lp_Force_Field>
OPLS_2005

> <r_lp_Energy>
6.694858

> <b_lp_Chiralities_Consistent>
1

> <s_lp_Variant>
CHEMBL2208_lig1287-1

> <s_i_glide_gridfile>
glide-grid_3m2w

> <i_i_glide_lignum>
1746

> <i_i_glide_rotatable_bonds>
4

> <r_i_docking_score>
-8.45293755336754

> <r_i_glide_ligand_efficiency>
-0.352205731390314

> <r_i_glide_ligand_efficiency_sa>
-1.01593712843874

> <r_i_glide_ligand_efficiency_ln>
-2.02317583655058

> <r_i_glide_gscore>
-8.45293755336754

> <r_i_glide_lipo>
-1.44564146576392

> <r_i_glide_hbond>
-0.678154021522704

> <r_i_glide_metal>
0

> <r_i_glide_rewards>
-3.4567387127377

> <r_i_glide_evdw>
-44.2382431030273

> <r_i_glide_ecoul>
-7.41924619674683

> <r_i_glide_erotb>
0.481693526222459

> <r_i_glide_esite>
-0.0292977949022817

> <r_i_glide_emodel>
-77.8408165469694

> <r_i_glide_energy>
-51.6574892997742

> <r_i_glide_einternal>
0.560217440128326

> <i_i_glide_confnum>
5

> <i_i_glide_posenum>
397

> <r_i_glide_eff_state_penalty>
0

> <s_user_duplicate_titles>
CHEMBL2208_lig1287

> <s_m_subgroup_title>
dock_pv

> <s_m_subgroupid>
dock_pv

> <b_m_subgroup_collapsed>
1

$$$$
CHEMBL2208_lig1380
                    3D
 Schrodinger Suite 2021-1.
 39 42  0  0  1  0            999 V2000
   43.0784    9.2250   19.0720 Cl  0  0  0  0  0  0
   40.0654    6.6392   13.5655 N   0  0  0  0  0  0
   38.0936    5.3735   13.0399 N   0  0  0  0  0  0
   40.6793    8.3455   19.7898 N   0  0  0  0  0  0
   38.6030    7.7316   20.6377 N   0  0  0  0  0  0
   39.7780    6.9588   15.8078 C   0  0  0  0  0  0
   38.6721    6.1774   15.2960 C   0  0  0  0  0  0
   40.0509    7.4223   17.2081 C   0  0  0  0  0  0
   38.8888    6.0159   13.8923 C   0  0  0  0  0  0
   40.5713    7.2265   14.6935 C   0  0  0  0  0  0
   39.1462    7.2822   18.2703 C   0  0  0  0  0  0
   41.2818    8.0249   17.4819 C   0  0  0  0  0  0
   39.4803    7.7674   19.5420 C   0  0  0  0  0  0
   37.5081    5.5731   15.8164 C   0  0  0  0  0  0
   41.5614    8.4670   18.7694 C   0  0  0  0  0  0
   36.6624    4.8922   14.9462 C   0  0  0  0  0  0
   36.9878    4.8251   13.5958 C   0  0  0  0  0  0
   37.1846    7.3888   20.5318 C   0  0  0  0  0  0
   36.9130    5.9155   20.7969 C   0  0  0  0  0  0
   37.2250    5.3619   22.0416 C   0  0  0  0  0  0
   36.2880    5.1325   19.8217 C   0  0  0  0  0  0
   36.9046    4.0357   22.3137 C   0  0  0  0  0  0
   35.9764    3.8017   20.0907 C   0  0  0  0  0  0
   36.2781    3.2615   21.3390 C   0  0  0  0  0  0
   40.5028    6.7088   12.6525 H   0  0  0  0  0  0
   38.9426    8.0774   21.5247 H   0  0  0  0  0  0
   41.4793    7.8030   14.6057 H   0  0  0  0  0  0
   38.1868    6.8343   18.1208 H   0  0  0  0  0  0
   42.0319    8.1403   16.7175 H   0  0  0  0  0  0
   37.2553    5.5984   16.8598 H   0  0  0  0  0  0
   35.7635    4.4188   15.3147 H   0  0  0  0  0  0
   36.3442    4.2844   12.9158 H   0  0  0  0  0  0
   36.7781    7.6654   19.5618 H   0  0  0  0  0  0
   36.6323    7.9744   21.2687 H   0  0  0  0  0  0
   37.7070    5.9602   22.8019 H   0  0  0  0  0  0
   36.0338    5.5498   18.8597 H   0  0  0  0  0  0
   37.1503    3.6145   23.2770 H   0  0  0  0  0  0
   35.4989    3.1889   19.3406 H   0  0  0  0  0  0
   36.0409    2.2268   21.5455 H   0  0  0  0  0  0
  1 15  1  0  0  0
  2  9  1  0  0  0
  2 10  1  0  0  0
  2 25  1  0  0  0
  3  9  2  0  0  0
  3 17  1  0  0  0
  4 13  2  0  0  0
  4 15  1  0  0  0
  5 13  1  0  0  0
  5 18  1  0  0  0
  5 26  1  0  0  0
  6  7  1  0  0  0
  6  8  1  0  0  0
  6 10  2  0  0  0
  7  9  1  0  0  0
  7 14  2  0  0  0
  8 11  2  0  0  0
  8 12  1  0  0  0
 10 27  1  0  0  0
 11 13  1  0  0  0
 11 28  1  0  0  0
 12 15  2  0  0  0
 12 29  1  0  0  0
 14 16  1  0  0  0
 14 30  1  0  0  0
 16 17  2  0  0  0
 16 31  1  0  0  0
 17 32  1  0  0  0
 18 19  1  0  0  0
 18 33  1  0  0  0
 18 34  1  0  0  0
 19 20  2  0  0  0
 19 21  1  0  0  0
 20 22  1  0  0  0
 20 35  1  0  0  0
 21 23  2  0  0  0
 21 36  1  0  0  0
 22 24  2  0  0  0
 22 37  1  0  0  0
 23 24  1  0  0  0
 23 38  1  0  0  0
 24 39  1  0  0  0
M  END
> <s_m_entry_id>
7448

> <s_m_entry_name>
dock_pv.9

> <s_m_Source_Path>
/home/csk/Desktop/cluster/DUD-E-result/mapk2

> <s_m_Source_File>
dock_pv.maegz

> <i_m_Source_File_Index>
9

> <chembl_id>
CHEMBL1969588

> <chembl_pref_name>
None

> <i_lp_mmshare_version>
53161

> <i_f3d_flags>
0

> <r_lp_tautomer_probability>
0.999998204729223

> <s_lp_Force_Field>
OPLS_2005

> <r_lp_Energy>
11.361185

> <b_lp_Chiralities_Consistent>
1

> <s_lp_Variant>
CHEMBL2208_lig1380-1

> <s_i_glide_gridfile>
glide-grid_3m2w

> <i_i_glide_lignum>
1889

> <i_i_glide_rotatable_bonds>
4

> <r_i_docking_score>
-8.44759592302903

> <r_i_glide_ligand_efficiency>
-0.351983163459543

> <r_i_glide_ligand_efficiency_sa>
-1.01529513143438

> <r_i_glide_ligand_efficiency_ln>
-2.02189733929913

> <r_i_glide_gscore>
-8.44759592302903

> <r_i_glide_lipo>
-2.24473386369313

> <r_i_glide_hbond>
-0.653952803446636

> <r_i_glide_metal>
0

> <r_i_glide_rewards>
-3.16258216399432

> <r_i_glide_evdw>
-42.0658836364746

> <r_i_glide_ecoul>
-6.19525241851807

> <r_i_glide_erotb>
0.673204063195951

> <r_i_glide_esite>
-0.0269491104894566

> <r_i_glide_emodel>
-70.5396128070485

> <r_i_glide_energy>
-48.2611360549927

> <r_i_glide_einternal>
4.79281330108643

> <i_i_glide_confnum>
71

> <i_i_glide_posenum>
275

> <r_i_glide_eff_state_penalty>
0

> <s_user_duplicate_titles>
CHEMBL2208_lig1380

> <s_m_subgroup_title>
dock_pv

> <s_m_subgroupid>
dock_pv

> <b_m_subgroup_collapsed>
1

$$$$
CHEMBL2208_lig1122
                    3D
 Schrodinger Suite 2021-1.
 39 42  0  0  1  0            999 V2000
   40.5536    8.0112   18.9084 O   0  0  0  0  0  0
   38.2335    8.4281   22.4533 O   0  0  0  0  0  0
   36.3917    4.8980   20.3049 O   0  0  0  0  0  0
   38.4209    6.1462   22.2174 N   0  0  0  0  0  0
   40.2973    8.1339   20.2719 N   0  0  0  0  0  0
   39.3989    6.0250   12.9369 N   0  0  0  0  0  0
   38.1968    5.4235   12.8389 N   0  0  0  0  0  0
   39.4782    7.4222   18.3289 C   0  0  0  0  0  0
   39.1046    7.6247   20.4834 C   0  0  0  0  0  0
   39.5281    7.1087   16.8864 C   0  0  0  0  0  0
   38.5380    7.4354   21.7852 C   0  0  0  0  0  0
   38.5186    7.2250   19.2893 C   0  0  0  0  0  0
   38.5131    6.0881   14.9635 C   0  0  0  0  0  0
   39.6283    6.5043   14.2016 C   0  0  0  0  0  0
   38.4633    6.3993   16.3231 C   0  0  0  0  0  0
   40.6141    7.5095   16.1061 C   0  0  0  0  0  0
   40.6734    7.2520   14.7390 C   0  0  0  0  0  0
   37.6708    5.4187   14.0325 C   0  0  0  0  0  0
   38.6169    4.9320   21.3769 C   0  0  0  0  0  0
   37.9272    5.8751   23.5763 C   0  0  0  0  0  0
   37.2529    4.2075   21.1918 C   0  0  1  0  0  0
   36.5258    5.2643   23.4127 C   0  0  0  0  0  0
   36.5574    3.9929   22.5509 C   0  0  0  0  0  0
   36.6908    4.7271   19.4095 H   0  0  0  0  0  0
   40.0006    6.1444   12.1291 H   0  0  0  0  0  0
   37.5402    6.7943   19.1579 H   0  0  0  0  0  0
   37.6160    6.0889   16.9157 H   0  0  0  0  0  0
   41.4335    8.0367   16.5689 H   0  0  0  0  0  0
   41.4779    7.6250   14.1264 H   0  0  0  0  0  0
   36.7113    4.9570   14.2159 H   0  0  0  0  0  0
   39.3025    4.2471   21.8720 H   0  0  0  0  0  0
   39.1439    5.1119   20.4423 H   0  0  0  0  0  0
   37.9742    6.7424   24.2381 H   0  0  0  0  0  0
   38.6093    5.1504   24.0247 H   0  0  0  0  0  0
   37.4295    3.2257   20.7488 H   0  0  0  0  0  0
   35.8781    6.0093   22.9536 H   0  0  0  0  0  0
   36.0981    5.0441   24.3909 H   0  0  0  0  0  0
   35.5475    3.6050   22.4096 H   0  0  0  0  0  0
   37.1061    3.2251   23.0916 H   0  0  0  0  0  0
  1  5  1  0  0  0
  1  8  1  0  0  0
  2 11  2  0  0  0
  3 21  1  0  0  0
  3 24  1  0  0  0
  4 11  1  0  0  0
  4 19  1  0  0  0
  4 20  1  0  0  0
  5  9  2  0  0  0
  6  7  1  0  0  0
  6 14  1  0  0  0
  6 25  1  0  0  0
  7 18  2  0  0  0
  8 10  1  0  0  0
  8 12  2  0  0  0
  9 11  1  0  0  0
  9 12  1  0  0  0
 10 15  1  0  0  0
 10 16  2  0  0  0
 12 26  1  0  0  0
 13 14  1  0  0  0
 13 15  2  0  0  0
 13 18  1  0  0  0
 14 17  2  0  0  0
 15 27  1  0  0  0
 16 17  1  0  0  0
 16 28  1  0  0  0
 17 29  1  0  0  0
 18 30  1  0  0  0
 19 21  1  0  0  0
 19 31  1  0  0  0
 19 32  1  0  0  0
 20 22  1  0  0  0
 20 33  1  0  0  0
 20 34  1  0  0  0
 21 23  1  0  0  0
 21 35  1  0  0  0
 22 23  1  0  0  0
 22 36  1  0  0  0
 22 37  1  0  0  0
 23 38  1  0  0  0
 23 39  1  0  0  0
M  END
> <s_m_entry_id>
7449

> <s_m_entry_name>
dock_pv.10

> <s_m_Source_Path>
/home/csk/Desktop/cluster/DUD-E-result/mapk2

> <s_m_Source_File>
dock_pv.maegz

> <i_m_Source_File_Index>
10

> <chembl_id>
CHEMBL1997340

> <chembl_pref_name>
None

> <i_lp_mmshare_version>
53161

> <i_f3d_flags>
0

> <r_lp_tautomer_probability>
0.980392156862745

> <s_lp_Force_Field>
OPLS_2005

> <r_lp_Energy>
32.990028

> <b_lp_Chiralities_Consistent>
1

> <s_lp_Variant>
CHEMBL2208_lig1122-2

> <s_i_glide_gridfile>
glide-grid_3m2w

> <i_i_glide_lignum>
1496

> <i_i_glide_rotatable_bonds>
4

> <r_i_docking_score>
-8.37768421552104

> <r_i_glide_ligand_efficiency>
-0.364247139805263

> <r_i_glide_ligand_efficiency_sa>
-1.03587041231491

> <r_i_glide_ligand_efficiency_ln>
-2.02580000795353

> <r_i_glide_gscore>
-8.37768421552104

> <r_i_glide_lipo>
-2.2633898306053

> <r_i_glide_hbond>
-0.608

> <r_i_glide_metal>
0

> <r_i_glide_rewards>
-2.89567625522954

> <r_i_glide_evdw>
-36.7495079040527

> <r_i_glide_ecoul>
-7.72490882873535

> <r_i_glide_erotb>
0.570749084962497

> <r_i_glide_esite>
-0.185155495135756

> <r_i_glide_emodel>
-64.7784036709866

> <r_i_glide_energy>
-44.4744167327881

> <r_i_glide_einternal>
4.54541778564453

> <i_i_glide_confnum>
22

> <i_i_glide_posenum>
262

> <r_i_glide_eff_state_penalty>
0

> <s_user_duplicate_titles>
CHEMBL2208_lig1122,CHEMBL2208_lig1122

> <s_m_subgroup_title>
dock_pv

> <s_m_subgroupid>
dock_pv

> <b_m_subgroup_collapsed>
1

$$$$
CHEMBL2208_lig1106
                    3D
 Schrodinger Suite 2021-1.
 39 42  0  0  1  0            999 V2000
   37.1371    6.6155   19.4597 C   0  0  0  0  0  0
   38.5291    7.2250   19.4959 C   0  0  0  0  0  0
   39.5323    7.4258   18.5303 C   0  0  0  0  0  0
   40.5609    8.0492   19.0828 N   0  0  0  0  0  0
   40.2780    8.2880   20.4014 N   0  0  0  0  0  0
   39.0841    7.7474   20.6422 N   0  0  0  0  0  0
   38.5100    7.8912   21.9745 C   0  0  0  0  0  0
   38.0504    9.3143   22.2720 C   0  0  0  0  0  0
   37.0436    9.8952   21.4933 C   0  0  0  0  0  0
   36.6780   11.2250   21.6982 C   0  0  0  0  0  0
   37.3388   11.9792   22.6720 C   0  0  0  0  0  0
   38.3243   11.3982   23.4720 C   0  0  0  0  0  0
   38.6780   10.0621   23.2753 C   0  0  0  0  0  0
   39.5602    7.0761   17.0741 C   0  0  0  0  0  0
   40.5401    7.6250   16.2328 C   0  0  0  0  0  0
   40.6046    7.3497   14.8681 C   0  0  0  0  0  0
   39.6242    6.5006   14.3600 C   0  0  0  0  0  0
   39.3826    6.0250   13.0919 N   0  0  0  0  0  0
   38.2780    5.2501   13.0569 N   0  0  0  0  0  0
   37.8150    5.1740   14.2723 C   0  0  0  0  0  0
   36.7047    4.4525   14.6048 N   0  0  0  0  0  0
   38.6137    5.9354   15.1728 C   0  0  0  0  0  0
   38.6052    6.2042   16.5439 C   0  0  0  0  0  0
   36.6261    6.8250   18.5219 H   0  0  0  0  0  0
   37.1739    5.5322   19.5782 H   0  0  0  0  0  0
   36.4761    6.9987   20.2357 H   0  0  0  0  0  0
   37.6894    7.1867   22.1043 H   0  0  0  0  0  0
   39.2780    7.5683   22.6720 H   0  0  0  0  0  0
   36.5549    9.3176   20.7234 H   0  0  0  0  0  0
   35.9044   11.6736   21.0918 H   0  0  0  0  0  0
   37.0780   13.0175   22.8143 H   0  0  0  0  0  0
   38.8292   11.9786   24.2295 H   0  0  0  0  0  0
   39.4607    9.6250   23.8811 H   0  0  0  0  0  0
   41.2802    8.2980   16.6413 H   0  0  0  0  0  0
   41.3675    7.7884   14.2413 H   0  0  0  0  0  0
   39.9251    6.2155   12.2572 H   0  0  0  0  0  0
   36.0446    4.8008   15.2871 H   0  0  0  0  0  0
   36.3231    3.8044   13.9297 H   0  0  0  0  0  0
   37.8640    5.7288   17.1620 H   0  0  0  0  0  0
  1  2  1  0  0  0
  1 24  1  0  0  0
  1 25  1  0  0  0
  1 26  1  0  0  0
  2  3  2  0  0  0
  2  6  1  0  0  0
  3  4  1  0  0  0
  3 14  1  0  0  0
  4  5  2  0  0  0
  5  6  1  0  0  0
  6  7  1  0  0  0
  7  8  1  0  0  0
  7 27  1  0  0  0
  7 28  1  0  0  0
  8  9  2  0  0  0
  8 13  1  0  0  0
  9 10  1  0  0  0
  9 29  1  0  0  0
 10 11  2  0  0  0
 10 30  1  0  0  0
 11 12  1  0  0  0
 11 31  1  0  0  0
 12 13  2  0  0  0
 12 32  1  0  0  0
 13 33  1  0  0  0
 14 15  2  0  0  0
 14 23  1  0  0  0
 15 16  1  0  0  0
 15 34  1  0  0  0
 16 17  2  0  0  0
 16 35  1  0  0  0
 17 18  1  0  0  0
 17 22  1  0  0  0
 18 19  1  0  0  0
 18 36  1  0  0  0
 19 20  2  0  0  0
 20 21  1  0  0  0
 20 22  1  0  0  0
 21 37  1  0  0  0
 21 38  1  0  0  0
 22 23  2  0  0  0
 23 39  1  0  0  0
M  END
> <s_m_entry_id>
7450

> <s_m_entry_name>
dock_pv.11

> <s_m_Source_Path>
/home/csk/Desktop/cluster/DUD-E-result/mapk2

> <s_m_Source_File>
dock_pv.maegz

> <i_m_Source_File_Index>
11

> <chembl_id>
CHEMBL1989646

> <chembl_pref_name>
None

> <i_lp_mmshare_version>
53161

> <i_f3d_flags>
0

> <r_lp_tautomer_probability>
1

> <s_lp_Force_Field>
OPLS_2005

> <r_lp_Energy>
13.663844

> <b_lp_Chiralities_Consistent>
1

> <s_lp_Variant>
CHEMBL2208_lig1106-1

> <s_i_glide_gridfile>
glide-grid_3m2w

> <i_i_glide_lignum>
1469

> <i_i_glide_rotatable_bonds>
3

> <r_i_docking_score>
-8.35245623642994

> <r_i_glide_ligand_efficiency>
-0.363150271149128

> <r_i_glide_ligand_efficiency_sa>
-1.03275106376575

> <r_i_glide_ligand_efficiency_ln>
-2.01969965385463

> <r_i_glide_gscore>
-8.35245623642994

> <r_i_glide_lipo>
-3.23059096494878

> <r_i_glide_hbond>
-0.532228262627577

> <r_i_glide_metal>
0

> <r_i_glide_rewards>
-2.14716916216146

> <r_i_glide_evdw>
-36.9982414245605

> <r_i_glide_ecoul>
-7.00669765472412

> <r_i_glide_erotb>
0.597253545325954

> <r_i_glide_esite>
-0.138804672581424

> <r_i_glide_emodel>
-65.6977059211907

> <r_i_glide_energy>
-44.0049390792847

> <r_i_glide_einternal>
0.538023293018341

> <i_i_glide_confnum>
1

> <i_i_glide_posenum>
400

> <r_i_glide_eff_state_penalty>
0

> <s_user_duplicate_titles>
CHEMBL2208_lig1106

> <s_m_subgroup_title>
dock_pv

> <s_m_subgroupid>
dock_pv

> <b_m_subgroup_collapsed>
1

$$$$
CHEMBL2208_lig1575
                    3D
 Schrodinger Suite 2021-1.
 63 67  0  0  1  0            999 V2000
   36.7211    4.9575   14.9603 C   0  0  0  0  0  0
   37.0780    4.8760   13.6140 C   0  0  0  0  0  0
   38.2031    5.4114   13.0741 N   0  0  0  0  0  0
   37.5623    5.6241   15.8526 C   0  0  0  0  0  0
   38.7487    6.1904   15.3502 C   0  0  0  0  0  0
   38.9930    6.0391   13.9517 C   0  0  0  0  0  0
   40.1830    6.6688   13.6683 N   0  0  0  0  0  0
   40.6755    7.2275   14.8215 C   0  0  0  0  0  0
   39.8565    6.9334   15.9011 C   0  0  0  0  0  0
   40.1083    7.3237   17.2865 C   0  0  0  0  0  0
   39.4239    6.7873   18.2843 N   0  0  0  0  0  0
   39.8101    7.2458   19.4524 C   0  0  0  0  0  0
   41.0759    8.4199   19.4097 S   0  0  0  0  0  0
   41.0694    8.2547   17.6858 C   0  0  0  0  0  0
   39.2835    6.8697   20.6722 N   0  0  0  0  0  0
   37.9910    7.0593   21.0017 C   0  0  0  0  0  0
   37.5529    6.5504   22.3859 C   0  0  0  0  0  0
   37.1712    7.6245   20.2731 O   0  0  0  0  0  0
   36.5813    5.3595   22.4000 C   0  0  0  0  0  0
   36.3996    4.6727   23.6049 C   0  0  0  0  0  0
   35.4833    3.6257   23.6974 C   0  0  0  0  0  0
   34.7407    3.2447   22.5819 C   0  0  0  0  0  0
   34.9041    3.9183   21.3617 C   0  0  0  0  0  0
   35.8123    4.9740   21.2903 C   0  0  0  0  0  0
   34.2229    3.6256   20.1982 O   0  0  0  0  0  0
   33.3622    2.4937   20.1506 C   0  0  0  0  0  0
   33.0972    2.1501   18.6781 C   0  0  0  0  0  0
   34.3581    1.6340   17.9541 C   0  0  0  0  0  0
   34.1942    1.4142   16.4335 C   0  0  0  0  0  0
   35.5129    0.9541   15.7895 C   0  0  0  0  0  0
   35.3846    0.8274   14.2584 C   0  0  0  0  0  0
   34.2783   -0.0564   13.8712 N   0  0  1  0  0  0
   32.9965    0.2396   14.5224 C   0  0  0  0  0  0
   33.1410    0.3563   16.0545 C   0  0  0  0  0  0
   35.8037    4.5046   15.3122 H   0  0  0  0  0  0
   36.4389    4.3421   12.9241 H   0  0  0  0  0  0
   37.3059    5.6976   16.8992 H   0  0  0  0  0  0
   40.6426    6.7535   12.7686 H   0  0  0  0  0  0
   41.5956    7.7905   14.7869 H   0  0  0  0  0  0
   41.7495    8.8233   17.0728 H   0  0  0  0  0  0
   39.9127    6.4840   21.3659 H   0  0  0  0  0  0
   38.4293    6.2969   22.9881 H   0  0  0  0  0  0
   37.0668    7.3790   22.9034 H   0  0  0  0  0  0
   36.9644    4.9573   24.4802 H   0  0  0  0  0  0
   35.3584    3.1031   24.6340 H   0  0  0  0  0  0
   34.0468    2.4238   22.6837 H   0  0  0  0  0  0
   35.9094    5.4793   20.3424 H   0  0  0  0  0  0
   33.8046    1.6247   20.6368 H   0  0  0  0  0  0
   32.4298    2.7252   20.6670 H   0  0  0  0  0  0
   32.3124    1.3947   18.6365 H   0  0  0  0  0  0
   32.7075    3.0322   18.1679 H   0  0  0  0  0  0
   35.1670    2.3496   18.1104 H   0  0  0  0  0  0
   34.6886    0.7077   18.4270 H   0  0  0  0  0  0
   33.9091    2.3625   15.9733 H   0  0  0  0  0  0
   36.2899    1.6813   16.0229 H   0  0  0  0  0  0
   35.8791    0.0259   16.2302 H   0  0  0  0  0  0
   35.2313    1.8099   13.8093 H   0  0  0  0  0  0
   36.3092    0.4262   13.8436 H   0  0  0  0  0  0
   34.1671   -0.0623   12.8659 H   0  0  0  0  0  0
   32.6028    1.1718   14.1118 H   0  0  0  0  0  0
   32.2834   -0.5468   14.2740 H   0  0  0  0  0  0
   33.3661   -0.6144   16.4983 H   0  0  0  0  0  0
   32.1761    0.6237   16.4852 H   0  0  0  0  0  0
  1  2  2  0  0  0
  1  4  1  0  0  0
  1 35  1  0  0  0
  2  3  1  0  0  0
  2 36  1  0  0  0
  3  6  2  0  0  0
  4  5  2  0  0  0
  4 37  1  0  0  0
  5  6  1  0  0  0
  5  9  1  0  0  0
  6  7  1  0  0  0
  7  8  1  0  0  0
  7 38  1  0  0  0
  8  9  2  0  0  0
  8 39  1  0  0  0
  9 10  1  0  0  0
 10 11  1  0  0  0
 10 14  2  0  0  0
 11 12  2  0  0  0
 12 13  1  0  0  0
 12 15  1  0  0  0
 13 14  1  0  0  0
 14 40  1  0  0  0
 15 16  1  0  0  0
 15 41  1  0  0  0
 16 17  1  0  0  0
 16 18  2  0  0  0
 17 19  1  0  0  0
 17 42  1  0  0  0
 17 43  1  0  0  0
 19 20  2  0  0  0
 19 24  1  0  0  0
 20 21  1  0  0  0
 20 44  1  0  0  0
 21 22  2  0  0  0
 21 45  1  0  0  0
 22 23  1  0  0  0
 22 46  1  0  0  0
 23 24  2  0  0  0
 23 25  1  0  0  0
 24 47  1  0  0  0
 25 26  1  0  0  0
 26 27  1  0  0  0
 26 48  1  0  0  0
 26 49  1  0  0  0
 27 28  1  0  0  0
 27 50  1  0  0  0
 27 51  1  0  0  0
 28 29  1  0  0  0
 28 52  1  0  0  0
 28 53  1  0  0  0
 29 30  1  0  0  0
 29 34  1  0  0  0
 29 54  1  0  0  0
 30 31  1  0  0  0
 30 55  1  0  0  0
 30 56  1  0  0  0
 31 32  1  0  0  0
 31 57  1  0  0  0
 31 58  1  0  0  0
 32 33  1  0  0  0
 32 59  1  0  0  0
 33 34  1  0  0  0
 33 60  1  0  0  0
 33 61  1  0  0  0
 34 62  1  0  0  0
 34 63  1  0  0  0
M  END
> <s_m_entry_id>
7451

> <s_m_entry_name>
dock_pv.12

> <s_m_Source_Path>
/home/csk/Desktop/cluster/DUD-E-result/mapk2

> <s_m_Source_File>
dock_pv.maegz

> <i_m_Source_File_Index>
12

> <chembl_id>
CHEMBL4245242

> <chembl_pref_name>
None

> <i_lp_mmshare_version>
53161

> <i_f3d_flags>
0

> <r_lp_tautomer_probability>
0.998998924059464

> <s_lp_Force_Field>
OPLS_2005

> <r_lp_Energy>
25.741433

> <b_lp_Chiralities_Consistent>
1

> <s_lp_Variant>
CHEMBL2208_lig1575-1

> <s_i_glide_gridfile>
glide-grid_3m2w

> <i_i_glide_lignum>
2197

> <i_i_glide_rotatable_bonds>
10

> <r_i_docking_score>
-8.32968038539947

> <r_i_glide_ligand_efficiency>
-0.244990599570573

> <r_i_glide_ligand_efficiency_sa>
-0.793674436637946

> <r_i_glide_ligand_efficiency_ln>
-1.84026003675565

> <r_i_glide_gscore>
-8.32968038539947

> <r_i_glide_lipo>
-2.36077641092827

> <r_i_glide_hbond>
-0.599839805600984

> <r_i_glide_metal>
0

> <r_i_glide_rewards>
-2.20778407935735

> <r_i_glide_evdw>
-51.9389839172363

> <r_i_glide_ecoul>
-8.72879123687744

> <r_i_glide_erotb>
0.805442773418703

> <r_i_glide_esite>
-0.0604549815381406

> <r_i_glide_emodel>
-84.8335290680547

> <r_i_glide_energy>
-60.6677751541138

> <r_i_glide_einternal>
10.2533006668091

> <i_i_glide_confnum>
3

> <i_i_glide_posenum>
189

> <r_i_glide_eff_state_penalty>
0

> <s_user_duplicate_titles>
CHEMBL2208_lig1575

> <s_m_subgroup_title>
dock_pv

> <s_m_subgroupid>
dock_pv

> <b_m_subgroup_collapsed>
1

$$$$
CHEMBL2208_lig934
                    3D
 Schrodinger Suite 2021-1.
 42 45  0  0  1  0            999 V2000
   40.5745    7.9591   18.6960 O   0  0  0  0  0  0
   38.4782    8.6441   22.2945 O   0  0  0  0  0  0
   35.8406    6.0047   20.6722 O   0  0  0  0  0  0
   38.4308    6.3442   22.1833 N   0  0  0  0  0  0
   40.3853    8.1337   20.0659 N   0  0  0  0  0  0
   39.0363    5.9203   12.8401 N   0  0  0  0  0  0
   37.8782    5.2251   12.8329 N   0  0  0  0  0  0
   35.4507    3.9688   19.8731 N   0  0  0  0  0  0
   39.4572    7.3819   18.1866 C   0  0  0  0  0  0
   39.1869    7.6685   20.3456 C   0  0  0  0  0  0
   39.4118    7.0457   16.7520 C   0  0  0  0  0  0
   38.6531    7.5918   21.6735 C   0  0  0  0  0  0
   38.5467    7.2250   19.1946 C   0  0  0  0  0  0
   38.3044    5.9530   14.9234 C   0  0  0  0  0  0
   39.3344    6.4170   14.0793 C   0  0  0  0  0  0
   38.3415    6.2773   16.2805 C   0  0  0  0  0  0
   40.4122    7.4922   15.8896 C   0  0  0  0  0  0
   40.3819    7.2147   14.5265 C   0  0  0  0  0  0
   38.5878    5.0680   21.4237 C   0  0  0  0  0  0
   37.2845    4.2149   21.4927 C   0  0  1  0  0  0
   37.4349    5.2236   14.0608 C   0  0  0  0  0  0
   38.0753    6.2014   23.6112 C   0  0  0  0  0  0
   36.8230    4.0737   22.9618 C   0  0  0  0  0  0
   36.7532    5.4148   23.7110 C   0  0  0  0  0  0
   36.1296    4.8114   20.6501 C   0  0  0  0  0  0
   39.5842    6.0511   12.0010 H   0  0  0  0  0  0
   35.6429    2.9778   19.9015 H   0  0  0  0  0  0
   34.7043    4.3178   19.2924 H   0  0  0  0  0  0
   37.5563    6.8081   19.1153 H   0  0  0  0  0  0
   37.5610    5.9306   16.9410 H   0  0  0  0  0  0
   41.2312    8.0688   16.2849 H   0  0  0  0  0  0
   41.1262    7.5974   13.8483 H   0  0  0  0  0  0
   39.3954    4.4936   21.8722 H   0  0  0  0  0  0
   38.9289    5.1701   20.3980 H   0  0  0  0  0  0
   37.4775    3.2250   21.0822 H   0  0  0  0  0  0
   36.5207    4.7095   14.3200 H   0  0  0  0  0  0
   38.0117    7.1532   24.1421 H   0  0  0  0  0  0
   38.8787    5.6315   24.0816 H   0  0  0  0  0  0
   35.9108    3.4795   23.0416 H   0  0  0  0  0  0
   37.5388    3.4180   23.4586 H   0  0  0  0  0  0
   35.9418    6.0234   23.3155 H   0  0  0  0  0  0
   36.5067    5.2446   24.7589 H   0  0  0  0  0  0
  1  5  1  0  0  0
  1  9  1  0  0  0
  2 12  2  0  0  0
  3 25  2  0  0  0
  4 12  1  0  0  0
  4 19  1  0  0  0
  4 22  1  0  0  0
  5 10  2  0  0  0
  6  7  1  0  0  0
  6 15  1  0  0  0
  6 26  1  0  0  0
  7 21  2  0  0  0
  8 25  1  0  0  0
  8 27  1  0  0  0
  8 28  1  0  0  0
  9 11  1  0  0  0
  9 13  2  0  0  0
 10 12  1  0  0  0
 10 13  1  0  0  0
 11 16  1  0  0  0
 11 17  2  0  0  0
 13 29  1  0  0  0
 14 15  1  0  0  0
 14 16  2  0  0  0
 14 21  1  0  0  0
 15 18  2  0  0  0
 16 30  1  0  0  0
 17 18  1  0  0  0
 17 31  1  0  0  0
 18 32  1  0  0  0
 19 20  1  0  0  0
 19 33  1  0  0  0
 19 34  1  0  0  0
 20 23  1  0  0  0
 20 25  1  0  0  0
 20 35  1  0  0  0
 21 36  1  0  0  0
 22 24  1  0  0  0
 22 37  1  0  0  0
 22 38  1  0  0  0
 23 24  1  0  0  0
 23 39  1  0  0  0
 23 40  1  0  0  0
 24 41  1  0  0  0
 24 42  1  0  0  0
M  END
> <s_m_entry_id>
7452

> <s_m_entry_name>
dock_pv.13

> <s_m_Source_Path>
/home/csk/Desktop/cluster/DUD-E-result/mapk2

> <s_m_Source_File>
dock_pv.maegz

> <i_m_Source_File_Index>
13

> <chembl_id>
CHEMBL1970369

> <chembl_pref_name>
None

> <i_lp_mmshare_version>
53161

> <i_f3d_flags>
0

> <r_lp_tautomer_probability>
0.980392156862745

> <s_lp_Force_Field>
OPLS_2005

> <r_lp_Energy>
32.602078

> <b_lp_Chiralities_Consistent>
1

> <s_lp_Variant>
CHEMBL2208_lig934-2

> <s_i_glide_gridfile>
glide-grid_3m2w

> <i_i_glide_lignum>
1202

> <i_i_glide_rotatable_bonds>
4

> <r_i_docking_score>
-8.25525410643987

> <r_i_glide_ligand_efficiency>
-0.330210164257595

> <r_i_glide_ligand_efficiency_sa>
-0.965540376591406

> <r_i_glide_ligand_efficiency_ln>
-1.95674261322867

> <r_i_glide_gscore>
-8.25525410643987

> <r_i_glide_lipo>
-2.22195775740454

> <r_i_glide_hbond>
-0.413048066678636

> <r_i_glide_metal>
0

> <r_i_glide_rewards>
-2.71841872936645

> <r_i_glide_evdw>
-39.5392608642578

> <r_i_glide_ecoul>
-8.07958602905273

> <r_i_glide_erotb>
0.49298315032708

> <r_i_glide_esite>
-0.205911755746518

> <r_i_glide_emodel>
-68.9201551569807

> <r_i_glide_energy>
-47.6188468933105

> <r_i_glide_einternal>
4.76260185241699

> <i_i_glide_confnum>
11

> <i_i_glide_posenum>
301

> <r_i_glide_eff_state_penalty>
0

> <s_user_duplicate_titles>
CHEMBL2208_lig934,CHEMBL2208_lig934

> <s_m_subgroup_title>
dock_pv

> <s_m_subgroupid>
dock_pv

> <b_m_subgroup_collapsed>
1

$$$$
CHEMBL2208_lig1342
                    3D
 Schrodinger Suite 2021-1.
 49 52  0  0  1  0            999 V2000
   33.0160    1.6254   25.5259 Cl  0  0  0  0  0  0
   37.8058    5.8337   21.6739 O   0  0  0  0  0  0
   39.4448    6.0250   13.0809 N   0  0  0  0  0  0
   38.2717    5.3866   12.9118 N   0  0  0  0  0  0
   39.4816    8.8250   20.3090 N   0  0  0  0  0  0
   37.8780    4.0251   23.8706 N   0  0  0  0  0  0
   38.4968    5.8993   15.0835 C   0  0  0  0  0  0
   39.6267    6.3962   14.3923 C   0  0  0  0  0  0
   39.3886    6.8352   17.1225 C   0  0  0  0  0  0
   38.3857    6.1176   16.4613 C   0  0  0  0  0  0
   37.7047    5.2620   14.0836 C   0  0  0  0  0  0
   39.2363    7.1718   18.5609 C   0  0  0  0  0  0
   40.6392    7.1087   15.0296 C   0  0  0  0  0  0
   40.4994    7.2976   16.4023 C   0  0  0  0  0  0
   38.6396    6.3026   19.4888 C   0  0  0  0  0  0
   38.4444    6.7018   20.8152 C   0  0  0  0  0  0
   39.6385    8.4243   19.0312 C   0  0  0  0  0  0
   38.8970    7.9767   21.1792 C   0  0  0  0  0  0
   36.3876    4.5360   14.2448 C   0  0  0  0  0  0
   37.5714    6.2608   23.0174 C   0  0  0  0  0  0
   36.9235    5.1171   23.8090 C   0  0  2  0  0  0
   35.7380    4.5237   26.0729 C   0  0  0  0  0  0
   36.5135    5.5475   25.2400 C   0  0  0  0  0  0
   34.8399    3.6234   25.4832 C   0  0  0  0  0  0
   34.1192    2.7238   26.2693 C   0  0  0  0  0  0
   35.8921    4.5133   27.4640 C   0  0  0  0  0  0
   34.2839    2.7182   27.6540 C   0  0  0  0  0  0
   35.1712    3.6140   28.2511 C   0  0  0  0  0  0
   40.0577    6.2221   12.2976 H   0  0  0  0  0  0
   38.0748    3.7063   22.9292 H   0  0  0  0  0  0
   38.7706    4.3698   24.2065 H   0  0  0  0  0  0
   37.5135    5.7650   16.9921 H   0  0  0  0  0  0
   41.4780    7.5177   14.4890 H   0  0  0  0  0  0
   41.2751    7.8506   16.9120 H   0  0  0  0  0  0
   38.3064    5.3212   19.1854 H   0  0  0  0  0  0
   40.0694    9.1564   18.3650 H   0  0  0  0  0  0
   38.8001    8.3562   22.1851 H   0  0  0  0  0  0
   36.4674    3.7327   14.9770 H   0  0  0  0  0  0
   35.5999    5.2059   14.5905 H   0  0  0  0  0  0
   36.0404    4.0778   13.3174 H   0  0  0  0  0  0
   36.9063    7.1268   23.0129 H   0  0  0  0  0  0
   38.5069    6.5582   23.4982 H   0  0  0  0  0  0
   36.0448    4.7857   23.2551 H   0  0  0  0  0  0
   35.8809    6.4321   25.1791 H   0  0  0  0  0  0
   37.4077    5.8552   25.7853 H   0  0  0  0  0  0
   34.6872    3.6136   24.4153 H   0  0  0  0  0  0
   36.5688    5.2066   27.9402 H   0  0  0  0  0  0
   33.7285    2.0211   28.2652 H   0  0  0  0  0  0
   35.3012    3.6055   29.3234 H   0  0  0  0  0  0
  1 25  1  0  0  0
  2 16  1  0  0  0
  2 20  1  0  0  0
  3  4  1  0  0  0
  3  8  1  0  0  0
  3 29  1  0  0  0
  4 11  2  0  0  0
  5 17  1  0  0  0
  5 18  2  0  0  0
  6 21  1  0  0  0
  6 30  1  0  0  0
  6 31  1  0  0  0
  7  8  1  0  0  0
  7 10  2  0  0  0
  7 11  1  0  0  0
  8 13  2  0  0  0
  9 10  1  0  0  0
  9 12  1  0  0  0
  9 14  2  0  0  0
 10 32  1  0  0  0
 11 19  1  0  0  0
 12 15  1  0  0  0
 12 17  2  0  0  0
 13 14  1  0  0  0
 13 33  1  0  0  0
 14 34  1  0  0  0
 15 16  2  0  0  0
 15 35  1  0  0  0
 16 18  1  0  0  0
 17 36  1  0  0  0
 18 37  1  0  0  0
 19 38  1  0  0  0
 19 39  1  0  0  0
 19 40  1  0  0  0
 20 21  1  0  0  0
 20 41  1  0  0  0
 20 42  1  0  0  0
 21 23  1  0  0  0
 21 43  1  0  0  0
 22 23  1  0  0  0
 22 24  1  0  0  0
 22 26  2  0  0  0
 23 44  1  0  0  0
 23 45  1  0  0  0
 24 25  2  0  0  0
 24 46  1  0  0  0
 25 27  1  0  0  0
 26 28  1  0  0  0
 26 47  1  0  0  0
 27 28  2  0  0  0
 27 48  1  0  0  0
 28 49  1  0  0  0
M  END
> <s_m_entry_id>
7453

> <s_m_entry_name>
dock_pv.14

> <s_m_Source_Path>
/home/csk/Desktop/cluster/DUD-E-result/mapk2

> <s_m_Source_File>
dock_pv.maegz

> <i_m_Source_File_Index>
14

> <chembl_id>
CHEMBL1974870

> <chembl_pref_name>
None

> <i_lp_mmshare_version>
53161

> <i_f3d_flags>
0

> <r_lp_tautomer_probability>
0.980392156862745

> <s_lp_Force_Field>
OPLS_2005

> <r_lp_Energy>
24.572435

> <b_lp_Chiralities_Consistent>
1

> <s_lp_Variant>
CHEMBL2208_lig1342-1

> <s_i_glide_gridfile>
glide-grid_3m2w

> <i_i_glide_lignum>
1823

> <i_i_glide_rotatable_bonds>
6

> <r_i_docking_score>
-8.24790085744491

> <r_i_glide_ligand_efficiency>
-0.29456788776589

> <r_i_glide_ligand_efficiency_sa>
-0.894481598465076

> <r_i_glide_ligand_efficiency_ln>
-1.90385768679035

> <r_i_glide_gscore>
-8.24790085744491

> <r_i_glide_lipo>
-2.80449258611304

> <r_i_glide_hbond>
-0.695330300328563

> <r_i_glide_metal>
0

> <r_i_glide_rewards>
-2.33366996119181

> <r_i_glide_evdw>
-39.6713523864746

> <r_i_glide_ecoul>
-7.08963871002197

> <r_i_glide_erotb>
0.632605416015526

> <r_i_glide_esite>
0

> <r_i_glide_emodel>
-69.7992158552782

> <r_i_glide_energy>
-46.7609910964966

> <r_i_glide_einternal>
2.32672357559204

> <i_i_glide_confnum>
48

> <i_i_glide_posenum>
73

> <r_i_glide_eff_state_penalty>
0

> <s_user_duplicate_titles>
CHEMBL2208_lig1342,CHEMBL2208_lig1342

> <s_m_subgroup_title>
dock_pv

> <s_m_subgroupid>
dock_pv

> <b_m_subgroup_collapsed>
1

$$$$
CHEMBL2208_lig934
                    3D
 Schrodinger Suite 2021-1.
 42 45  0  0  1  0            999 V2000
   40.6257    8.1510   18.9724 O   0  0  0  0  0  0
   38.6779    9.0991   22.4995 O   0  0  0  0  0  0
   37.9000    5.2961   26.9253 O   0  0  0  0  0  0
   37.8657    6.9600   22.3881 N   0  0  0  0  0  0
   40.3446    8.4245   20.3062 N   0  0  0  0  0  0
   39.4102    6.0249   13.0720 N   0  0  0  0  0  0
   38.2640    5.3173   13.0307 N   0  0  0  0  0  0
   35.9815    6.1129   26.1564 N   0  0  0  0  0  0
   39.5340    7.5616   18.4312 C   0  0  0  0  0  0
   39.1496    7.9396   20.5739 C   0  0  0  0  0  0
   39.5730    7.1843   17.0038 C   0  0  0  0  0  0
   38.5299    8.0422   21.8757 C   0  0  0  0  0  0
   38.5668    7.4765   19.3995 C   0  0  0  0  0  0
   38.5802    6.0614   15.1279 C   0  0  0  0  0  0
   39.6522    6.5243   14.3278 C   0  0  0  0  0  0
   38.5413    6.3993   16.4825 C   0  0  0  0  0  0
   40.6227    7.6176   16.1928 C   0  0  0  0  0  0
   40.6780    7.3199   14.8327 C   0  0  0  0  0  0
   37.3632    7.0305   23.7771 C   0  0  0  0  0  0
   37.8495    5.7787   24.5582 C   0  0  2  0  0  0
   37.7639    5.3138   14.2350 C   0  0  0  0  0  0
   37.4528    5.7496   21.6348 C   0  0  0  0  0  0
   37.5383    4.4482   23.8402 C   0  0  0  0  0  0
   37.9660    4.5143   22.3730 C   0  0  0  0  0  0
   37.2443    5.7208   25.9778 C   0  0  0  0  0  0
   39.9817    6.1572   12.2457 H   0  0  0  0  0  0
   35.4158    6.4082   25.3721 H   0  0  0  0  0  0
   35.5774    6.0514   27.0776 H   0  0  0  0  0  0
   37.5632    7.1046   19.2636 H   0  0  0  0  0  0
   37.7286    6.0543   17.1044 H   0  0  0  0  0  0
   41.4124    8.2075   16.6331 H   0  0  0  0  0  0
   41.4779    7.6875   14.2074 H   0  0  0  0  0  0
   36.2780    7.0325   23.7110 H   0  0  0  0  0  0
   37.6924    7.9303   24.3014 H   0  0  0  0  0  0
   38.9317    5.8654   24.6876 H   0  0  0  0  0  0
   36.8439    4.7901   14.4528 H   0  0  0  0  0  0
   37.8686    5.6404   20.6426 H   0  0  0  0  0  0
   36.3634    5.7271   21.5780 H   0  0  0  0  0  0
   38.1011    3.6250   24.2726 H   0  0  0  0  0  0
   36.4653    4.2445   23.8210 H   0  0  0  0  0  0
   39.0545    4.4774   22.2722 H   0  0  0  0  0  0
   37.6067    3.6253   21.8548 H   0  0  0  0  0  0
  1  5  1  0  0  0
  1  9  1  0  0  0
  2 12  2  0  0  0
  3 25  2  0  0  0
  4 12  1  0  0  0
  4 19  1  0  0  0
  4 22  1  0  0  0
  5 10  2  0  0  0
  6  7  1  0  0  0
  6 15  1  0  0  0
  6 26  1  0  0  0
  7 21  2  0  0  0
  8 25  1  0  0  0
  8 27  1  0  0  0
  8 28  1  0  0  0
  9 11  1  0  0  0
  9 13  2  0  0  0
 10 12  1  0  0  0
 10 13  1  0  0  0
 11 16  1  0  0  0
 11 17  2  0  0  0
 13 29  1  0  0  0
 14 15  1  0  0  0
 14 16  2  0  0  0
 14 21  1  0  0  0
 15 18  2  0  0  0
 16 30  1  0  0  0
 17 18  1  0  0  0
 17 31  1  0  0  0
 18 32  1  0  0  0
 19 20  1  0  0  0
 19 33  1  0  0  0
 19 34  1  0  0  0
 20 23  1  0  0  0
 20 25  1  0  0  0
 20 35  1  0  0  0
 21 36  1  0  0  0
 22 24  1  0  0  0
 22 37  1  0  0  0
 22 38  1  0  0  0
 23 24  1  0  0  0
 23 39  1  0  0  0
 23 40  1  0  0  0
 24 41  1  0  0  0
 24 42  1  0  0  0
M  END
> <s_m_entry_id>
7454

> <s_m_entry_name>
dock_pv.15

> <s_m_Source_Path>
/home/csk/Desktop/cluster/DUD-E-result/mapk2

> <s_m_Source_File>
dock_pv.maegz

> <i_m_Source_File_Index>
15

> <chembl_id>
CHEMBL1970369

> <chembl_pref_name>
None

> <i_lp_mmshare_version>
53161

> <i_f3d_flags>
0

> <r_lp_tautomer_probability>
0.980392156862745

> <s_lp_Force_Field>
OPLS_2005

> <r_lp_Energy>
32.765344

> <b_lp_Chiralities_Consistent>
1

> <s_lp_Variant>
CHEMBL2208_lig934-1

> <s_i_glide_gridfile>
glide-grid_3m2w

> <i_i_glide_lignum>
1201

> <i_i_glide_rotatable_bonds>
4

> <r_i_docking_score>
-8.23280193271077

> <r_i_glide_ligand_efficiency>
-0.329312077308431

> <r_i_glide_ligand_efficiency_sa>
-0.962914354424412

> <r_i_glide_ligand_efficiency_ln>
-1.95142077521752

> <r_i_glide_gscore>
-8.23280193271077

> <r_i_glide_lipo>
-2.24058104908644

> <r_i_glide_hbond>
-0.737317518051673

> <r_i_glide_metal>
0

> <r_i_glide_rewards>
-2.1089002982989

> <r_i_glide_evdw>
-40.0397987365723

> <r_i_glide_ecoul>
-9.79609680175781

> <r_i_glide_erotb>
0.49298315032708

> <r_i_glide_esite>
-0.167581760508554

> <r_i_glide_emodel>
-71.2286583256893

> <r_i_glide_energy>
-49.8358955383301

> <r_i_glide_einternal>
8.35524749755859

> <i_i_glide_confnum>
7

> <i_i_glide_posenum>
384

> <r_i_glide_eff_state_penalty>
0

> <s_user_duplicate_titles>
CHEMBL2208_lig934,CHEMBL2208_lig934

> <s_m_subgroup_title>
dock_pv

> <s_m_subgroupid>
dock_pv

> <b_m_subgroup_collapsed>
1

$$$$
CHEMBL2208_lig882
                    3D
 Schrodinger Suite 2021-1.
 42 45  0  0  1  0            999 V2000
   42.7916    9.3612   19.0721 Cl  0  0  0  0  0  0
   34.7939    2.8249   21.1656 O   0  0  0  0  0  0
   39.1420    6.9324   18.1745 N   0  0  0  0  0  0
   39.8775    6.4963   13.5458 N   0  0  0  0  0  0
   40.5344    8.0907   19.7717 N   0  0  0  0  0  0
   37.8698    5.2249   13.1208 N   0  0  0  0  0  0
   38.6331    6.9481   20.5100 N   0  0  0  0  0  0
   39.6948    6.8190   15.7936 C   0  0  0  0  0  0
   38.5754    6.0329   15.3369 C   0  0  0  0  0  0
   40.0100    7.2702   17.1849 C   0  0  0  0  0  0
   38.7124    5.8744   13.9256 C   0  0  0  0  0  0
   40.4416    7.0829   14.6494 C   0  0  0  0  0  0
   39.4532    7.3343   19.4388 C   0  0  0  0  0  0
   41.1600    8.0045   17.4580 C   0  0  0  0  0  0
   41.3793    8.4247   18.7606 C   0  0  0  0  0  0
   37.4580    5.4245   15.9382 C   0  0  0  0  0  0
   37.5369    5.9894   20.3515 C   0  0  2  0  0  0
   36.5962    4.6877   15.1288 C   0  0  0  0  0  0
   36.8291    4.6276   13.7573 C   0  0  0  0  0  0
   36.5605    6.1607   21.5299 C   0  0  0  0  0  0
   38.0931    4.5496   20.3176 C   0  0  0  0  0  0
   35.9093    3.6748   21.3538 C   0  0  2  0  0  0
   35.4136    5.1308   21.4753 C   0  0  0  0  0  0
   36.9519    3.5112   20.2276 C   0  0  0  0  0  0
   35.0844    1.9071   21.0720 H   0  0  0  0  0  0
   40.2829    6.5543   12.6192 H   0  0  0  0  0  0
   39.0287    7.0491   21.4368 H   0  0  0  0  0  0
   41.3570    7.6385   14.5319 H   0  0  0  0  0  0
   41.8780    8.2049   16.6888 H   0  0  0  0  0  0
   37.2903    5.4861   17.0017 H   0  0  0  0  0  0
   37.0225    6.1900   19.4097 H   0  0  0  0  0  0
   35.7604    4.1545   15.5595 H   0  0  0  0  0  0
   36.1756    4.0286   13.1353 H   0  0  0  0  0  0
   37.0921    6.0505   22.4771 H   0  0  0  0  0  0
   36.1437    7.1690   21.5310 H   0  0  0  0  0  0
   38.7710    4.4213   19.4723 H   0  0  0  0  0  0
   38.6907    4.3561   21.2117 H   0  0  0  0  0  0
   36.3505    3.3911   22.3112 H   0  0  0  0  0  0
   34.7564    5.3624   20.6372 H   0  0  0  0  0  0
   34.8006    5.2252   22.3728 H   0  0  0  0  0  0
   36.4627    3.5907   19.2551 H   0  0  0  0  0  0
   37.3721    2.5064   20.2718 H   0  0  0  0  0  0
  1 15  1  0  0  0
  2 22  1  0  0  0
  2 25  1  0  0  0
  3 10  2  0  0  0
  3 13  1  0  0  0
  4 11  1  0  0  0
  4 12  1  0  0  0
  4 26  1  0  0  0
  5 13  2  0  0  0
  5 15  1  0  0  0
  6 11  2  0  0  0
  6 19  1  0  0  0
  7 13  1  0  0  0
  7 17  1  0  0  0
  7 27  1  0  0  0
  8  9  1  0  0  0
  8 10  1  0  0  0
  8 12  2  0  0  0
  9 11  1  0  0  0
  9 16  2  0  0  0
 10 14  1  0  0  0
 12 28  1  0  0  0
 14 15  2  0  0  0
 14 29  1  0  0  0
 16 18  1  0  0  0
 16 30  1  0  0  0
 17 20  1  0  0  0
 17 21  1  0  0  0
 17 31  1  0  0  0
 18 19  2  0  0  0
 18 32  1  0  0  0
 19 33  1  0  0  0
 20 23  1  0  0  0
 20 34  1  0  0  0
 20 35  1  0  0  0
 21 24  1  0  0  0
 21 36  1  0  0  0
 21 37  1  0  0  0
 22 23  1  0  0  0
 22 24  1  0  0  0
 22 38  1  0  0  0
 23 39  1  0  0  0
 23 40  1  0  0  0
 24 41  1  0  0  0
 24 42  1  0  0  0
M  END
> <s_m_entry_id>
7455

> <s_m_entry_name>
dock_pv.16

> <s_m_Source_Path>
/home/csk/Desktop/cluster/DUD-E-result/mapk2

> <s_m_Source_File>
dock_pv.maegz

> <i_m_Source_File_Index>
16

> <chembl_id>
CHEMBL1986943

> <chembl_pref_name>
None

> <i_lp_mmshare_version>
53161

> <i_f3d_flags>
0

> <r_lp_tautomer_probability>
0.999998420164496

> <s_lp_Force_Field>
OPLS_2005

> <r_lp_Energy>
2.088888

> <b_lp_Chiralities_Consistent>
1

> <s_lp_Variant>
CHEMBL2208_lig882-1

> <s_i_glide_gridfile>
glide-grid_3m2w

> <i_i_glide_lignum>
1127

> <i_i_glide_rotatable_bonds>
4

> <r_i_docking_score>
-8.14752976906118

> <r_i_glide_ligand_efficiency>
-0.339480407044216

> <r_i_glide_ligand_efficiency_sa>
-0.979230941337259

> <r_i_glide_ligand_efficiency_ln>
-1.95007773951602

> <r_i_glide_gscore>
-8.14752976906118

> <r_i_glide_lipo>
-1.82006706413404

> <r_i_glide_hbond>
-0.553790192955097

> <r_i_glide_metal>
0

> <r_i_glide_rewards>
-2.92559868400767

> <r_i_glide_evdw>
-42.4038772583008

> <r_i_glide_ecoul>
-7.87042856216431

> <r_i_glide_erotb>
0.481693526222459

> <r_i_glide_esite>
-0.0290092069471477

> <r_i_glide_emodel>
-72.8725075323621

> <r_i_glide_energy>
-50.2743058204651

> <r_i_glide_einternal>
2.45254683494568

> <i_i_glide_confnum>
9

> <i_i_glide_posenum>
236

> <r_i_glide_eff_state_penalty>
0

> <s_user_duplicate_titles>
CHEMBL2208_lig882

> <s_m_subgroup_title>
dock_pv

> <s_m_subgroupid>
dock_pv

> <b_m_subgroup_collapsed>
1

$$$$
CHEMBL2208_lig856
                    3D
 Schrodinger Suite 2021-1.
 40 42  0  0  1  0            999 V2000
   38.4967    7.2506   21.3676 O   0  0  0  0  0  0
   36.6886    5.4384   17.7867 N   0  0  0  0  0  0
   39.1858    6.4353   15.2586 N   0  0  0  0  0  0
   38.6686    5.6281   13.0473 N   0  0  0  0  0  0
   39.4375    5.2175   21.0719 N   0  0  0  0  0  0
   40.6490    6.8074   13.4720 N   0  0  0  0  0  0
   36.8279    5.3679   19.1517 C   0  0  0  0  0  0
   38.0293    6.0436   19.4334 C   0  0  0  0  0  0
   37.7971    5.9630   17.1740 C   0  0  0  0  0  0
   35.7802    4.6969   20.0005 C   0  0  0  0  0  0
   38.6230    6.3777   18.2074 C   0  0  0  0  0  0
   38.0023    5.9278   15.7019 C   0  0  0  0  0  0
   35.0284    3.5686   19.5859 C   0  0  0  0  0  0
   38.6615    6.2324   20.7013 C   0  0  0  0  0  0
   35.5077    5.2667   21.2488 C   0  0  0  0  0  0
   33.9673    3.1036   20.3904 C   0  0  0  0  0  0
   37.0935    5.2998   14.8398 C   0  0  0  0  0  0
   39.4600    6.2667   13.9426 C   0  0  0  0  0  0
   34.5002    4.7622   22.0623 C   0  0  0  0  0  0
   33.7196    3.7005   21.6267 C   0  0  0  0  0  0
   37.4780    5.1695   13.5067 C   0  0  0  0  0  0
   35.3762    2.8132   18.3004 C   0  0  0  0  0  0
   33.0384    1.9833   19.9354 C   0  0  0  0  0  0
   35.9020    5.0456   17.2884 H   0  0  0  0  0  0
   39.5614    4.4207   20.4677 H   0  0  0  0  0  0
   39.9037    5.2286   21.9748 H   0  0  0  0  0  0
   40.8883    6.7496   12.4823 H   0  0  0  0  0  0
   41.2173    7.3382   14.1130 H   0  0  0  0  0  0
   39.5937    6.8364   18.0842 H   0  0  0  0  0  0
   36.0601    6.1256   21.6001 H   0  0  0  0  0  0
   36.1583    4.8842   15.1859 H   0  0  0  0  0  0
   34.3090    5.2136   23.0250 H   0  0  0  0  0  0
   32.9207    3.3396   22.2582 H   0  0  0  0  0  0
   36.8473    4.6549   12.7955 H   0  0  0  0  0  0
   35.1396    1.7526   18.3790 H   0  0  0  0  0  0
   34.8430    3.2262   17.4439 H   0  0  0  0  0  0
   36.4481    2.8351   18.1054 H   0  0  0  0  0  0
   33.5321    1.0142   19.9827 H   0  0  0  0  0  0
   32.1279    1.9386   20.5335 H   0  0  0  0  0  0
   32.7264    2.1484   18.9039 H   0  0  0  0  0  0
  1 14  2  0  0  0
  2  7  1  0  0  0
  2  9  1  0  0  0
  2 24  1  0  0  0
  3 12  1  0  0  0
  3 18  2  0  0  0
  4 18  1  0  0  0
  4 21  2  0  0  0
  5 14  1  0  0  0
  5 25  1  0  0  0
  5 26  1  0  0  0
  6 18  1  0  0  0
  6 27  1  0  0  0
  6 28  1  0  0  0
  7  8  2  0  0  0
  7 10  1  0  0  0
  8 11  1  0  0  0
  8 14  1  0  0  0
  9 11  2  0  0  0
  9 12  1  0  0  0
 10 13  2  0  0  0
 10 15  1  0  0  0
 11 29  1  0  0  0
 12 17  2  0  0  0
 13 16  1  0  0  0
 13 22  1  0  0  0
 15 19  2  0  0  0
 15 30  1  0  0  0
 16 20  2  0  0  0
 16 23  1  0  0  0
 17 21  1  0  0  0
 17 31  1  0  0  0
 19 20  1  0  0  0
 19 32  1  0  0  0
 20 33  1  0  0  0
 21 34  1  0  0  0
 22 35  1  0  0  0
 22 36  1  0  0  0
 22 37  1  0  0  0
 23 38  1  0  0  0
 23 39  1  0  0  0
 23 40  1  0  0  0
M  END
> <s_m_entry_id>
7456

> <s_m_entry_name>
dock_pv.17

> <s_m_Source_Path>
/home/csk/Desktop/cluster/DUD-E-result/mapk2

> <s_m_Source_File>
dock_pv.maegz

> <i_m_Source_File_Index>
17

> <chembl_id>
CHEMBL1964290

> <chembl_pref_name>
None

> <i_lp_mmshare_version>
53161

> <i_f3d_flags>
0

> <r_lp_tautomer_probability>
0.999999987636

> <s_lp_Force_Field>
OPLS_2005

> <r_lp_Energy>
1.922295

> <b_lp_Chiralities_Consistent>
1

> <s_lp_Variant>
CHEMBL2208_lig856-1

> <s_i_glide_gridfile>
glide-grid_3m2w

> <i_i_glide_lignum>
1090

> <i_i_glide_rotatable_bonds>
3

> <r_i_docking_score>
-8.1296810205127

> <r_i_glide_ligand_efficiency>
-0.353464392196204

> <r_i_glide_ligand_efficiency_sa>
-1.00520571246948

> <r_i_glide_ligand_efficiency_ln>
-1.96583058663187

> <r_i_glide_gscore>
-8.1296810205127

> <r_i_glide_lipo>
-1.13331160714008

> <r_i_glide_hbond>
-0.916636314755718

> <r_i_glide_metal>
0

> <r_i_glide_rewards>
-2.6414585007987

> <r_i_glide_evdw>
-33.8118705749512

> <r_i_glide_ecoul>
-12.8203496932983

> <r_i_glide_erotb>
0.27396414438032

> <r_i_glide_esite>
-0.0985927594562066

> <r_i_glide_emodel>
-66.0492837393092

> <r_i_glide_energy>
-46.6322202682495

> <r_i_glide_einternal>
3.59190034866333

> <i_i_glide_confnum>
6

> <i_i_glide_posenum>
123

> <r_i_glide_eff_state_penalty>
0

> <s_user_duplicate_titles>
CHEMBL2208_lig856

> <s_m_subgroup_title>
dock_pv

> <s_m_subgroupid>
dock_pv

> <b_m_subgroup_collapsed>
1

$$$$
CHEMBL2208_lig1468
                    3D
 Schrodinger Suite 2021-1.
 48 52  0  0  1  0            999 V2000
   36.2790    5.2870   16.1981 O   0  0  0  0  0  0
   36.4239    4.4018   15.3558 C   0  0  0  0  0  0
   37.3488    4.4254   14.3825 N   0  0  0  0  0  0
   38.3537    5.3563   14.2500 C   0  0  0  0  0  0
   38.8458    5.5994   13.0716 N   0  0  0  0  0  0
   39.8779    6.4287   13.2265 N   0  0  0  0  0  0
   39.9775    6.8673   14.5271 C   0  0  0  0  0  0
   40.7916    7.8217   15.1179 C   0  0  0  0  0  0
   40.6692    8.0073   16.4948 C   0  0  0  0  0  0
   39.7793    7.2607   17.2662 C   0  0  0  0  0  0
   38.9882    6.2829   16.6580 C   0  0  0  0  0  0
   39.0328    6.1207   15.2629 C   0  0  0  0  0  0
   39.5979    7.5321   18.7214 C   0  0  0  0  0  0
   38.5762    7.0718   19.5373 C   0  0  0  0  0  0
   38.7964    7.6424   20.7615 N   0  0  0  0  0  0
   37.9718    7.5800   21.9654 C   0  0  0  0  0  0
   37.2463    6.2519   22.1342 C   0  0  0  0  0  0
   37.7772    5.2732   22.9761 C   0  0  0  0  0  0
   37.1588    4.0328   23.0754 C   0  0  0  0  0  0
   36.0060    3.7709   22.3371 C   0  0  0  0  0  0
   35.4594    4.7473   21.5074 C   0  0  0  0  0  0
   36.0780    5.9913   21.4105 C   0  0  0  0  0  0
   39.8776    8.4248   20.7136 N   0  0  0  0  0  0
   40.3851    8.3276   19.4303 N   0  0  0  0  0  0
   35.5648    3.1608   15.3810 C   0  0  0  0  0  0
   35.0780    2.5866   14.1975 C   0  0  0  0  0  0
   34.3105    1.4249   14.2439 C   0  0  0  0  0  0
   34.0225    0.8370   15.4733 C   0  0  0  0  0  0
   34.4962    1.3961   16.6572 C   0  0  0  0  0  0
   35.2646    2.5573   16.6094 C   0  0  0  0  0  0
   37.3084    3.6986   13.6784 H   0  0  0  0  0  0
   40.4342    6.7170   12.4282 H   0  0  0  0  0  0
   41.4784    8.4175   14.5332 H   0  0  0  0  0  0
   41.2741    8.7661   16.9730 H   0  0  0  0  0  0
   38.3243    5.6869   17.2594 H   0  0  0  0  0  0
   37.7293    6.4288   19.3545 H   0  0  0  0  0  0
   38.6040    7.7750   22.8357 H   0  0  0  0  0  0
   37.2466    8.3926   21.9198 H   0  0  0  0  0  0
   38.6777    5.4602   23.5391 H   0  0  0  0  0  0
   37.5910    3.2750   23.7082 H   0  0  0  0  0  0
   35.5384    2.7975   22.4026 H   0  0  0  0  0  0
   34.5689    4.5317   20.9351 H   0  0  0  0  0  0
   35.6633    6.7465   20.7606 H   0  0  0  0  0  0
   35.2920    3.0313   13.2349 H   0  0  0  0  0  0
   33.9368    0.9856   13.3293 H   0  0  0  0  0  0
   33.4221   -0.0603   15.5127 H   0  0  0  0  0  0
   34.2712    0.9359   17.6091 H   0  0  0  0  0  0
   35.6286    2.9811   17.5348 H   0  0  0  0  0  0
  1  2  2  0  0  0
  2  3  1  0  0  0
  2 25  1  0  0  0
  3  4  1  0  0  0
  3 31  1  0  0  0
  4  5  2  0  0  0
  4 12  1  0  0  0
  5  6  1  0  0  0
  6  7  1  0  0  0
  6 32  1  0  0  0
  7  8  2  0  0  0
  7 12  1  0  0  0
  8  9  1  0  0  0
  8 33  1  0  0  0
  9 10  2  0  0  0
  9 34  1  0  0  0
 10 11  1  0  0  0
 10 13  1  0  0  0
 11 12  2  0  0  0
 11 35  1  0  0  0
 13 14  2  0  0  0
 13 24  1  0  0  0
 14 15  1  0  0  0
 14 36  1  0  0  0
 15 16  1  0  0  0
 15 23  1  0  0  0
 16 17  1  0  0  0
 16 37  1  0  0  0
 16 38  1  0  0  0
 17 18  2  0  0  0
 17 22  1  0  0  0
 18 19  1  0  0  0
 18 39  1  0  0  0
 19 20  2  0  0  0
 19 40  1  0  0  0
 20 21  1  0  0  0
 20 41  1  0  0  0
 21 22  2  0  0  0
 21 42  1  0  0  0
 22 43  1  0  0  0
 23 24  2  0  0  0
 25 26  2  0  0  0
 25 30  1  0  0  0
 26 27  1  0  0  0
 26 44  1  0  0  0
 27 28  2  0  0  0
 27 45  1  0  0  0
 28 29  1  0  0  0
 28 46  1  0  0  0
 29 30  2  0  0  0
 29 47  1  0  0  0
 30 48  1  0  0  0
M  END
> <s_m_entry_id>
7457

> <s_m_entry_name>
dock_pv.18

> <s_m_Source_Path>
/home/csk/Desktop/cluster/DUD-E-result/mapk2

> <s_m_Source_File>
dock_pv.maegz

> <i_m_Source_File_Index>
18

> <chembl_id>
CHEMBL1999931

> <chembl_pref_name>
None

> <i_lp_mmshare_version>
53161

> <i_f3d_flags>
0

> <r_lp_tautomer_probability>
0.980392156862745

> <s_lp_Force_Field>
OPLS_2005

> <r_lp_Energy>
22.150308

> <b_lp_Chiralities_Consistent>
1

> <s_lp_Variant>
CHEMBL2208_lig1468-1

> <s_i_glide_gridfile>
glide-grid_3m2w

> <i_i_glide_lignum>
2039

> <i_i_glide_rotatable_bonds>
6

> <r_i_docking_score>
-8.1232100492532

> <r_i_glide_ligand_efficiency>
-0.27077366830844

> <r_i_glide_ligand_efficiency_sa>
-0.84135674297048

> <r_i_glide_ligand_efficiency_ln>
-1.84568183265287

> <r_i_glide_gscore>
-8.1232100492532

> <r_i_glide_lipo>
-2.33758187838727

> <r_i_glide_hbond>
-0.864

> <r_i_glide_metal>
0

> <r_i_glide_rewards>
-2.19949542887187

> <r_i_glide_evdw>
-42.3502044677734

> <r_i_glide_ecoul>
-6.45667314529419

> <r_i_glide_erotb>
0.527646853553826

> <r_i_glide_esite>
-0.163768400365088

> <r_i_glide_emodel>
-69.9513644519011

> <r_i_glide_energy>
-48.8068776130676

> <r_i_glide_einternal>
6.80923557281494

> <i_i_glide_confnum>
44

> <i_i_glide_posenum>
118

> <r_i_glide_eff_state_penalty>
0

> <s_user_duplicate_titles>
CHEMBL2208_lig1468

> <s_m_subgroup_title>
dock_pv

> <s_m_subgroupid>
dock_pv

> <b_m_subgroup_collapsed>
1

$$$$
CHEMBL2208_lig317
                    3D
 Schrodinger Suite 2021-1.
 47 49  0  0  1  0            999 V2000
   39.0502    6.8405   16.9629 C   0  0  0  0  0  0
   39.9118    7.3717   16.0861 N   0  0  0  0  0  0
   39.7848    7.0173   14.7818 C   0  0  0  0  0  0
   38.0492    5.9755   16.7445 N   0  0  0  0  0  0
   37.9571    5.6250   15.4366 C   0  0  0  0  0  0
   38.7591    6.1139   14.4183 C   0  0  0  0  0  0
   38.3883    5.6250   13.2238 N   0  0  0  0  0  0
   37.3891    4.8281   13.5073 C   0  0  0  0  0  0
   37.1184    4.7256   14.8245 N   0  0  0  0  0  0
   40.6780    7.5693   13.8720 N   0  0  0  0  0  0
   35.9847    3.9127   15.4379 C   0  0  2  0  0  0
   36.0422    3.9201   16.8385 O   0  0  0  0  0  0
   35.2665    2.8513   17.3589 C   0  0  1  0  0  0
   35.7188    1.7340   16.4310 C   0  0  2  0  0  0
   35.9433    2.4165   15.0704 C   0  0  1  0  0  0
   34.9234    2.2014   14.1031 O   0  0  0  0  0  0
   34.8248    0.6364   16.3810 O   0  0  0  0  0  0
   35.5495    2.6477   18.8663 C   0  0  0  0  0  0
   34.7753    3.6068   19.5637 O   0  0  0  0  0  0
   34.7432    3.7552   21.1886 P   0  0  2  0  0  0
   36.2872    3.9938   21.6076 O   0  0  0  0  0  0
   34.3825    2.2758   21.7526 O   0  0  0  0  0  0
   33.8192    4.8250   21.6454 O   0  0  0  0  0  0
   37.1328    4.7248   22.8984 P   0  0  2  0  0  0
   38.0391    5.9650   22.1802 O   0  0  0  0  0  0
   38.2780    3.6250   23.4720 O   0  0  0  0  0  0
   36.2336    5.2250   23.9998 O   0  0  0  0  0  0
   38.1742    7.5665   22.2968 P   0  0  0  0  0  0
   36.6780    8.0656   21.9753 O   0  0  0  0  0  0
   39.2409    8.1975   21.4720 O   0  0  0  0  0  0
   38.2780    7.8044   23.8950 O   0  0  0  0  0  0
   39.1791    7.1507   17.9902 H   0  0  0  0  0  0
   36.8142    4.2647   12.7862 H   0  0  0  0  0  0
   40.6978    7.2250   12.9195 H   0  0  0  0  0  0
   41.3910    8.1884   14.2276 H   0  0  0  0  0  0
   35.0780    4.4250   15.1145 H   0  0  0  0  0  0
   34.2041    3.0568   17.2064 H   0  0  0  0  0  0
   36.6780    1.3795   16.7914 H   0  0  0  0  0  0
   36.9072    2.1082   14.6720 H   0  0  0  0  0  0
   35.2772    2.4249   13.2376 H   0  0  0  0  0  0
   34.1127    0.8840   15.7826 H   0  0  0  0  0  0
   36.6096    2.7754   19.0927 H   0  0  0  0  0  0
   35.2474    1.6472   19.1812 H   0  0  0  0  0  0
   34.9157    1.4909   21.4720 H   0  0  0  0  0  0
   38.9395    3.2202   22.8759 H   0  0  0  0  0  0
   36.0046    7.6939   22.5831 H   0  0  0  0  0  0
   39.2183    7.7688   24.2276 H   0  0  0  0  0  0
  1  2  2  0  0  0
  1  4  1  0  0  0
  1 32  1  0  0  0
  2  3  1  0  0  0
  3  6  2  0  0  0
  3 10  1  0  0  0
  4  5  2  0  0  0
  5  6  1  0  0  0
  5  9  1  0  0  0
  6  7  1  0  0  0
  7  8  2  0  0  0
  8  9  1  0  0  0
  8 33  1  0  0  0
  9 11  1  0  0  0
 10 34  1  0  0  0
 10 35  1  0  0  0
 11 12  1  0  0  0
 11 15  1  0  0  0
 11 36  1  0  0  0
 12 13  1  0  0  0
 13 14  1  0  0  0
 13 18  1  0  0  0
 13 37  1  0  0  0
 14 15  1  0  0  0
 14 17  1  0  0  0
 14 38  1  0  0  0
 15 16  1  0  0  0
 15 39  1  0  0  0
 16 40  1  0  0  0
 17 41  1  0  0  0
 18 19  1  0  0  0
 18 42  1  0  0  0
 18 43  1  0  0  0
 19 20  1  0  0  0
 20 21  1  0  0  0
 20 22  1  0  0  0
 20 23  2  0  0  0
 21 24  1  0  0  0
 22 44  1  0  0  0
 24 25  1  0  0  0
 24 26  1  0  0  0
 24 27  2  0  0  0
 25 28  1  0  0  0
 26 45  1  0  0  0
 28 29  1  0  0  0
 28 30  2  0  0  0
 28 31  1  0  0  0
 29 46  1  0  0  0
 31 47  1  0  0  0
M  END
> <s_m_entry_id>
7458

> <s_m_entry_name>
dock_pv.19

> <s_m_Source_Path>
/home/csk/Desktop/cluster/DUD-E-result/mapk2

> <s_m_Source_File>
dock_pv.maegz

> <i_m_Source_File_Index>
19

> <chembl_id>
CHEMBL14249

> <chembl_pref_name>
ADENOSINE TRIPHOSPHATE

> <i_lp_mmshare_version>
53161

> <i_f3d_flags>
0

> <r_lp_tautomer_probability>
0.999997216410988

> <s_lp_Force_Field>
OPLS_2005

> <r_lp_Energy>
29.393796

> <b_lp_Chiralities_Consistent>
1

> <s_lp_Variant>
CHEMBL2208_lig317-1

> <s_i_glide_gridfile>
glide-grid_3m2w

> <i_i_glide_lignum>
457

> <i_i_glide_rotatable_bonds>
14

> <r_i_docking_score>
-8.1110692847264

> <r_i_glide_ligand_efficiency>
-0.261647396281497

> <r_i_glide_ligand_efficiency_sa>
-0.821934067486441

> <r_i_glide_ligand_efficiency_ln>
-1.82929469812672

> <r_i_glide_gscore>
-8.1110692847264

> <r_i_glide_lipo>
-0.814912402343918

> <r_i_glide_hbond>
-0.692072621442094

> <r_i_glide_metal>
0

> <r_i_glide_rewards>
-1.07630674771362

> <r_i_glide_evdw>
-41.4131240844727

> <r_i_glide_ecoul>
-29.2719097137451

> <r_i_glide_erotb>
0.636465534809362

> <r_i_glide_esite>
-0.0935868438125003

> <r_i_glide_emodel>
-99.9906910164111

> <r_i_glide_energy>
-70.6850337982178

> <r_i_glide_einternal>
11.4299545288086

> <i_i_glide_confnum>
194

> <i_i_glide_posenum>
21

> <r_i_glide_eff_state_penalty>
0

> <s_user_duplicate_titles>
CHEMBL2208_lig317

> <s_m_subgroup_title>
dock_pv

> <s_m_subgroupid>
dock_pv

> <b_m_subgroup_collapsed>
1

$$$$
CHEMBL2208_lig136
                    3D
 Schrodinger Suite 2021-1.
 41 44  0  0  1  0            999 V2000
   37.0422    5.5371   23.5368 C   0  0  0  0  0  0
   39.9014    7.5018   16.0743 C   0  0  1  0  0  0
   36.3532    4.9511   19.3647 C   0  0  0  0  0  0
   37.2811    5.9131   19.7912 C   0  0  0  0  0  0
   38.1383    6.5091   18.8558 C   0  0  0  0  0  0
   36.2206    4.5847   18.0266 C   0  0  0  0  0  0
   37.0501    5.2254   17.1039 C   0  0  0  0  0  0
   38.0389    6.1656   17.5008 C   0  0  0  0  0  0
   37.1308    5.1161   15.7319 N   0  0  0  0  0  0
   38.1857    5.8527   15.2485 C   0  0  0  0  0  0
   38.7412    6.5540   16.3143 C   0  0  0  0  0  0
   40.6780    6.9224   14.8617 C   0  0  0  0  0  0
   39.7879    6.5721   13.7397 N   0  0  0  0  0  0
   38.5828    5.9627   13.8605 C   0  0  0  0  0  0
   37.9625    5.6175   12.8562 O   0  0  0  0  0  0
   39.4521    8.9596   15.8730 C   0  0  0  0  0  0
   37.3537    6.3522   21.2329 C   0  0  0  0  0  0
   37.0139    5.4183   22.1521 N   0  0  0  0  0  0
   37.7042    7.5063   21.4897 O   0  0  0  0  0  0
   36.4915    4.6358   24.3122 N   0  0  0  0  0  0
   36.7212    4.8768   25.5922 C   0  0  0  0  0  0
   37.5442    5.9673   25.8874 C   0  0  0  0  0  0
   37.8776    6.7990   24.3964 S   0  0  0  0  0  0
   38.0286    6.4240   27.1649 C   0  0  0  0  0  0
   39.0795    7.2474   27.1408 N   0  0  0  0  0  0
   37.5240    6.0500   28.2219 O   0  0  0  0  0  0
   40.5713    7.4773   16.9349 H   0  0  0  0  0  0
   35.6848    4.4840   20.0741 H   0  0  0  0  0  0
   38.8719    7.2372   19.1722 H   0  0  0  0  0  0
   35.4811    3.8565   17.7251 H   0  0  0  0  0  0
   36.5597    4.5401   15.1283 H   0  0  0  0  0  0
   41.2159    6.0244   15.1654 H   0  0  0  0  0  0
   41.4338    7.6293   14.5143 H   0  0  0  0  0  0
   40.0947    6.7835   12.8012 H   0  0  0  0  0  0
   39.0551    9.3792   16.8002 H   0  0  0  0  0  0
   40.2777    9.5968   15.5602 H   0  0  0  0  0  0
   38.6767    9.0408   15.1095 H   0  0  0  0  0  0
   36.6916    4.5276   21.8039 H   0  0  0  0  0  0
   36.3043    4.2012   26.3281 H   0  0  0  0  0  0
   39.5770    7.4196   26.2741 H   0  0  0  0  0  0
   39.4608    7.6065   27.9996 H   0  0  0  0  0  0
  1 18  1  0  0  0
  1 20  2  0  0  0
  1 23  1  0  0  0
  2 11  1  0  0  0
  2 12  1  0  0  0
  2 16  1  0  0  0
  2 27  1  0  0  0
  3  4  2  0  0  0
  3  6  1  0  0  0
  3 28  1  0  0  0
  4  5  1  0  0  0
  4 17  1  0  0  0
  5  8  2  0  0  0
  5 29  1  0  0  0
  6  7  2  0  0  0
  6 30  1  0  0  0
  7  9  1  0  0  0
  7  8  1  0  0  0
  8 11  1  0  0  0
  9 10  1  0  0  0
  9 31  1  0  0  0
 10 11  2  0  0  0
 10 14  1  0  0  0
 12 13  1  0  0  0
 12 32  1  0  0  0
 12 33  1  0  0  0
 13 14  1  0  0  0
 13 34  1  0  0  0
 14 15  2  0  0  0
 16 35  1  0  0  0
 16 36  1  0  0  0
 16 37  1  0  0  0
 17 18  1  0  0  0
 17 19  2  0  0  0
 18 38  1  0  0  0
 20 21  1  0  0  0
 21 22  2  0  0  0
 21 39  1  0  0  0
 22 23  1  0  0  0
 22 24  1  0  0  0
 24 25  1  0  0  0
 24 26  2  0  0  0
 25 40  1  0  0  0
 25 41  1  0  0  0
M  END
> <s_m_entry_id>
7459

> <s_m_entry_name>
dock_pv.20

> <s_m_Source_Path>
/home/csk/Desktop/cluster/DUD-E-result/mapk2

> <s_m_Source_File>
dock_pv.maegz

> <i_m_Source_File_Index>
20

> <chembl_id>
CHEMBL245682

> <chembl_pref_name>
None

> <i_lp_mmshare_version>
53161

> <i_f3d_flags>
0

> <r_lp_tautomer_probability>
0.999000488399163

> <s_lp_Force_Field>
OPLS_2005

> <r_lp_Energy>
23.667997

> <b_lp_Chiralities_Consistent>
1

> <s_lp_Variant>
CHEMBL2208_lig136-2

> <s_i_glide_gridfile>
glide-grid_3m2w

> <i_i_glide_lignum>
194

> <i_i_glide_rotatable_bonds>
4

> <r_i_docking_score>
-8.07381788956888

> <r_i_glide_ligand_efficiency>
-0.310531457291111

> <r_i_glide_ligand_efficiency_sa>
-0.919948220342633

> <r_i_glide_ligand_efficiency_ln>
-1.89610963900794

> <r_i_glide_gscore>
-8.07381788956888

> <r_i_glide_lipo>
-2.10566787310603

> <r_i_glide_hbond>
-0.545901929141032

> <r_i_glide_metal>
0

> <r_i_glide_rewards>
-2.21846310648421

> <r_i_glide_evdw>
-43.9814949035645

> <r_i_glide_ecoul>
-8.58371067047119

> <r_i_glide_erotb>
0.296720897461942

> <r_i_glide_esite>
-0.0138745325506432

> <r_i_glide_emodel>
-77.8224402298953

> <r_i_glide_energy>
-52.5652055740356

> <r_i_glide_einternal>
1.72311758995056

> <i_i_glide_confnum>
4

> <i_i_glide_posenum>
347

> <r_i_glide_eff_state_penalty>
0

> <s_user_duplicate_titles>
CHEMBL2208_lig136

> <s_m_subgroup_title>
dock_pv

> <s_m_subgroupid>
dock_pv

> <b_m_subgroup_collapsed>
1

$$$$
CHEMBL2208_lig1428
                    3D
 Schrodinger Suite 2021-1.
 44 47  0  0  1  0            999 V2000
   36.7584    3.5712   20.4303 C   0  0  0  0  0  0
   37.7272    4.5936   20.0222 N   0  0  0  0  0  0
   39.0932    4.0789   19.8848 C   0  0  0  0  0  0
   37.3989    5.9115   20.0157 C   0  0  0  0  0  0
   36.2775    6.3454   20.2826 O   0  0  0  0  0  0
   38.4497    6.8501   19.7207 C   0  0  0  0  0  0
   39.1530    7.1450   18.5368 C   0  0  0  0  0  0
   40.0741    8.0605   18.8076 N   0  0  0  0  0  0
   39.9826    8.4237   20.1331 N   0  0  0  0  0  0
   38.9981    7.6915   20.6611 N   0  0  0  0  0  0
   38.6064    7.9150   22.0536 C   0  0  0  0  0  0
   38.0905    9.3253   22.3098 C   0  0  0  0  0  0
   37.0720    9.8649   21.5139 C   0  0  0  0  0  0
   36.6840   11.1943   21.6856 C   0  0  0  0  0  0
   37.3158   11.9783   22.6541 C   0  0  0  0  0  0
   38.3011   11.4303   23.4747 C   0  0  0  0  0  0
   38.6788   10.0994   23.3130 C   0  0  0  0  0  0
   38.9784    6.6306   17.1331 C   0  0  0  0  0  0
   40.0208    6.7387   16.2008 C   0  0  0  0  0  0
   39.8796    6.3193   14.8780 C   0  0  0  0  0  0
   38.6582    5.7596   14.4836 C   0  0  0  0  0  0
   38.3207    5.2861   13.2474 N   0  0  0  0  0  0
   37.0758    4.8249   13.4321 N   0  0  0  0  0  0
   36.5563    5.0086   14.6866 C   0  0  0  0  0  0
   37.5923    5.6298   15.4235 C   0  0  0  0  0  0
   37.7532    6.0784   16.7386 C   0  0  0  0  0  0
   35.7411    3.9541   20.5178 H   0  0  0  0  0  0
   36.7372    2.7567   19.7049 H   0  0  0  0  0  0
   37.0431    3.1506   21.3962 H   0  0  0  0  0  0
   39.6531    4.5804   19.0961 H   0  0  0  0  0  0
   39.6352    4.2216   20.8220 H   0  0  0  0  0  0
   39.0898    3.0111   19.6595 H   0  0  0  0  0  0
   37.8397    7.1996   22.3496 H   0  0  0  0  0  0
   39.4769    7.6897   22.6653 H   0  0  0  0  0  0
   36.6007    9.2559   20.7561 H   0  0  0  0  0  0
   35.9063   11.6175   21.0661 H   0  0  0  0  0  0
   37.0307   13.0129   22.7747 H   0  0  0  0  0  0
   38.7841   12.0199   24.2368 H   0  0  0  0  0  0
   39.4572    9.6852   23.9410 H   0  0  0  0  0  0
   40.9654    7.1694   16.4987 H   0  0  0  0  0  0
   40.6934    6.4209   14.1755 H   0  0  0  0  0  0
   36.5772    4.3628   12.6838 H   0  0  0  0  0  0
   35.5559    4.6786   14.9285 H   0  0  0  0  0  0
   36.9240    5.9993   17.4229 H   0  0  0  0  0  0
  1  2  1  0  0  0
  1 27  1  0  0  0
  1 28  1  0  0  0
  1 29  1  0  0  0
  2  3  1  0  0  0
  2  4  1  0  0  0
  3 30  1  0  0  0
  3 31  1  0  0  0
  3 32  1  0  0  0
  4  5  2  0  0  0
  4  6  1  0  0  0
  6  7  2  0  0  0
  6 10  1  0  0  0
  7  8  1  0  0  0
  7 18  1  0  0  0
  8  9  2  0  0  0
  9 10  1  0  0  0
 10 11  1  0  0  0
 11 12  1  0  0  0
 11 33  1  0  0  0
 11 34  1  0  0  0
 12 13  2  0  0  0
 12 17  1  0  0  0
 13 14  1  0  0  0
 13 35  1  0  0  0
 14 15  2  0  0  0
 14 36  1  0  0  0
 15 16  1  0  0  0
 15 37  1  0  0  0
 16 17  2  0  0  0
 16 38  1  0  0  0
 17 39  1  0  0  0
 18 19  1  0  0  0
 18 26  2  0  0  0
 19 20  2  0  0  0
 19 40  1  0  0  0
 20 21  1  0  0  0
 20 41  1  0  0  0
 21 22  2  0  0  0
 21 25  1  0  0  0
 22 23  1  0  0  0
 23 42  1  0  0  0
 23 24  1  0  0  0
 24 25  2  0  0  0
 24 43  1  0  0  0
 25 26  1  0  0  0
 26 44  1  0  0  0
M  END
> <s_m_entry_id>
7460

> <s_m_entry_name>
dock_pv.21

> <s_m_Source_Path>
/home/csk/Desktop/cluster/DUD-E-result/mapk2

> <s_m_Source_File>
dock_pv.maegz

> <i_m_Source_File_Index>
21

> <chembl_id>
CHEMBL1996111

> <chembl_pref_name>
None

> <i_lp_mmshare_version>
53161

> <i_f3d_flags>
0

> <r_lp_tautomer_probability>
0.0196078431372549

> <s_lp_Force_Field>
OPLS_2005

> <r_lp_Energy>
38.648114

> <b_lp_Chiralities_Consistent>
1

> <s_lp_Variant>
CHEMBL2208_lig1428-2

> <s_i_glide_gridfile>
glide-grid_3m2w

> <i_i_glide_lignum>
1977

> <i_i_glide_rotatable_bonds>
5

> <r_i_docking_score>
-8.04686334075114

> <r_i_glide_ligand_efficiency>
-0.309494743875044

> <r_i_glide_ligand_efficiency_sa>
-0.916876960926806

> <r_i_glide_ligand_efficiency_ln>
-1.88977945166318

> <r_i_glide_gscore>
-8.04686334075114

> <r_i_glide_lipo>
-2.95321869263918

> <r_i_glide_hbond>
-0.273239679157583

> <r_i_glide_metal>
0

> <r_i_glide_rewards>
-1.92528103547268

> <r_i_glide_evdw>
-41.8145713806152

> <r_i_glide_ecoul>
-8.66014003753662

> <r_i_glide_erotb>
0.633804882517952

> <r_i_glide_esite>
-0.139179241338393

> <r_i_glide_emodel>
-71.0628299632994

> <r_i_glide_energy>
-50.4747114181519

> <r_i_glide_einternal>
3.87216711044312

> <i_i_glide_confnum>
51

> <i_i_glide_posenum>
378

> <r_i_glide_eff_state_penalty>
0

> <s_user_duplicate_titles>
CHEMBL2208_lig1428

> <s_m_subgroup_title>
dock_pv

> <s_m_subgroupid>
dock_pv

> <b_m_subgroup_collapsed>
1

$$$$
CHEMBL2208_lig870
                    3D
 Schrodinger Suite 2021-1.
 43 46  0  0  1  0            999 V2000
   40.1371    6.6725   13.5080 N   0  0  0  0  0  0
   39.3292    7.1781   18.1050 N   0  0  0  0  0  0
   38.1580    5.3631   13.0717 N   0  0  0  0  0  0
   40.7550    8.2026   19.7587 N   0  0  0  0  0  0
   38.7366    7.2518   20.4210 N   0  0  0  0  0  0
   36.4356    3.6263   22.5369 N   0  0  0  0  0  0
   39.9449    6.9888   15.7541 C   0  0  0  0  0  0
   38.8220    6.2081   15.2898 C   0  0  0  0  0  0
   40.2629    7.4233   17.1485 C   0  0  0  0  0  0
   38.9841    6.0256   13.8815 C   0  0  0  0  0  0
   40.6775    7.2829   14.6132 C   0  0  0  0  0  0
   39.6223    7.5568   19.3804 C   0  0  0  0  0  0
   37.6824    5.6277   15.8766 C   0  0  0  0  0  0
   41.4813    8.0251   17.4706 C   0  0  0  0  0  0
   41.6728    8.4308   18.7886 C   0  0  0  0  0  0
   36.7980    4.9319   15.0508 C   0  0  0  0  0  0
   37.6578    6.2843   20.2288 C   0  0  2  0  0  0
   37.0749    4.8260   13.6889 C   0  0  0  0  0  0
   36.6025    6.4996   21.3230 C   0  0  0  0  0  0
   38.2239    4.8465   20.2839 C   0  0  0  0  0  0
   35.9701    3.9929   21.2152 C   0  0  1  0  0  0
   35.4766    5.4544   21.1918 C   0  0  0  0  0  0
   37.0795    3.8152   20.1561 C   0  0  0  0  0  0
   40.5397    6.7504   12.5791 H   0  0  0  0  0  0
   39.1009    7.3576   21.3574 H   0  0  0  0  0  0
   35.6533    3.5554   23.1723 H   0  0  0  0  0  0
   36.8648    2.7093   22.4857 H   0  0  0  0  0  0
   41.5730    7.8767   14.4991 H   0  0  0  0  0  0
   37.4891    5.7131   16.9358 H   0  0  0  0  0  0
   42.2399    8.1946   16.7237 H   0  0  0  0  0  0
   42.5839    8.9352   19.0814 H   0  0  0  0  0  0
   35.9095    4.4731   15.4683 H   0  0  0  0  0  0
   37.2009    6.4483   19.2506 H   0  0  0  0  0  0
   36.4006    4.2727   13.0517 H   0  0  0  0  0  0
   37.0506    6.4278   22.3165 H   0  0  0  0  0  0
   36.1782    7.5034   21.2491 H   0  0  0  0  0  0
   38.9478    4.6865   19.4829 H   0  0  0  0  0  0
   38.7690    4.6820   21.2174 H   0  0  0  0  0  0
   35.1327    3.3693   20.9022 H   0  0  0  0  0  0
   34.9204    5.6219   20.2728 H   0  0  0  0  0  0
   34.7502    5.6052   21.9890 H   0  0  0  0  0  0
   36.6449    3.8403   19.1545 H   0  0  0  0  0  0
   37.4944    2.8131   20.2554 H   0  0  0  0  0  0
  1 10  1  0  0  0
  1 11  1  0  0  0
  1 24  1  0  0  0
  2  9  2  0  0  0
  2 12  1  0  0  0
  3 10  2  0  0  0
  3 18  1  0  0  0
  4 12  2  0  0  0
  4 15  1  0  0  0
  5 12  1  0  0  0
  5 17  1  0  0  0
  5 25  1  0  0  0
  6 21  1  0  0  0
  6 26  1  0  0  0
  6 27  1  0  0  0
  7  8  1  0  0  0
  7  9  1  0  0  0
  7 11  2  0  0  0
  8 10  1  0  0  0
  8 13  2  0  0  0
  9 14  1  0  0  0
 11 28  1  0  0  0
 13 16  1  0  0  0
 13 29  1  0  0  0
 14 15  2  0  0  0
 14 30  1  0  0  0
 15 31  1  0  0  0
 16 18  2  0  0  0
 16 32  1  0  0  0
 17 19  1  0  0  0
 17 20  1  0  0  0
 17 33  1  0  0  0
 18 34  1  0  0  0
 19 22  1  0  0  0
 19 35  1  0  0  0
 19 36  1  0  0  0
 20 23  1  0  0  0
 20 37  1  0  0  0
 20 38  1  0  0  0
 21 22  1  0  0  0
 21 23  1  0  0  0
 21 39  1  0  0  0
 22 40  1  0  0  0
 22 41  1  0  0  0
 23 42  1  0  0  0
 23 43  1  0  0  0
M  END
> <s_m_entry_id>
7461

> <s_m_entry_name>
dock_pv.22

> <s_m_Source_Path>
/home/csk/Desktop/cluster/DUD-E-result/mapk2

> <s_m_Source_File>
dock_pv.maegz

> <i_m_Source_File_Index>
22

> <chembl_id>
CHEMBL1966628

> <chembl_pref_name>
None

> <i_lp_mmshare_version>
53161

> <i_f3d_flags>
0

> <r_lp_tautomer_probability>
0.999998420164496

> <s_lp_Force_Field>
OPLS_2005

> <r_lp_Energy>
7.06722

> <b_lp_Chiralities_Consistent>
1

> <s_lp_Variant>
CHEMBL2208_lig870-2

> <s_i_glide_gridfile>
glide-grid_3m2w

> <i_i_glide_lignum>
1108

> <i_i_glide_rotatable_bonds>
3

> <r_i_docking_score>
-8.03572168590582

> <r_i_glide_ligand_efficiency>
-0.349379203735036

> <r_i_glide_ligand_efficiency_sa>
-0.993587979910438

> <r_i_glide_ligand_efficiency_ln>
-1.94311036754778

> <r_i_glide_gscore>
-8.03572168590582

> <r_i_glide_lipo>
-1.92811273299375

> <r_i_glide_hbond>
-0.639273130737509

> <r_i_glide_metal>
0

> <r_i_glide_rewards>
-3.37788600673787

> <r_i_glide_evdw>
-40.8428535461426

> <r_i_glide_ecoul>
-4.02398777008057

> <r_i_glide_erotb>
0.583625750748594

> <r_i_glide_esite>
-0.028334723366078

> <r_i_glide_emodel>
-64.36095722665

> <r_i_glide_energy>
-44.8668413162231

> <r_i_glide_einternal>
2.70336198806763

> <i_i_glide_confnum>
20

> <i_i_glide_posenum>
14

> <r_i_glide_eff_state_penalty>
0

> <s_user_duplicate_titles>
CHEMBL2208_lig870

> <s_m_subgroup_title>
dock_pv

> <s_m_subgroupid>
dock_pv

> <b_m_subgroup_collapsed>
1

$$$$
CHEMBL2208_lig303
                    3D
 Schrodinger Suite 2021-1.
 34 36  0  0  1  0            999 V2000
   39.6045    6.4249   13.6397 C   0  0  0  0  0  0
   40.3221    7.2350   14.5066 C   0  0  0  0  0  0
   38.1966    5.6254   15.4228 C   0  0  0  0  0  0
   38.9373    6.3793   16.3496 C   0  0  0  0  0  0
   38.8338    6.4442   17.7721 C   0  0  0  0  0  0
   38.5177    5.6723   14.0619 C   0  0  0  0  0  0
   39.9692    7.2168   15.8569 C   0  0  0  0  0  0
   39.6836    7.3980   18.3485 C   0  0  0  0  0  0
   39.9850    7.7921   19.7259 C   0  0  0  0  0  0
   37.9487    5.4064   19.8427 C   0  0  0  0  0  0
   37.8331    6.7394   20.6063 C   0  0  1  0  0  0
   36.5602    4.4250   13.4375 C   0  0  0  0  0  0
   37.2221    6.5562   22.0025 C   0  0  0  0  0  0
   37.9414    5.6250   18.4155 N   0  0  0  0  0  0
   39.1057    7.4507   20.6844 N   0  0  0  0  0  0
   35.8780    6.0211   21.8720 N   0  0  0  0  0  0
   41.0074    8.4248   19.9964 O   0  0  0  0  0  0
   37.8029    5.0221   13.0808 O   0  0  0  0  0  0
   40.6785    8.1690   17.1306 S   0  0  0  0  0  0
   39.8756    6.4240   12.5998 H   0  0  0  0  0  0
   41.1200    7.8646   14.1413 H   0  0  0  0  0  0
   37.3803    5.0175   15.7759 H   0  0  0  0  0  0
   37.1109    4.7443   20.0582 H   0  0  0  0  0  0
   38.8498    4.8651   20.1375 H   0  0  0  0  0  0
   37.1495    7.3996   20.0643 H   0  0  0  0  0  0
   36.0878    4.0163   12.5449 H   0  0  0  0  0  0
   36.6858    3.6112   14.1511 H   0  0  0  0  0  0
   35.8778    5.1568   13.8721 H   0  0  0  0  0  0
   37.1639    7.5184   22.5144 H   0  0  0  0  0  0
   37.8331    5.8969   22.6224 H   0  0  0  0  0  0
   37.6050    4.8353   17.8819 H   0  0  0  0  0  0
   39.4004    7.7257   21.6104 H   0  0  0  0  0  0
   35.9100    5.0100   21.8716 H   0  0  0  0  0  0
   35.3287    6.2911   22.6894 H   0  0  0  0  0  0
  1  2  2  0  0  0
  1  6  1  0  0  0
  1 20  1  0  0  0
  2  7  1  0  0  0
  2 21  1  0  0  0
  3  4  1  0  0  0
  3  6  2  0  0  0
  3 22  1  0  0  0
  4  5  1  0  0  0
  4  7  2  0  0  0
  5  8  2  0  0  0
  5 14  1  0  0  0
  6 18  1  0  0  0
  7 19  1  0  0  0
  8  9  1  0  0  0
  8 19  1  0  0  0
  9 15  1  0  0  0
  9 17  2  0  0  0
 10 11  1  0  0  0
 10 14  1  0  0  0
 10 23  1  0  0  0
 10 24  1  0  0  0
 11 13  1  0  0  0
 11 15  1  0  0  0
 11 25  1  0  0  0
 12 18  1  0  0  0
 12 26  1  0  0  0
 12 27  1  0  0  0
 12 28  1  0  0  0
 13 16  1  0  0  0
 13 29  1  0  0  0
 13 30  1  0  0  0
 14 31  1  0  0  0
 15 32  1  0  0  0
 16 33  1  0  0  0
 16 34  1  0  0  0
M  END
> <s_m_entry_id>
7462

> <s_m_entry_name>
dock_pv.23

> <s_m_Source_Path>
/home/csk/Desktop/cluster/DUD-E-result/mapk2

> <s_m_Source_File>
dock_pv.maegz

> <i_m_Source_File_Index>
23

> <chembl_id>
CHEMBL555205

> <chembl_pref_name>
None

> <i_lp_mmshare_version>
53161

> <i_f3d_flags>
0

> <r_lp_tautomer_probability>
1

> <s_lp_Force_Field>
OPLS_2005

> <r_lp_Energy>
29.679554

> <b_lp_Chiralities_Consistent>
1

> <s_lp_Variant>
CHEMBL2208_lig303-1

> <s_i_glide_gridfile>
glide-grid_3m2w

> <i_i_glide_lignum>
442

> <i_i_glide_rotatable_bonds>
2

> <r_i_docking_score>
-8.0305401003074

> <r_i_glide_ligand_efficiency>
-0.422660005279337

> <r_i_glide_ligand_efficiency_sa>
-1.12782665382927

> <r_i_glide_ligand_efficiency_ln>
-2.03591439561437

> <r_i_glide_gscore>
-8.0305401003074

> <r_i_glide_lipo>
-2.37496674478052

> <r_i_glide_hbond>
-0.709376174180661

> <r_i_glide_metal>
0

> <r_i_glide_rewards>
-1.66634125985143

> <r_i_glide_evdw>
-30.6276416778564

> <r_i_glide_ecoul>
-11.1680507659912

> <r_i_glide_erotb>
0

> <r_i_glide_esite>
-0.0732662227032827

> <r_i_glide_emodel>
-61.0403418645517

> <r_i_glide_energy>
-41.7956924438477

> <r_i_glide_einternal>
2.95480012893677

> <i_i_glide_confnum>
1

> <i_i_glide_posenum>
26

> <r_i_glide_eff_state_penalty>
0

> <s_user_duplicate_titles>
CHEMBL2208_lig303,567975

> <s_m_subgroup_title>
dock_pv

> <s_m_subgroupid>
dock_pv

> <b_m_subgroup_collapsed>
1

$$$$
CHEMBL2208_lig1493
                    3D
 Schrodinger Suite 2021-1.
 41 44  0  0  1  0            999 V2000
   42.9118    9.3234   19.0718 Cl  0  0  0  0  0  0
   39.1847    7.0052   18.1948 N   0  0  0  0  0  0
   40.1131    6.6399   13.6018 N   0  0  0  0  0  0
   41.2353    8.0474   17.4722 N   0  0  0  0  0  0
   38.1310    5.3650   13.0723 N   0  0  0  0  0  0
   38.5895    7.0253   20.5200 N   0  0  0  0  0  0
   39.8237    6.9461   15.8364 C   0  0  0  0  0  0
   38.7070    6.1921   15.3188 C   0  0  0  0  0  0
   40.0882    7.3595   17.2464 C   0  0  0  0  0  0
   38.9287    6.0183   13.9201 C   0  0  0  0  0  0
   40.6228    7.2217   14.7335 C   0  0  0  0  0  0
   39.4604    7.3757   19.4764 C   0  0  0  0  0  0
   37.5324    5.6249   15.8509 C   0  0  0  0  0  0
   41.4770    8.4250   18.7497 C   0  0  0  0  0  0
   40.6040    8.1111   19.7935 C   0  0  0  0  0  0
   36.6799    4.9351   14.9879 C   0  0  0  0  0  0
   37.0226    4.8251   13.6408 C   0  0  0  0  0  0
   37.5129    6.0552   20.3257 C   0  0  0  0  0  0
   38.1070    4.6281   20.3052 C   0  0  0  0  0  0
   36.4909    6.2139   21.4712 C   0  0  0  0  0  0
   36.9924    3.5715   20.1942 C   0  0  0  0  0  0
   35.3851    5.1402   21.4031 C   0  0  0  0  0  0
   35.9611    3.7137   21.3299 C   0  0  0  0  0  0
   40.5601    6.7052   12.6949 H   0  0  0  0  0  0
   38.9737    7.0799   21.4535 H   0  0  0  0  0  0
   41.5394    7.7901   14.6742 H   0  0  0  0  0  0
   37.2936    5.7116   16.9004 H   0  0  0  0  0  0
   40.8043    8.4199   20.8084 H   0  0  0  0  0  0
   35.7742    4.4783   15.3633 H   0  0  0  0  0  0
   36.3786    4.2713   12.9719 H   0  0  0  0  0  0
   37.0252    6.2503   19.3685 H   0  0  0  0  0  0
   38.7992    4.5112   19.4711 H   0  0  0  0  0  0
   38.6937    4.4443   21.2086 H   0  0  0  0  0  0
   36.9926    6.1455   22.4385 H   0  0  0  0  0  0
   36.0364    7.2055   21.4389 H   0  0  0  0  0  0
   36.4933    3.6599   19.2281 H   0  0  0  0  0  0
   37.4264    2.5716   20.2232 H   0  0  0  0  0  0
   34.7613    5.3142   20.5275 H   0  0  0  0  0  0
   34.7272    5.2250   22.2690 H   0  0  0  0  0  0
   35.1578    2.9882   21.1956 H   0  0  0  0  0  0
   36.4385    3.4623   22.2790 H   0  0  0  0  0  0
  1 14  1  0  0  0
  2  9  1  0  0  0
  2 12  2  0  0  0
  3 10  1  0  0  0
  3 11  1  0  0  0
  3 24  1  0  0  0
  4  9  2  0  0  0
  4 14  1  0  0  0
  5 10  2  0  0  0
  5 17  1  0  0  0
  6 12  1  0  0  0
  6 18  1  0  0  0
  6 25  1  0  0  0
  7  8  1  0  0  0
  7  9  1  0  0  0
  7 11  2  0  0  0
  8 10  1  0  0  0
  8 13  2  0  0  0
 11 26  1  0  0  0
 12 15  1  0  0  0
 13 16  1  0  0  0
 13 27  1  0  0  0
 14 15  2  0  0  0
 15 28  1  0  0  0
 16 17  2  0  0  0
 16 29  1  0  0  0
 17 30  1  0  0  0
 18 19  1  0  0  0
 18 20  1  0  0  0
 18 31  1  0  0  0
 19 21  1  0  0  0
 19 32  1  0  0  0
 19 33  1  0  0  0
 20 22  1  0  0  0
 20 34  1  0  0  0
 20 35  1  0  0  0
 21 23  1  0  0  0
 21 36  1  0  0  0
 21 37  1  0  0  0
 22 23  1  0  0  0
 22 38  1  0  0  0
 22 39  1  0  0  0
 23 40  1  0  0  0
 23 41  1  0  0  0
M  END
> <s_m_entry_id>
7463

> <s_m_entry_name>
dock_pv.24

> <s_m_Source_Path>
/home/csk/Desktop/cluster/DUD-E-result/mapk2

> <s_m_Source_File>
dock_pv.maegz

> <i_m_Source_File_Index>
24

> <chembl_id>
CHEMBL1997846

> <chembl_pref_name>
None

> <i_lp_mmshare_version>
53161

> <i_f3d_flags>
0

> <r_lp_tautomer_probability>
0.999998015729938

> <s_lp_Force_Field>
OPLS_2005

> <r_lp_Energy>
6.52109

> <b_lp_Chiralities_Consistent>
1

> <s_lp_Variant>
CHEMBL2208_lig1493-1

> <s_i_glide_gridfile>
glide-grid_3m2w

> <i_i_glide_lignum>
2080

> <i_i_glide_rotatable_bonds>
3

> <r_i_docking_score>
-8.0136647847149

> <r_i_glide_ligand_efficiency>
-0.348420208031083

> <r_i_glide_ligand_efficiency_sa>
-0.990860723696997

> <r_i_glide_ligand_efficiency_ln>
-1.9377768088389

> <r_i_glide_gscore>
-8.0136647847149

> <r_i_glide_lipo>
-1.46412597812062

> <r_i_glide_hbond>
-0.596177902644144

> <r_i_glide_metal>
0

> <r_i_glide_rewards>
-3.55802948224137

> <r_i_glide_evdw>
-43.5055541992188

> <r_i_glide_ecoul>
-4.7718825340271

> <r_i_glide_erotb>
0.524097179591306

> <r_i_glide_esite>
-0.028368511235078

> <r_i_glide_emodel>
-70.8557637097436

> <r_i_glide_energy>
-48.2774367332458

> <r_i_glide_einternal>
0.252364933490753

> <i_i_glide_confnum>
7

> <i_i_glide_posenum>
168

> <r_i_glide_eff_state_penalty>
0

> <s_user_duplicate_titles>
CHEMBL2208_lig1493

> <s_m_subgroup_title>
dock_pv

> <s_m_subgroupid>
dock_pv

> <b_m_subgroup_collapsed>
1

$$$$
CHEMBL2208_lig287
                    3D
 Schrodinger Suite 2021-1.
 33 36  0  0  1  0            999 V2000
   39.6233    6.4249   13.6238 C   0  0  0  0  0  0
   40.4142    7.1545   14.4939 C   0  0  0  0  0  0
   38.9701    6.4806   16.3922 C   0  0  0  0  0  0
   40.0854    7.1734   15.8503 C   0  0  0  0  0  0
   40.9637    8.0249   17.0781 S   0  0  0  0  0  0
   39.4223    7.6931   20.7016 N   0  0  0  0  0  0
   38.1498    6.9914   20.8324 C   0  0  1  0  0  0
   38.0523    5.7000   20.0054 C   0  0  0  0  0  0
   40.2779    7.8778   19.6812 C   0  0  0  0  0  0
   39.8857    7.4528   18.3397 C   0  0  0  0  0  0
   38.8947    6.6019   17.8336 C   0  0  0  0  0  0
   37.9454    5.9530   18.5815 N   0  0  0  0  0  0
   37.8887    6.7036   22.3201 C   0  0  0  0  0  0
   41.3645    8.4251   19.8720 O   0  0  0  0  0  0
   38.4724    5.7558   14.0748 C   0  0  0  0  0  0
   38.1270    5.7778   15.4641 C   0  0  0  0  0  0
   36.9335    5.0864   15.8310 C   0  0  0  0  0  0
   36.2070    4.3952   14.8697 C   0  0  0  0  0  0
   36.6384    4.4255   13.5542 C   0  0  0  0  0  0
   37.7281    5.1097   13.1405 N   0  0  0  0  0  0
   39.8778    6.3993   12.5735 H   0  0  0  0  0  0
   41.2753    7.6913   14.1224 H   0  0  0  0  0  0
   39.7992    8.0268   21.5769 H   0  0  0  0  0  0
   37.3690    7.6786   20.4990 H   0  0  0  0  0  0
   37.1670    5.1345   20.2992 H   0  0  0  0  0  0
   38.9099    5.0538   20.2018 H   0  0  0  0  0  0
   37.5146    5.1845   18.0893 H   0  0  0  0  0  0
   36.9526    6.1597   22.4559 H   0  0  0  0  0  0
   38.6753    6.0831   22.7541 H   0  0  0  0  0  0
   37.8042    7.6222   22.9017 H   0  0  0  0  0  0
   36.5519    5.0718   16.8352 H   0  0  0  0  0  0
   35.3100    3.8576   15.1413 H   0  0  0  0  0  0
   36.0895    3.8982   12.7877 H   0  0  0  0  0  0
  1 15  1  0  0  0
  1  2  2  0  0  0
  1 21  1  0  0  0
  2  4  1  0  0  0
  2 22  1  0  0  0
  3 11  1  0  0  0
  3 16  1  0  0  0
  3  4  2  0  0  0
  4  5  1  0  0  0
  5 10  1  0  0  0
  6  7  1  0  0  0
  6  9  1  0  0  0
  6 23  1  0  0  0
  7  8  1  0  0  0
  7 13  1  0  0  0
  7 24  1  0  0  0
  8 12  1  0  0  0
  8 25  1  0  0  0
  8 26  1  0  0  0
  9 10  1  0  0  0
  9 14  2  0  0  0
 10 11  2  0  0  0
 11 12  1  0  0  0
 12 27  1  0  0  0
 13 28  1  0  0  0
 13 29  1  0  0  0
 13 30  1  0  0  0
 15 16  2  0  0  0
 15 20  1  0  0  0
 16 17  1  0  0  0
 17 18  2  0  0  0
 17 31  1  0  0  0
 18 19  1  0  0  0
 18 32  1  0  0  0
 19 20  2  0  0  0
 19 33  1  0  0  0
M  END
> <s_m_entry_id>
7464

> <s_m_entry_name>
dock_pv.25

> <s_m_Source_Path>
/home/csk/Desktop/cluster/DUD-E-result/mapk2

> <s_m_Source_File>
dock_pv.maegz

> <i_m_Source_File_Index>
25

> <chembl_id>
CHEMBL561334

> <chembl_pref_name>
None

> <i_lp_mmshare_version>
53161

> <i_f3d_flags>
0

> <r_lp_tautomer_probability>
1

> <s_lp_Force_Field>
OPLS_2005

> <r_lp_Energy>
31.659429

> <b_lp_Chiralities_Consistent>
1

> <s_lp_Variant>
CHEMBL2208_lig287-1

> <s_i_glide_gridfile>
glide-grid_3m2w

> <i_i_glide_lignum>
426

> <i_i_glide_rotatable_bonds>
0

> <r_i_docking_score>
-7.95469779666863

> <r_i_glide_ligand_efficiency>
-0.397734889833432

> <r_i_glide_ligand_efficiency_sa>
-1.07961859062022

> <r_i_glide_ligand_efficiency_ln>
-1.99079849501362

> <r_i_glide_gscore>
-7.95469779666863

> <r_i_glide_lipo>
-2.52805771007459

> <r_i_glide_hbond>
-0.323880820366987

> <r_i_glide_metal>
0

> <r_i_glide_rewards>
-2.18781435937064

> <r_i_glide_evdw>
-34.3549995422363

> <r_i_glide_ecoul>
-7.31861782073975

> <r_i_glide_erotb>
0

> <r_i_glide_esite>
-0.0994022566336379

> <r_i_glide_emodel>
-61.2192132737027

> <r_i_glide_energy>
-41.6736173629761

> <r_i_glide_einternal>
0

> <i_i_glide_confnum>
1

> <i_i_glide_posenum>
400

> <r_i_glide_eff_state_penalty>
0

> <s_user_duplicate_titles>
CHEMBL2208_lig287

> <s_m_subgroup_title>
dock_pv

> <s_m_subgroupid>
dock_pv

> <b_m_subgroup_collapsed>
1

$$$$
CHEMBL2208_lig56
                    3D
 Schrodinger Suite 2021-1.
 38 40  0  0  1  0            999 V2000
   37.3756    4.8207   21.1207 C   0  0  0  0  0  0
   38.4654    5.4057   20.4398 C   0  0  0  0  0  0
   38.3503    5.8051   19.0969 C   0  0  0  0  0  0
   37.1490    5.5296   18.4330 C   0  0  0  0  0  0
   39.4753    6.5220   18.3214 C   0  0  1  0  0  0
   36.2145    4.4927   20.3932 C   0  0  0  0  0  0
   36.1216    4.8251   19.0462 C   0  0  0  0  0  0
   38.0485    6.0249   16.3063 C   0  0  0  0  0  0
   36.9515    5.9106   17.1268 O   0  0  0  0  0  0
   39.3214    6.3197   16.8134 C   0  0  0  0  0  0
   37.4353    4.5909   22.5703 C   0  0  0  0  0  0
   39.6044    8.0345   18.6629 C   0  0  0  0  0  0
   37.4776    4.4206   23.7135 N   0  0  0  0  0  0
   38.4624    8.8250   20.8964 N   0  0  0  0  0  0
   42.1127    8.8249   18.6720 N   0  0  0  0  0  0
   37.8425    5.7733   14.9574 C   0  0  0  0  0  0
   41.0078    8.4778   18.6623 C   0  0  0  0  0  0
   38.9671    8.4741   19.9163 C   0  0  0  0  0  0
   40.3887    6.3817   15.9093 C   0  0  0  0  0  0
   39.6933    5.6247   21.0720 N   0  0  0  0  0  0
   35.1148    3.8431   20.9622 N   0  0  0  0  0  0
   38.9141    5.8419   14.0563 C   0  0  0  0  0  0
   40.1852    6.1453   14.5471 C   0  0  0  0  0  0
   38.7898    5.6250   12.6986 O   0  0  0  0  0  0
   37.4780    5.5313   12.1620 C   0  0  0  0  0  0
   40.4021    6.0186   18.5974 H   0  0  0  0  0  0
   35.2306    4.5949   18.4794 H   0  0  0  0  0  0
   39.1029    8.6194   17.8919 H   0  0  0  0  0  0
   36.8423    5.5266   14.6367 H   0  0  0  0  0  0
   41.3850    6.6050   16.2630 H   0  0  0  0  0  0
   39.7796    5.2939   22.0304 H   0  0  0  0  0  0
   40.5222    5.5158   20.5002 H   0  0  0  0  0  0
   35.2494    3.4328   21.8761 H   0  0  0  0  0  0
   34.4418    3.4223   20.3387 H   0  0  0  0  0  0
   41.0182    6.1966   13.8605 H   0  0  0  0  0  0
   37.4780    5.4688   11.0762 H   0  0  0  0  0  0
   36.9115    6.4246   12.4294 H   0  0  0  0  0  0
   36.9602    4.6447   12.5322 H   0  0  0  0  0  0
  1  2  2  0  0  0
  1  6  1  0  0  0
  1 11  1  0  0  0
  2  3  1  0  0  0
  2 20  1  0  0  0
  3  5  1  0  0  0
  3  4  2  0  0  0
  4  7  1  0  0  0
  4  9  1  0  0  0
  5 10  1  0  0  0
  5 12  1  0  0  0
  5 26  1  0  0  0
  6  7  2  0  0  0
  6 21  1  0  0  0
  7 27  1  0  0  0
  8  9  1  0  0  0
  8 16  2  0  0  0
  8 10  1  0  0  0
 10 19  2  0  0  0
 11 13  3  0  0  0
 12 17  1  0  0  0
 12 18  1  0  0  0
 12 28  1  0  0  0
 14 18  3  0  0  0
 15 17  3  0  0  0
 16 22  1  0  0  0
 16 29  1  0  0  0
 19 23  1  0  0  0
 19 30  1  0  0  0
 20 31  1  0  0  0
 20 32  1  0  0  0
 21 33  1  0  0  0
 21 34  1  0  0  0
 22 24  1  0  0  0
 22 23  2  0  0  0
 23 35  1  0  0  0
 24 25  1  0  0  0
 25 36  1  0  0  0
 25 37  1  0  0  0
 25 38  1  0  0  0
M  END
> <s_m_entry_id>
7466

> <s_m_entry_name>
dock_pv.27

> <s_m_Source_Path>
/home/csk/Desktop/cluster/DUD-E-result/mapk2

> <s_m_Source_File>
dock_pv.maegz

> <i_m_Source_File_Index>
27

> <chembl_id>
CHEMBL3706788

> <chembl_pref_name>
None

> <i_lp_mmshare_version>
53161

> <i_f3d_flags>
0

> <r_lp_tautomer_probability>
1

> <s_lp_Force_Field>
OPLS_2005

> <r_lp_Energy>
31.000033

> <b_lp_Chiralities_Consistent>
1

> <s_lp_Variant>
CHEMBL2208_lig56-2

> <s_i_glide_gridfile>
glide-grid_3m2w

> <i_i_glide_lignum>
63

> <i_i_glide_rotatable_bonds>
2

> <r_i_docking_score>
-7.94197939230115

> <r_i_glide_ligand_efficiency>
-0.317679175692046

> <r_i_glide_ligand_efficiency_sa>
-0.928899543787714

> <r_i_glide_ligand_efficiency_ln>
-1.88248711789218

> <r_i_glide_gscore>
-7.94197939230115

> <r_i_glide_lipo>
-2.17719583136575

> <r_i_glide_hbond>
-0.873549183718632

> <r_i_glide_metal>
0

> <r_i_glide_rewards>
-1.52013397553702

> <r_i_glide_evdw>
-38.5302276611328

> <r_i_glide_ecoul>
-10.1288890838623

> <r_i_glide_erotb>
0.171435206797481

> <r_i_glide_esite>
-0.0966908628412454

> <r_i_glide_emodel>
-65.498140653209

> <r_i_glide_energy>
-48.6591167449951

> <r_i_glide_einternal>
8.77942848205566

> <i_i_glide_confnum>
3

> <i_i_glide_posenum>
158

> <r_i_glide_eff_state_penalty>
0

> <s_user_duplicate_titles>
CHEMBL2208_lig56

> <s_m_subgroup_title>
dock_pv

> <s_m_subgroupid>
dock_pv

> <b_m_subgroup_collapsed>
1

$$$$
CHEMBL2208_lig1038
                    3D
 Schrodinger Suite 2021-1.
 34 36  0  0  1  0            999 V2000
   33.2351    2.4269   22.9321 Cl  0  0  0  0  0  0
   35.5066    3.0266   18.4451 F   0  0  0  0  0  0
   38.4116    7.6066   21.2843 O   0  0  0  0  0  0
   36.7511    5.4049   17.8258 N   0  0  0  0  0  0
   39.1659    6.4811   15.2539 N   0  0  0  0  0  0
   38.6772    5.6250   13.0562 N   0  0  0  0  0  0
   39.4779    5.6234   21.0728 N   0  0  0  0  0  0
   40.6315    6.8549   13.4720 N   0  0  0  0  0  0
   36.8895    5.4579   19.1933 C   0  0  0  0  0  0
   38.0134    6.2712   19.4194 C   0  0  0  0  0  0
   37.7883    6.0243   17.1740 C   0  0  0  0  0  0
   35.9602    4.7063   20.1070 C   0  0  0  0  0  0
   38.5709    6.5797   18.1725 C   0  0  0  0  0  0
   38.0002    5.9412   15.7056 C   0  0  0  0  0  0
   35.3180    3.5240   19.6905 C   0  0  0  0  0  0
   38.6421    6.5728   20.6630 C   0  0  0  0  0  0
   35.7315    5.1645   21.4120 C   0  0  0  0  0  0
   34.4726    2.8328   20.5579 C   0  0  0  0  0  0
   37.1166    5.2637   14.8563 C   0  0  0  0  0  0
   34.2675    3.2945   21.8552 C   0  0  0  0  0  0
   34.8986    4.4597   22.2811 C   0  0  0  0  0  0
   39.4499    6.2977   13.9430 C   0  0  0  0  0  0
   37.5045    5.1294   13.5245 C   0  0  0  0  0  0
   36.0270    4.8735   17.3612 H   0  0  0  0  0  0
   39.6714    4.8223   20.4923 H   0  0  0  0  0  0
   39.9223    5.6893   21.9816 H   0  0  0  0  0  0
   40.8802    6.7824   12.4852 H   0  0  0  0  0  0
   41.1880    7.4023   14.1095 H   0  0  0  0  0  0
   39.4904    7.1244   18.0124 H   0  0  0  0  0  0
   36.1978    6.0698   21.7720 H   0  0  0  0  0  0
   33.9870    1.9276   20.2258 H   0  0  0  0  0  0
   36.1969    4.8220   15.2102 H   0  0  0  0  0  0
   34.7440    4.8234   23.2868 H   0  0  0  0  0  0
   36.8937    4.5795   12.8232 H   0  0  0  0  0  0
  1 20  1  0  0  0
  2 15  1  0  0  0
  3 16  2  0  0  0
  4  9  1  0  0  0
  4 11  1  0  0  0
  4 24  1  0  0  0
  5 14  1  0  0  0
  5 22  2  0  0  0
  6 22  1  0  0  0
  6 23  2  0  0  0
  7 16  1  0  0  0
  7 25  1  0  0  0
  7 26  1  0  0  0
  8 22  1  0  0  0
  8 27  1  0  0  0
  8 28  1  0  0  0
  9 10  2  0  0  0
  9 12  1  0  0  0
 10 13  1  0  0  0
 10 16  1  0  0  0
 11 13  2  0  0  0
 11 14  1  0  0  0
 12 15  1  0  0  0
 12 17  2  0  0  0
 13 29  1  0  0  0
 14 19  2  0  0  0
 15 18  2  0  0  0
 17 21  1  0  0  0
 17 30  1  0  0  0
 18 20  1  0  0  0
 18 31  1  0  0  0
 19 23  1  0  0  0
 19 32  1  0  0  0
 20 21  2  0  0  0
 21 33  1  0  0  0
 23 34  1  0  0  0
M  END
> <s_m_entry_id>
7467

> <s_m_entry_name>
dock_pv.28

> <s_m_Source_Path>
/home/csk/Desktop/cluster/DUD-E-result/mapk2

> <s_m_Source_File>
dock_pv.maegz

> <i_m_Source_File_Index>
28

> <chembl_id>
CHEMBL1981079

> <chembl_pref_name>
None

> <i_lp_mmshare_version>
53161

> <i_f3d_flags>
0

> <r_lp_tautomer_probability>
0.999999987636

> <s_lp_Force_Field>
OPLS_2005

> <r_lp_Energy>
0.372588

> <b_lp_Chiralities_Consistent>
1

> <s_lp_Variant>
CHEMBL2208_lig1038-1

> <s_i_glide_gridfile>
glide-grid_3m2w

> <i_i_glide_lignum>
1359

> <i_i_glide_rotatable_bonds>
3

> <r_i_docking_score>
-7.89595271488961

> <r_i_glide_ligand_efficiency>
-0.343302291951722

> <r_i_glide_ligand_efficiency_sa>
-0.976306051168464

> <r_i_glide_ligand_efficiency_ln>
-1.9093129630011

> <r_i_glide_gscore>
-7.89595271488961

> <r_i_glide_lipo>
-0.9909454845745

> <r_i_glide_hbond>
-0.804309095618999

> <r_i_glide_metal>
0

> <r_i_glide_rewards>
-2.65779328571546

> <r_i_glide_evdw>
-35.2122497558594

> <r_i_glide_ecoul>
-12.1551637649536

> <r_i_glide_erotb>
0.239493028934231

> <r_i_glide_esite>
-0.09851082537888

> <r_i_glide_emodel>
-68.9800552521646

> <r_i_glide_energy>
-47.367413520813

> <r_i_glide_einternal>
3.74664115905762

> <i_i_glide_confnum>
6

> <i_i_glide_posenum>
294

> <r_i_glide_eff_state_penalty>
0

> <s_user_duplicate_titles>
CHEMBL2208_lig1038

> <s_m_subgroup_title>
dock_pv

> <s_m_subgroupid>
dock_pv

> <b_m_subgroup_collapsed>
1

$$$$
CHEMBL2208_lig289
                    3D
 Schrodinger Suite 2021-1.
 33 36  0  0  1  0            999 V2000
   39.9855    6.8131   13.7357 C   0  0  0  0  0  0
   40.6672    7.4442   14.7605 C   0  0  0  0  0  0
   39.0219    6.5752   16.3939 C   0  0  0  0  0  0
   40.1907    7.3153   16.0652 C   0  0  0  0  0  0
   40.9174    8.0247   17.4717 S   0  0  0  0  0  0
   39.0806    7.0770   20.8684 N   0  0  0  0  0  0
   37.9181    6.1940   20.8345 C   0  0  1  0  0  0
   37.8624    5.2067   19.6624 C   0  0  0  0  0  0
   39.8777    7.6369   19.9378 C   0  0  0  0  0  0
   39.7064    7.3028   18.5285 C   0  0  0  0  0  0
   38.7660    6.5529   17.8167 C   0  0  0  0  0  0
   37.7241    5.8655   18.3791 N   0  0  0  0  0  0
   37.8105    5.4405   22.1705 C   0  0  0  0  0  0
   40.7572    8.4251   20.2730 O   0  0  0  0  0  0
   38.8087    6.0870   13.9765 C   0  0  0  0  0  0
   38.3010    5.9723   15.3079 C   0  0  0  0  0  0
   37.0775    5.2536   15.4568 C   0  0  0  0  0  0
   36.4760    4.6779   14.3468 C   0  0  0  0  0  0
   37.0637    4.8248   13.0978 C   0  0  0  0  0  0
   38.1928    5.5341   12.8995 N   0  0  0  0  0  0
   36.2793    4.0252   11.7653 Cl  0  0  0  0  0  0
   40.3351    6.9047   12.7178 H   0  0  0  0  0  0
   41.5523    8.0249   14.5453 H   0  0  0  0  0  0
   39.3453    7.3708   21.7979 H   0  0  0  0  0  0
   37.0431    6.8451   20.7708 H   0  0  0  0  0  0
   37.0097    4.5376   19.7802 H   0  0  0  0  0  0
   38.7521    4.5736   19.6569 H   0  0  0  0  0  0
   37.2659    5.2639   17.7125 H   0  0  0  0  0  0
   36.9415    4.7800   22.1775 H   0  0  0  0  0  0
   38.6780    4.8024   22.3426 H   0  0  0  0  0  0
   37.6984    6.1219   23.0168 H   0  0  0  0  0  0
   36.5770    5.1338   16.3998 H   0  0  0  0  0  0
   35.5586    4.1180   14.4589 H   0  0  0  0  0  0
  1 15  1  0  0  0
  1  2  2  0  0  0
  1 22  1  0  0  0
  2  4  1  0  0  0
  2 23  1  0  0  0
  3 11  1  0  0  0
  3 16  1  0  0  0
  3  4  2  0  0  0
  4  5  1  0  0  0
  5 10  1  0  0  0
  6  7  1  0  0  0
  6  9  1  0  0  0
  6 24  1  0  0  0
  7  8  1  0  0  0
  7 13  1  0  0  0
  7 25  1  0  0  0
  8 12  1  0  0  0
  8 26  1  0  0  0
  8 27  1  0  0  0
  9 10  1  0  0  0
  9 14  2  0  0  0
 10 11  2  0  0  0
 11 12  1  0  0  0
 12 28  1  0  0  0
 13 29  1  0  0  0
 13 30  1  0  0  0
 13 31  1  0  0  0
 15 16  2  0  0  0
 15 20  1  0  0  0
 16 17  1  0  0  0
 17 18  2  0  0  0
 17 32  1  0  0  0
 18 19  1  0  0  0
 18 33  1  0  0  0
 19 20  2  0  0  0
 19 21  1  0  0  0
M  END
> <s_m_entry_id>
7468

> <s_m_entry_name>
dock_pv.29

> <s_m_Source_Path>
/home/csk/Desktop/cluster/DUD-E-result/mapk2

> <s_m_Source_File>
dock_pv.maegz

> <i_m_Source_File_Index>
29

> <chembl_id>
CHEMBL556392

> <chembl_pref_name>
None

> <i_lp_mmshare_version>
53161

> <i_f3d_flags>
0

> <r_lp_tautomer_probability>
1

> <s_lp_Force_Field>
OPLS_2005

> <r_lp_Energy>
30.627905

> <b_lp_Chiralities_Consistent>
1

> <s_lp_Variant>
CHEMBL2208_lig289-1

> <s_i_glide_gridfile>
glide-grid_3m2w

> <i_i_glide_lignum>
428

> <i_i_glide_rotatable_bonds>
0

> <r_i_docking_score>
-7.88836111080453

> <r_i_glide_ligand_efficiency>
-0.375636243371644

> <r_i_glide_ligand_efficiency_sa>
-1.03635191231128

> <r_i_glide_ligand_efficiency_ln>
-1.95038134471192

> <r_i_glide_gscore>
-7.88836111080453

> <r_i_glide_lipo>
-2.70645939591079

> <r_i_glide_hbond>
-0.473420026641206

> <r_i_glide_metal>
0

> <r_i_glide_rewards>
-1.71723376916775

> <r_i_glide_evdw>
-34.1952934265137

> <r_i_glide_ecoul>
-8.02838802337646

> <r_i_glide_erotb>
0

> <r_i_glide_esite>
-0.0772250442526322

> <r_i_glide_emodel>
-62.2932743187607

> <r_i_glide_energy>
-42.2236814498901

> <r_i_glide_einternal>
0

> <i_i_glide_confnum>
1

> <i_i_glide_posenum>
21

> <r_i_glide_eff_state_penalty>
0

> <s_user_duplicate_titles>
CHEMBL2208_lig289

> <s_m_subgroup_title>
dock_pv

> <s_m_subgroupid>
dock_pv

> <b_m_subgroup_collapsed>
1

$$$$
CHEMBL2208_lig122
                    3D
 Schrodinger Suite 2021-1.
 29 31  0  0  1  0            999 V2000
   38.5539    5.8755   20.6183 C   0  0  0  0  0  0
   37.2755    5.3447   20.4653 C   0  0  0  0  0  0
   36.6780    5.2001   19.2113 C   0  0  0  0  0  0
   39.2949    6.2911   19.5183 C   0  0  0  0  0  0
   38.7331    6.1783   18.2381 C   0  0  0  0  0  0
   37.4194    5.6289   18.1050 C   0  0  0  0  0  0
   37.1182    5.6350   16.7576 N   0  0  0  0  0  0
   39.1848    6.5146   16.9202 C   0  0  0  0  0  0
   38.1810    6.1378   16.0406 C   0  0  0  0  0  0
   38.2741    6.3570   14.5220 C   0  0  1  0  0  0
   39.6863    6.5318   14.1383 N   0  0  1  0  0  0
   40.3062    7.5876   14.9410 C   0  0  0  0  0  0
   40.4856    7.1312   16.4147 C   0  0  0  0  0  0
   37.7207    5.2239   13.6318 C   0  0  0  0  0  0
   37.6106    4.0257   14.2721 O   0  0  0  0  0  0
   37.4781    5.3690   12.4357 O   0  0  0  0  0  0
   39.0760    6.0253   21.8719 O   0  0  0  0  0  0
   36.7342    5.0320   21.3471 H   0  0  0  0  0  0
   35.6895    4.7764   19.1094 H   0  0  0  0  0  0
   40.2811    6.7041   19.6556 H   0  0  0  0  0  0
   36.2652    5.3129   16.3192 H   0  0  0  0  0  0
   37.6922    7.2255   14.2189 H   0  0  0  0  0  0
   40.1655    5.6677   14.3503 H   0  0  0  0  0  0
   39.6959    8.4921   14.8995 H   0  0  0  0  0  0
   41.2683    7.8683   14.5103 H   0  0  0  0  0  0
   41.3194    6.4327   16.4917 H   0  0  0  0  0  0
   40.7951    7.9850   17.0175 H   0  0  0  0  0  0
   37.4777    3.3057   13.6354 H   0  0  0  0  0  0
   39.8298    5.4609   22.0865 H   0  0  0  0  0  0
  1  2  2  0  0  0
  1  4  1  0  0  0
  1 17  1  0  0  0
  2  3  1  0  0  0
  2 18  1  0  0  0
  3  6  2  0  0  0
  3 19  1  0  0  0
  4  5  2  0  0  0
  4 20  1  0  0  0
  5  6  1  0  0  0
  5  8  1  0  0  0
  6  7  1  0  0  0
  7  9  1  0  0  0
  7 21  1  0  0  0
  8  9  2  0  0  0
  8 13  1  0  0  0
  9 10  1  0  0  0
 10 11  1  0  0  0
 10 14  1  0  0  0
 10 22  1  0  0  0
 11 12  1  0  0  0
 11 23  1  0  0  0
 12 13  1  0  0  0
 12 24  1  0  0  0
 12 25  1  0  0  0
 13 26  1  0  0  0
 13 27  1  0  0  0
 14 15  1  0  0  0
 14 16  2  0  0  0
 15 28  1  0  0  0
 17 29  1  0  0  0
M  END
> <s_m_entry_id>
7469

> <s_m_entry_name>
dock_pv.30

> <s_m_Source_Path>
/home/csk/Desktop/cluster/DUD-E-result/mapk2

> <s_m_Source_File>
dock_pv.maegz

> <i_m_Source_File_Index>
30

> <chembl_id>
CHEMBL246099

> <chembl_pref_name>
None

> <i_lp_mmshare_version>
53161

> <i_f3d_flags>
0

> <r_lp_tautomer_probability>
1

> <s_lp_Force_Field>
OPLS_2005

> <r_lp_Energy>
14.836859

> <b_lp_Chiralities_Consistent>
1

> <s_lp_Variant>
CHEMBL2208_lig122-2

> <s_i_glide_gridfile>
glide-grid_3m2w

> <i_i_glide_lignum>
167

> <i_i_glide_rotatable_bonds>
3

> <r_i_docking_score>
-7.88614271681613

> <r_i_glide_ligand_efficiency>
-0.463890748048008

> <r_i_glide_ligand_efficiency_sa>
-1.19279373940604

> <r_i_glide_ligand_efficiency_ln>
-2.0573190190534

> <r_i_glide_gscore>
-7.88614271681613

> <r_i_glide_lipo>
-1.75006236805124

> <r_i_glide_hbond>
-0.577020664559145

> <r_i_glide_metal>
0

> <r_i_glide_rewards>
-2.60415740969198

> <r_i_glide_evdw>
-27.925745010376

> <r_i_glide_ecoul>
-12.5076694488525

> <r_i_glide_erotb>
0.317535393332905

> <r_i_glide_esite>
0

> <r_i_glide_emodel>
-55.7378558018273

> <r_i_glide_energy>
-40.4334144592285

> <r_i_glide_einternal>
6.71041774749756

> <i_i_glide_confnum>
1

> <i_i_glide_posenum>
137

> <r_i_glide_eff_state_penalty>
0

> <s_user_duplicate_titles>
CHEMBL2208_lig122

> <s_m_subgroup_title>
dock_pv

> <s_m_subgroupid>
dock_pv

> <b_m_subgroup_collapsed>
1

$$$$
CHEMBL2208_lig329
                    3D
 Schrodinger Suite 2021-1.
 32 35  0  0  1  0            999 V2000
   36.5443    5.1669   22.1284 C   0  0  0  0  0  0
   35.7069    4.1642   21.7664 N   0  0  0  0  0  0
   35.6261    3.8671   20.4507 C   0  0  0  0  0  0
   36.2811    4.4695   19.4327 N   0  0  0  0  0  0
   37.2775    5.8389   21.1446 C   0  0  0  0  0  0
   37.1171    5.4572   19.7789 C   0  0  0  0  0  0
   37.9810    6.2888   18.9745 C   0  0  0  0  0  0
   38.6086    7.1237   19.8934 C   0  0  0  0  0  0
   38.2064    6.8568   21.1826 N   0  0  0  0  0  0
   34.7940    2.8236   20.0988 N   0  0  0  0  0  0
   38.1945    6.2627   17.4876 C   0  0  0  0  0  0
   37.2814    5.6347   16.6308 C   0  0  0  0  0  0
   37.5108    5.5214   15.2600 C   0  0  0  0  0  0
   39.3662    6.8235   16.9627 C   0  0  0  0  0  0
   39.6162    6.7336   15.5865 C   0  0  0  0  0  0
   38.6914    6.0597   14.7329 C   0  0  0  0  0  0
   39.1114    6.0245   13.4332 N   0  0  0  0  0  0
   40.2780    6.6884   13.4720 N   0  0  0  0  0  0
   40.6382    7.1684   14.7067 C   0  0  0  0  0  0
   38.6777    7.5304   22.3789 C   0  0  0  0  0  0
   36.6186    5.4048   23.1796 H   0  0  0  0  0  0
   39.3408    7.8995   19.7293 H   0  0  0  0  0  0
   34.6073    2.1485   20.8282 H   0  0  0  0  0  0
   34.9021    2.4993   19.1517 H   0  0  0  0  0  0
   36.3679    5.2117   17.0196 H   0  0  0  0  0  0
   36.7973    5.0162   14.6256 H   0  0  0  0  0  0
   40.0856    7.3044   17.6074 H   0  0  0  0  0  0
   40.8228    6.8251   12.6234 H   0  0  0  0  0  0
   41.5476    7.7335   14.8373 H   0  0  0  0  0  0
   39.4624    8.2465   22.1367 H   0  0  0  0  0  0
   37.8451    8.0481   22.8561 H   0  0  0  0  0  0
   39.0782    6.7877   23.0707 H   0  0  0  0  0  0
  1  2  2  0  0  0
  1  5  1  0  0  0
  1 21  1  0  0  0
  2  3  1  0  0  0
  3 10  1  0  0  0
  3  4  2  0  0  0
  4  6  1  0  0  0
  5  6  2  0  0  0
  5  9  1  0  0  0
  6  7  1  0  0  0
  7  8  2  0  0  0
  7 11  1  0  0  0
  8  9  1  0  0  0
  8 22  1  0  0  0
  9 20  1  0  0  0
 10 23  1  0  0  0
 10 24  1  0  0  0
 11 12  1  0  0  0
 11 14  2  0  0  0
 12 13  2  0  0  0
 12 25  1  0  0  0
 13 16  1  0  0  0
 13 26  1  0  0  0
 14 27  1  0  0  0
 14 15  1  0  0  0
 15 16  1  0  0  0
 15 19  2  0  0  0
 16 17  2  0  0  0
 17 18  1  0  0  0
 18 28  1  0  0  0
 18 19  1  0  0  0
 19 29  1  0  0  0
 20 30  1  0  0  0
 20 31  1  0  0  0
 20 32  1  0  0  0
M  END
> <s_m_entry_id>
7470

> <s_m_entry_name>
dock_pv.31

> <s_m_Source_Path>
/home/csk/Desktop/cluster/DUD-E-result/mapk2

> <s_m_Source_File>
dock_pv.maegz

> <i_m_Source_File_Index>
31

> <chembl_id>
CHEMBL589853

> <chembl_pref_name>
None

> <i_lp_mmshare_version>
53161

> <i_f3d_flags>
0

> <r_lp_tautomer_probability>
0.0196078431372549

> <s_lp_Force_Field>
OPLS_2005

> <r_lp_Energy>
22.596374

> <b_lp_Chiralities_Consistent>
1

> <s_lp_Variant>
CHEMBL2208_lig329-2

> <s_i_glide_gridfile>
glide-grid_3m2w

> <i_i_glide_lignum>
484

> <i_i_glide_rotatable_bonds>
1

> <r_i_docking_score>
-7.86170524035799

> <r_i_glide_ligand_efficiency>
-0.393085262017899

> <r_i_glide_ligand_efficiency_sa>
-1.06699755897973

> <r_i_glide_ligand_efficiency_ln>
-1.96752552526884

> <r_i_glide_gscore>
-7.86170524035799

> <r_i_glide_lipo>
-1.95177825357862

> <r_i_glide_hbond>
-0.32

> <r_i_glide_metal>
0

> <r_i_glide_rewards>
-3.22381248484848

> <r_i_glide_evdw>
-33.8117485046387

> <r_i_glide_ecoul>
-5.50250387191772

> <r_i_glide_erotb>
0.2544787289677

> <r_i_glide_esite>
-0.104630224878987

> <r_i_glide_emodel>
-57.2594231829552

> <r_i_glide_energy>
-39.3142523765564

> <r_i_glide_einternal>
0.661466658115387

> <i_i_glide_confnum>
3

> <i_i_glide_posenum>
117

> <r_i_glide_eff_state_penalty>
0

> <s_user_duplicate_titles>
CHEMBL2208_lig329,CHEMBL2208_lig329

> <s_m_subgroup_title>
dock_pv

> <s_m_subgroupid>
dock_pv

> <b_m_subgroup_collapsed>
1

$$$$
CHEMBL2208_lig1019
                    3D
 Schrodinger Suite 2021-1.
 39 42  0  0  1  0            999 V2000
   35.8784    1.6282   16.7538 F   0  0  0  0  0  0
   32.2606    2.4250   13.6791 F   0  0  0  0  0  0
   34.9996    2.8255   13.0863 O   0  0  0  0  0  0
   40.1780    6.7862   13.6462 N   0  0  0  0  0  0
   38.2778    5.5605   12.8224 N   0  0  0  0  0  0
   35.7938    3.8084   15.0022 N   0  0  0  0  0  0
   38.7034    6.0448   15.1943 C   0  0  0  0  0  0
   39.7266    6.8099   15.8722 C   0  0  0  0  0  0
   39.0027    6.0946   13.8043 C   0  0  0  0  0  0
   36.8278    4.6533   14.5662 C   0  0  0  0  0  0
   37.5498    5.3209   15.5592 C   0  0  0  0  0  0
   39.8975    7.0630   17.3355 C   0  0  0  0  0  0
   34.1196    2.0846   15.1719 C   0  0  0  0  0  0
   40.6004    7.2236   14.8729 C   0  0  0  0  0  0
   35.0232    2.9390   14.3126 C   0  0  0  0  0  0
   37.2103    4.8280   13.2298 C   0  0  0  0  0  0
   34.5948    1.4759   16.3507 C   0  0  0  0  0  0
   32.7793    1.8719   14.8010 C   0  0  0  0  0  0
   40.6866    8.1428   17.7432 C   0  0  0  0  0  0
   39.2757    6.2675   18.3051 C   0  0  0  0  0  0
   33.7486    0.6950   17.1379 C   0  0  0  0  0  0
   31.9433    1.0839   15.5927 C   0  0  0  0  0  0
   32.4232    0.4985   16.7604 C   0  0  0  0  0  0
   40.8476    8.4248   19.0929 C   0  0  0  0  0  0
   39.4060    6.5705   19.6556 C   0  0  0  0  0  0
   40.1786    7.6590   20.0401 C   0  0  0  0  0  0
   40.6796    6.9635   12.7837 H   0  0  0  0  0  0
   35.6281    3.8212   15.9980 H   0  0  0  0  0  0
   37.2438    5.2357   16.5893 H   0  0  0  0  0  0
   41.5097    7.8021   14.9383 H   0  0  0  0  0  0
   36.6793    4.3521   12.4206 H   0  0  0  0  0  0
   41.1815    8.7735   17.0211 H   0  0  0  0  0  0
   38.7044    5.3973   18.0357 H   0  0  0  0  0  0
   34.1242    0.2418   18.0449 H   0  0  0  0  0  0
   30.9146    0.9360   15.2989 H   0  0  0  0  0  0
   31.7695   -0.1034   17.3752 H   0  0  0  0  0  0
   41.4888    9.2311   19.4001 H   0  0  0  0  0  0
   38.9238    5.9554   20.4031 H   0  0  0  0  0  0
   40.2781    7.8940   21.0869 H   0  0  0  0  0  0
  1 17  1  0  0  0
  2 18  1  0  0  0
  3 15  2  0  0  0
  4  9  1  0  0  0
  4 14  1  0  0  0
  4 27  1  0  0  0
  5  9  2  0  0  0
  5 16  1  0  0  0
  6 10  1  0  0  0
  6 15  1  0  0  0
  6 28  1  0  0  0
  7  8  1  0  0  0
  7  9  1  0  0  0
  7 11  2  0  0  0
  8 12  1  0  0  0
  8 14  2  0  0  0
 10 11  1  0  0  0
 10 16  2  0  0  0
 11 29  1  0  0  0
 12 19  2  0  0  0
 12 20  1  0  0  0
 13 15  1  0  0  0
 13 17  1  0  0  0
 13 18  2  0  0  0
 14 30  1  0  0  0
 16 31  1  0  0  0
 17 21  2  0  0  0
 18 22  1  0  0  0
 19 24  1  0  0  0
 19 32  1  0  0  0
 20 25  2  0  0  0
 20 33  1  0  0  0
 21 23  1  0  0  0
 21 34  1  0  0  0
 22 23  2  0  0  0
 22 35  1  0  0  0
 23 36  1  0  0  0
 24 26  2  0  0  0
 24 37  1  0  0  0
 25 26  1  0  0  0
 25 38  1  0  0  0
 26 39  1  0  0  0
M  END
> <s_m_entry_id>
7471

> <s_m_entry_name>
dock_pv.32

> <s_m_Source_Path>
/home/csk/Desktop/cluster/DUD-E-result/mapk2

> <s_m_Source_File>
dock_pv.maegz

> <i_m_Source_File_Index>
32

> <chembl_id>
CHEMBL1996979

> <chembl_pref_name>
None

> <i_lp_mmshare_version>
53161

> <i_f3d_flags>
0

> <r_lp_tautomer_probability>
0.999998432528457

> <s_lp_Force_Field>
OPLS_2005

> <r_lp_Energy>
25.562839

> <b_lp_Chiralities_Consistent>
1

> <s_lp_Variant>
CHEMBL2208_lig1019-1

> <s_i_glide_gridfile>
glide-grid_3m2w

> <i_i_glide_lignum>
1327

> <i_i_glide_rotatable_bonds>
4

> <r_i_docking_score>
-7.84941297476947

> <r_i_glide_ligand_efficiency>
-0.301900499029595

> <r_i_glide_ligand_efficiency_sa>
-0.894379040454075

> <r_i_glide_ligand_efficiency_ln>
-1.84340888109989

> <r_i_glide_gscore>
-7.84941297476947

> <r_i_glide_lipo>
-1.99539104989968

> <r_i_glide_hbond>
-0.59989606263757

> <r_i_glide_metal>
0

> <r_i_glide_rewards>
-3.4057611710573

> <r_i_glide_evdw>
-37.4608688354492

> <r_i_glide_ecoul>
-3.99770164489746

> <r_i_glide_erotb>
0.624333997332158

> <r_i_glide_esite>
0

> <r_i_glide_emodel>
-58.2459491514975

> <r_i_glide_energy>
-41.4585704803467

> <r_i_glide_einternal>
5.87271690368652

> <i_i_glide_confnum>
13

> <i_i_glide_posenum>
351

> <r_i_glide_eff_state_penalty>
0

> <s_user_duplicate_titles>
CHEMBL2208_lig1019

> <s_m_subgroup_title>
dock_pv

> <s_m_subgroupid>
dock_pv

> <b_m_subgroup_collapsed>
1

$$$$
CHEMBL2208_lig1266
                    3D
 Schrodinger Suite 2021-1.
 27 30  0  0  1  0            999 V2000
   38.0898    6.0337   17.3989 C   0  0  0  0  0  0
   37.1966    5.4458   16.4968 C   0  0  0  0  0  0
   37.4586    5.4083   15.1265 C   0  0  0  0  0  0
   39.2539    6.6576   16.9325 C   0  0  0  0  0  0
   39.5433    6.6283   15.5623 C   0  0  0  0  0  0
   38.6488    5.9819   14.6558 C   0  0  0  0  0  0
   40.2761    6.6629   13.4720 N   0  0  0  0  0  0
   40.5896    7.1033   14.7332 C   0  0  0  0  0  0
   37.8425    5.9547   18.8709 C   0  0  0  0  0  0
   38.2273    6.9238   19.6862 N   0  0  0  0  0  0
   37.2612    4.8842   19.5606 C   0  0  0  0  0  0
   37.3667    5.1952   20.8910 N   0  0  0  0  0  0
   37.9548    6.4711   20.9360 C   0  0  0  0  0  0
   38.1997    7.0947   22.0971 N   0  0  0  0  0  0
   37.8757    6.4251   23.2379 C   0  0  0  0  0  0
   37.2971    5.1541   23.2603 C   0  0  0  0  0  0
   37.0359    4.5288   22.0419 C   0  0  0  0  0  0
   39.1097    6.0038   13.3693 N   0  0  0  0  0  0
   36.2933    4.9796   16.8648 H   0  0  0  0  0  0
   36.7695    4.9228   14.4507 H   0  0  0  0  0  0
   39.9434    7.1189   17.6246 H   0  0  0  0  0  0
   41.4918    7.6650   14.9144 H   0  0  0  0  0  0
   36.8625    3.9430   19.2125 H   0  0  0  0  0  0
   38.1155    6.9332   24.1620 H   0  0  0  0  0  0
   37.0720    4.6645   24.1971 H   0  0  0  0  0  0
   36.6087    3.5409   21.9411 H   0  0  0  0  0  0
   40.8487    6.8251   12.6473 H   0  0  0  0  0  0
  1  2  1  0  0  0
  1  9  1  0  0  0
  1  4  2  0  0  0
  2  3  2  0  0  0
  2 19  1  0  0  0
  3  6  1  0  0  0
  3 20  1  0  0  0
  4 21  1  0  0  0
  4  5  1  0  0  0
  5  6  1  0  0  0
  5  8  2  0  0  0
  6 18  2  0  0  0
  7 27  1  0  0  0
  7 18  1  0  0  0
  7  8  1  0  0  0
  8 22  1  0  0  0
  9 10  1  0  0  0
  9 11  2  0  0  0
 10 13  2  0  0  0
 11 12  1  0  0  0
 11 23  1  0  0  0
 12 13  1  0  0  0
 12 17  1  0  0  0
 13 14  1  0  0  0
 14 15  2  0  0  0
 15 16  1  0  0  0
 15 24  1  0  0  0
 16 17  2  0  0  0
 16 25  1  0  0  0
 17 26  1  0  0  0
M  END
> <s_m_entry_id>
7472

> <s_m_entry_name>
dock_pv.33

> <s_m_Source_Path>
/home/csk/Desktop/cluster/DUD-E-result/mapk2

> <s_m_Source_File>
dock_pv.maegz

> <i_m_Source_File_Index>
33

> <chembl_id>
CHEMBL1682540

> <chembl_pref_name>
None

> <i_lp_mmshare_version>
53161

> <i_f3d_flags>
0

> <r_lp_tautomer_probability>
0.0196078431372549

> <s_lp_Force_Field>
OPLS_2005

> <r_lp_Energy>
23.665613

> <b_lp_Chiralities_Consistent>
1

> <s_lp_Variant>
CHEMBL2208_lig1266-2

> <s_i_glide_gridfile>
glide-grid_3m2w

> <i_i_glide_lignum>
1721

> <i_i_glide_rotatable_bonds>
1

> <r_i_docking_score>
-7.81330532878797

> <r_i_glide_ligand_efficiency>
-0.434072518265998

> <r_i_glide_ligand_efficiency_sa>
-1.13759181561218

> <r_i_glide_ligand_efficiency_ln>
-2.00836984612834

> <r_i_glide_gscore>
-7.81330532878797

> <r_i_glide_lipo>
-1.9483700647519

> <r_i_glide_hbond>
-0.32

> <r_i_glide_metal>
0

> <r_i_glide_rewards>
-3.40515413636364

> <r_i_glide_evdw>
-31.566686630249

> <r_i_glide_ecoul>
-5.52885961532593

> <r_i_glide_erotb>
0.310660707267627

> <r_i_glide_esite>
-0.0427785611287139

> <r_i_glide_emodel>
-54.3543642684356

> <r_i_glide_energy>
-37.095546245575

> <r_i_glide_einternal>
0.231488600373268

> <i_i_glide_confnum>
2

> <i_i_glide_posenum>
101

> <r_i_glide_eff_state_penalty>
0

> <s_user_duplicate_titles>
CHEMBL2208_lig1266,CHEMBL2208_lig1266

> <s_m_subgroup_title>
dock_pv

> <s_m_subgroupid>
dock_pv

> <b_m_subgroup_collapsed>
1

$$$$
CHEMBL2208_lig870
                    3D
 Schrodinger Suite 2021-1.
 43 46  0  0  1  0            999 V2000
   39.9770    6.4950   13.6187 N   0  0  0  0  0  0
   39.2689    6.9428   18.2342 N   0  0  0  0  0  0
   37.9518    5.2374   13.2158 N   0  0  0  0  0  0
   40.6808    8.0272   19.8558 N   0  0  0  0  0  0
   38.7790    6.8906   20.5790 N   0  0  0  0  0  0
   34.7686    2.8251   21.1111 N   0  0  0  0  0  0
   39.7862    6.8910   15.8512 C   0  0  0  0  0  0
   38.6359    6.1421   15.4051 C   0  0  0  0  0  0
   40.1103    7.3389   17.2404 C   0  0  0  0  0  0
   38.7954    5.9082   14.0050 C   0  0  0  0  0  0
   40.5480    7.1058   14.7074 C   0  0  0  0  0  0
   39.5947    7.2926   19.5098 C   0  0  0  0  0  0
   37.4774    5.6221   16.0062 C   0  0  0  0  0  0
   41.2489    8.0981   17.5159 C   0  0  0  0  0  0
   41.4941    8.4258   18.8475 C   0  0  0  0  0  0
   36.5855    4.9063   15.2081 C   0  0  0  0  0  0
   37.6448    5.9884   20.3903 C   0  0  2  0  0  0
   36.8532    4.7507   13.8498 C   0  0  0  0  0  0
   36.6726    6.1501   21.5742 C   0  0  0  0  0  0
   38.1333    4.5265   20.2956 C   0  0  0  0  0  0
   35.9023    3.7152   21.2572 C   0  0  2  0  0  0
   35.4719    5.1878   21.4351 C   0  0  0  0  0  0
   36.9337    3.5694   20.1164 C   0  0  0  0  0  0
   40.3889    6.5178   12.6935 H   0  0  0  0  0  0
   39.1800    6.9545   21.5043 H   0  0  0  0  0  0
   35.0790    1.8524   21.0721 H   0  0  0  0  0  0
   34.1817    2.8887   21.9297 H   0  0  0  0  0  0
   41.4776    7.6384   14.5812 H   0  0  0  0  0  0
   37.2798    5.7498   17.0593 H   0  0  0  0  0  0
   41.9180    8.4242   16.7377 H   0  0  0  0  0  0
   42.3599    9.0093   19.1181 H   0  0  0  0  0  0
   35.6947    4.4707   15.6387 H   0  0  0  0  0  0
   37.1387    6.2487   19.4591 H   0  0  0  0  0  0
   36.1744    4.1818   13.2305 H   0  0  0  0  0  0
   37.1857    5.9577   22.5195 H   0  0  0  0  0  0
   36.3084    7.1777   21.6288 H   0  0  0  0  0  0
   38.8314    4.4072   19.4653 H   0  0  0  0  0  0
   38.6898    4.2493   21.1931 H   0  0  0  0  0  0
   36.4274    3.4392   22.1736 H   0  0  0  0  0  0
   34.8869    5.4972   20.5700 H   0  0  0  0  0  0
   34.8237    5.2816   22.3084 H   0  0  0  0  0  0
   36.4583    3.7772   19.1566 H   0  0  0  0  0  0
   37.2920    2.5406   20.0760 H   0  0  0  0  0  0
  1 10  1  0  0  0
  1 11  1  0  0  0
  1 24  1  0  0  0
  2  9  2  0  0  0
  2 12  1  0  0  0
  3 10  2  0  0  0
  3 18  1  0  0  0
  4 12  2  0  0  0
  4 15  1  0  0  0
  5 12  1  0  0  0
  5 17  1  0  0  0
  5 25  1  0  0  0
  6 21  1  0  0  0
  6 26  1  0  0  0
  6 27  1  0  0  0
  7  8  1  0  0  0
  7  9  1  0  0  0
  7 11  2  0  0  0
  8 10  1  0  0  0
  8 13  2  0  0  0
  9 14  1  0  0  0
 11 28  1  0  0  0
 13 16  1  0  0  0
 13 29  1  0  0  0
 14 15  2  0  0  0
 14 30  1  0  0  0
 15 31  1  0  0  0
 16 18  2  0  0  0
 16 32  1  0  0  0
 17 19  1  0  0  0
 17 20  1  0  0  0
 17 33  1  0  0  0
 18 34  1  0  0  0
 19 22  1  0  0  0
 19 35  1  0  0  0
 19 36  1  0  0  0
 20 23  1  0  0  0
 20 37  1  0  0  0
 20 38  1  0  0  0
 21 22  1  0  0  0
 21 23  1  0  0  0
 21 39  1  0  0  0
 22 40  1  0  0  0
 22 41  1  0  0  0
 23 42  1  0  0  0
 23 43  1  0  0  0
M  END
> <s_m_entry_id>
7473

> <s_m_entry_name>
dock_pv.34

> <s_m_Source_Path>
/home/csk/Desktop/cluster/DUD-E-result/mapk2

> <s_m_Source_File>
dock_pv.maegz

> <i_m_Source_File_Index>
34

> <chembl_id>
CHEMBL1966628

> <chembl_pref_name>
None

> <i_lp_mmshare_version>
53161

> <i_f3d_flags>
0

> <r_lp_tautomer_probability>
0.999998420164496

> <s_lp_Force_Field>
OPLS_2005

> <r_lp_Energy>
2.497116

> <b_lp_Chiralities_Consistent>
1

> <s_lp_Variant>
CHEMBL2208_lig870-1

> <s_i_glide_gridfile>
glide-grid_3m2w

> <i_i_glide_lignum>
1107

> <i_i_glide_rotatable_bonds>
3

> <r_i_docking_score>
-7.7761412386666

> <r_i_glide_ligand_efficiency>
-0.33809309733333

> <r_i_glide_ligand_efficiency_sa>
-0.961491794617082

> <r_i_glide_ligand_efficiency_ln>
-1.88034146165998

> <r_i_glide_gscore>
-7.7761412386666

> <r_i_glide_lipo>
-1.80827546712902

> <r_i_glide_hbond>
-0.54139332823181

> <r_i_glide_metal>
0

> <r_i_glide_rewards>
-3.07166462175462

> <r_i_glide_evdw>
-41.5660972595215

> <r_i_glide_ecoul>
-5.45976734161377

> <r_i_glide_erotb>
0.583625750748594

> <r_i_glide_esite>
-0.0411636080815977

> <r_i_glide_emodel>
-67.5539841293865

> <r_i_glide_energy>
-47.0258646011353

> <r_i_glide_einternal>
2.91067552566528

> <i_i_glide_confnum>
8

> <i_i_glide_posenum>
122

> <r_i_glide_eff_state_penalty>
0

> <s_user_duplicate_titles>
CHEMBL2208_lig870

> <s_m_subgroup_title>
dock_pv

> <s_m_subgroupid>
dock_pv

> <b_m_subgroup_collapsed>
1

$$$$
CHEMBL2208_lig1069
                    3D
 Schrodinger Suite 2021-1.
 21 23  0  0  1  0            999 V2000
   37.4673    6.0248   17.3661 S   0  0  0  0  0  0
   40.9372    7.5111   16.3701 N   0  0  0  0  0  0
   37.0113    5.1857   14.7965 N   0  0  0  0  0  0
   38.6731    5.6252   13.0726 N   0  0  0  0  0  0
   40.7747    8.0212   18.7503 N   0  0  0  0  0  0
   40.6495    6.8031   13.4723 N   0  0  0  0  0  0
   38.9249    7.3590   20.0418 N   0  0  0  0  0  0
   39.0799    6.3654   15.3259 C   0  0  0  0  0  0
   39.7279    6.9391   16.4370 C   0  0  0  0  0  0
   38.9923    6.8553   17.6505 C   0  0  0  0  0  0
   37.8210    5.8016   15.6608 C   0  0  0  0  0  0
   39.4680    6.2599   13.9685 C   0  0  0  0  0  0
   39.5626    7.4150   18.8066 C   0  0  0  0  0  0
   41.3948    8.0252   17.5429 C   0  0  0  0  0  0
   37.4962    5.1276   13.5305 C   0  0  0  0  0  0
   41.2455    7.3020   14.1168 H   0  0  0  0  0  0
   40.8905    6.7205   12.4844 H   0  0  0  0  0  0
   38.0893    6.7986   20.1224 H   0  0  0  0  0  0
   39.4530    7.6053   20.8653 H   0  0  0  0  0  0
   42.3835    8.4558   17.5161 H   0  0  0  0  0  0
   36.8866    4.5943   12.8159 H   0  0  0  0  0  0
  1 10  1  0  0  0
  1 11  1  0  0  0
  2  9  1  0  0  0
  2 14  2  0  0  0
  3 11  2  0  0  0
  3 15  1  0  0  0
  4 12  1  0  0  0
  4 15  2  0  0  0
  5 13  2  0  0  0
  5 14  1  0  0  0
  6 12  1  0  0  0
  6 16  1  0  0  0
  6 17  1  0  0  0
  7 13  1  0  0  0
  7 18  1  0  0  0
  7 19  1  0  0  0
  8  9  1  0  0  0
  8 11  1  0  0  0
  8 12  2  0  0  0
  9 10  2  0  0  0
 10 13  1  0  0  0
 14 20  1  0  0  0
 15 21  1  0  0  0
M  END
> <s_m_entry_id>
7474

> <s_m_entry_name>
dock_pv.35

> <s_m_Source_Path>
/home/csk/Desktop/cluster/DUD-E-result/mapk2

> <s_m_Source_File>
dock_pv.maegz

> <i_m_Source_File_Index>
35

> <chembl_id>
CHEMBL1976090

> <chembl_pref_name>
None

> <i_lp_mmshare_version>
53161

> <i_f3d_flags>
0

> <r_lp_tautomer_probability>
1

> <s_lp_Force_Field>
OPLS_2005

> <r_lp_Energy>
3.093502

> <b_lp_Chiralities_Consistent>
1

> <s_lp_Variant>
CHEMBL2208_lig1069-1

> <s_i_glide_gridfile>
glide-grid_3m2w

> <i_i_glide_lignum>
1413

> <i_i_glide_rotatable_bonds>
0

> <r_i_docking_score>
-7.7735071359833

> <r_i_glide_ligand_efficiency>
-0.518233809065553

> <r_i_glide_ligand_efficiency_sa>
-1.27807447609004

> <r_i_glide_ligand_efficiency_ln>
-2.09638670309065

> <r_i_glide_gscore>
-7.7735071359833

> <r_i_glide_lipo>
-1.53661460190085

> <r_i_glide_hbond>
-0.608

> <r_i_glide_metal>
0

> <r_i_glide_rewards>
-3.32452748511377

> <r_i_glide_evdw>
-29.0853786468506

> <r_i_glide_ecoul>
-5.56929492950439

> <r_i_glide_erotb>
0

> <r_i_glide_esite>
-0.014701877200497

> <r_i_glide_emodel>
-51.3303907412989

> <r_i_glide_energy>
-34.654673576355

> <r_i_glide_einternal>
0

> <i_i_glide_confnum>
1

> <i_i_glide_posenum>
194

> <r_i_glide_eff_state_penalty>
0

> <s_user_duplicate_titles>
CHEMBL2208_lig1069

> <s_m_subgroup_title>
dock_pv

> <s_m_subgroupid>
dock_pv

> <b_m_subgroup_collapsed>
1

$$$$
CHEMBL2208_lig379
                    3D
 Schrodinger Suite 2021-1.
 34 36  0  0  1  0            999 V2000
   37.0306    5.3956   17.9647 N   0  0  0  0  0  0
   37.2145    5.5482   19.3182 C   0  0  0  0  0  0
   38.3303    6.3970   19.4664 C   0  0  0  0  0  0
   38.7504    6.7364   18.1714 C   0  0  0  0  0  0
   37.9804    6.0587   17.2372 C   0  0  0  0  0  0
   38.9429    6.9157   20.6623 C   0  0  0  0  0  0
   39.3603    8.0714   20.7370 O   0  0  0  0  0  0
   39.0755    6.0345   21.6514 N   0  0  0  0  0  0
   36.3139    4.8393   20.2762 C   0  0  0  0  0  0
   35.9154    5.4423   21.4719 C   0  0  0  0  0  0
   35.0849    4.7551   22.3526 C   0  0  0  0  0  0
   34.6352    3.4769   22.0326 C   0  0  0  0  0  0
   35.0157    2.8724   20.8385 C   0  0  0  0  0  0
   35.8609    3.5500   19.9660 C   0  0  0  0  0  0
   39.4924    6.2795   13.9473 C   0  0  0  0  0  0
   39.2610    6.4638   15.2647 N   0  0  0  0  0  0
   38.1103    5.9441   15.7622 C   0  0  0  0  0  0
   37.1814    5.2854   14.9455 C   0  0  0  0  0  0
   37.5137    5.1519   13.5949 C   0  0  0  0  0  0
   38.6781    5.6266   13.0775 N   0  0  0  0  0  0
   40.6754    6.8215   13.4721 N   0  0  0  0  0  0
   36.3083    4.8193   17.5575 H   0  0  0  0  0  0
   39.5884    7.3775   17.9368 H   0  0  0  0  0  0
   38.7651    5.0818   21.5325 H   0  0  0  0  0  0
   39.5696    6.2905   22.4977 H   0  0  0  0  0  0
   36.2479    6.4375   21.7288 H   0  0  0  0  0  0
   34.7878    5.2168   23.2831 H   0  0  0  0  0  0
   33.9879    2.9476   22.7162 H   0  0  0  0  0  0
   34.6596    1.8856   20.5898 H   0  0  0  0  0  0
   36.1641    3.0590   19.0529 H   0  0  0  0  0  0
   36.2641    4.8686   15.3356 H   0  0  0  0  0  0
   36.8600    4.6244   12.9146 H   0  0  0  0  0  0
   40.9121    6.7624   12.4814 H   0  0  0  0  0  0
   41.2463    7.3504   14.1121 H   0  0  0  0  0  0
  1  2  1  0  0  0
  1  5  1  0  0  0
  1 22  1  0  0  0
  2  3  2  0  0  0
  2  9  1  0  0  0
  3  4  1  0  0  0
  3  6  1  0  0  0
  4  5  2  0  0  0
  4 23  1  0  0  0
  5 17  1  0  0  0
  6  7  2  0  0  0
  6  8  1  0  0  0
  8 24  1  0  0  0
  8 25  1  0  0  0
  9 10  1  0  0  0
  9 14  2  0  0  0
 10 11  2  0  0  0
 10 26  1  0  0  0
 11 12  1  0  0  0
 11 27  1  0  0  0
 12 13  2  0  0  0
 12 28  1  0  0  0
 13 14  1  0  0  0
 13 29  1  0  0  0
 14 30  1  0  0  0
 15 16  1  0  0  0
 15 20  2  0  0  0
 15 21  1  0  0  0
 16 17  2  0  0  0
 17 18  1  0  0  0
 18 19  2  0  0  0
 18 31  1  0  0  0
 19 20  1  0  0  0
 19 32  1  0  0  0
 21 33  1  0  0  0
 21 34  1  0  0  0
M  END
> <s_m_entry_id>
7475

> <s_m_entry_name>
dock_pv.36

> <s_m_Source_Path>
/home/csk/Desktop/cluster/DUD-E-result/mapk2

> <s_m_Source_File>
dock_pv.maegz

> <i_m_Source_File_Index>
36

> <chembl_id>
CHEMBL1270230

> <chembl_pref_name>
None

> <i_lp_mmshare_version>
53161

> <i_f3d_flags>
0

> <r_lp_tautomer_probability>
0.999999987636

> <s_lp_Force_Field>
OPLS_2005

> <r_lp_Energy>
0.265656

> <b_lp_Chiralities_Consistent>
1

> <s_lp_Variant>
CHEMBL2208_lig379-1

> <s_i_glide_gridfile>
glide-grid_3m2w

> <i_i_glide_lignum>
549

> <i_i_glide_rotatable_bonds>
3

> <r_i_docking_score>
-7.75708547182351

> <r_i_glide_ligand_efficiency>
-0.369385022467786

> <r_i_glide_ligand_efficiency_sa>
-1.01910526784523

> <r_i_glide_ligand_efficiency_ln>
-1.91792370824127

> <r_i_glide_gscore>
-7.75708547182351

> <r_i_glide_lipo>
-1.01862161952935

> <r_i_glide_hbond>
-0.618733452682067

> <r_i_glide_metal>
0

> <r_i_glide_rewards>
-2.83243923411728

> <r_i_glide_evdw>
-32.6377449035645

> <r_i_glide_ecoul>
-12.49001121521

> <r_i_glide_erotb>
0.323779589001912

> <r_i_glide_esite>
-0.105681827037009

> <r_i_glide_emodel>
-63.3670932447156

> <r_i_glide_energy>
-45.1277561187744

> <r_i_glide_einternal>
5.01642322540283

> <i_i_glide_confnum>
7

> <i_i_glide_posenum>
21

> <r_i_glide_eff_state_penalty>
0

> <s_user_duplicate_titles>
CHEMBL2208_lig379

> <s_m_subgroup_title>
dock_pv

> <s_m_subgroupid>
dock_pv

> <b_m_subgroup_collapsed>
1

$$$$
CHEMBL2208_lig865
                    3D
 Schrodinger Suite 2021-1.
 34 37  0  0  1  0            999 V2000
   38.2638    6.2915   17.5418 C   0  0  0  0  0  0
   37.3190    5.6823   16.7088 C   0  0  0  0  0  0
   37.5295    5.5447   15.3363 C   0  0  0  0  0  0
   39.4490    6.8046   17.0031 C   0  0  0  0  0  0
   39.6703    6.7094   15.6185 C   0  0  0  0  0  0
   38.7128    6.0565   14.7827 C   0  0  0  0  0  0
   39.1009    6.0218   13.4707 N   0  0  0  0  0  0
   40.2772    6.6725   13.4785 N   0  0  0  0  0  0
   40.6750    7.1344   14.7103 C   0  0  0  0  0  0
   38.0017    6.4231   19.0078 C   0  0  0  0  0  0
   38.8565    6.2090   20.0865 C   0  0  0  0  0  0
   38.1080    6.5142   21.1980 N   0  0  0  0  0  0
   36.8839    6.9174   20.8464 N   0  0  0  0  0  0
   36.8268    6.8235   19.4709 N   0  0  0  0  0  0
   38.4952    6.4807   22.6054 C   0  0  0  0  0  0
   37.5509    5.7390   23.5575 C   0  0  0  0  0  0
   36.7546    4.6726   23.1202 C   0  0  0  0  0  0
   35.9007    4.0262   24.0099 C   0  0  0  0  0  0
   35.8573    4.4327   25.3412 C   0  0  0  0  0  0
   36.6648    5.4765   25.7914 C   0  0  0  0  0  0
   37.5153    6.1252   24.9003 C   0  0  0  0  0  0
   36.4036    5.2934   17.1333 H   0  0  0  0  0  0
   36.7909    5.0568   14.7175 H   0  0  0  0  0  0
   40.1712    7.2936   17.6403 H   0  0  0  0  0  0
   40.7998    6.8140   12.6173 H   0  0  0  0  0  0
   41.5895    7.6950   14.8219 H   0  0  0  0  0  0
   39.8808    5.8722   20.1646 H   0  0  0  0  0  0
   38.6108    7.5168   22.9261 H   0  0  0  0  0  0
   39.4790    6.0267   22.6777 H   0  0  0  0  0  0
   36.7889    4.3426   22.0919 H   0  0  0  0  0  0
   35.2804    3.2101   23.6686 H   0  0  0  0  0  0
   35.1987    3.9289   26.0332 H   0  0  0  0  0  0
   36.6317    5.7797   26.8276 H   0  0  0  0  0  0
   38.1467    6.9321   25.2477 H   0  0  0  0  0  0
  1  2  1  0  0  0
  1 10  1  0  0  0
  1  4  2  0  0  0
  2  3  2  0  0  0
  2 22  1  0  0  0
  3  6  1  0  0  0
  3 23  1  0  0  0
  4 24  1  0  0  0
  4  5  1  0  0  0
  5  6  1  0  0  0
  5  9  2  0  0  0
  6  7  2  0  0  0
  7  8  1  0  0  0
  8 25  1  0  0  0
  8  9  1  0  0  0
  9 26  1  0  0  0
 10 11  2  0  0  0
 10 14  1  0  0  0
 11 12  1  0  0  0
 11 27  1  0  0  0
 12 13  1  0  0  0
 12 15  1  0  0  0
 13 14  2  0  0  0
 15 16  1  0  0  0
 15 28  1  0  0  0
 15 29  1  0  0  0
 16 17  2  0  0  0
 16 21  1  0  0  0
 17 18  1  0  0  0
 17 30  1  0  0  0
 18 19  2  0  0  0
 18 31  1  0  0  0
 19 20  1  0  0  0
 19 32  1  0  0  0
 20 21  2  0  0  0
 20 33  1  0  0  0
 21 34  1  0  0  0
M  END
> <s_m_entry_id>
7476

> <s_m_entry_name>
dock_pv.37

> <s_m_Source_Path>
/home/csk/Desktop/cluster/DUD-E-result/mapk2

> <s_m_Source_File>
dock_pv.maegz

> <i_m_Source_File_Index>
37

> <chembl_id>
CHEMBL1682345

> <chembl_pref_name>
None

> <i_lp_mmshare_version>
53161

> <i_f3d_flags>
0

> <r_lp_tautomer_probability>
0.0196078431372549

> <s_lp_Force_Field>
OPLS_2005

> <r_lp_Energy>
26.479724

> <b_lp_Chiralities_Consistent>
1

> <s_lp_Variant>
CHEMBL2208_lig865-2

> <s_i_glide_gridfile>
glide-grid_3m2w

> <i_i_glide_lignum>
1101

> <i_i_glide_rotatable_bonds>
3

> <r_i_docking_score>
-7.74961208048533

> <r_i_glide_ligand_efficiency>
-0.369029146689778

> <r_i_glide_ligand_efficiency_sa>
-1.01812343355849

> <r_i_glide_ligand_efficiency_ln>
-1.91607592733431

> <r_i_glide_gscore>
-7.74961208048533

> <r_i_glide_lipo>
-2.23792876625583

> <r_i_glide_hbond>
-0.32

> <r_i_glide_metal>
0

> <r_i_glide_rewards>
-3.14865812121212

> <r_i_glide_evdw>
-34.7629280090332

> <r_i_glide_ecoul>
-6.59024429321289

> <r_i_glide_erotb>
0.711346017659921

> <r_i_glide_esite>
-0.0276881662437063

> <r_i_glide_emodel>
-57.7731944120597

> <r_i_glide_energy>
-41.3531723022461

> <r_i_glide_einternal>
4.02410459518433

> <i_i_glide_confnum>
5

> <i_i_glide_posenum>
86

> <r_i_glide_eff_state_penalty>
0

> <s_user_duplicate_titles>
CHEMBL2208_lig865,CHEMBL2208_lig865

> <s_m_subgroup_title>
dock_pv

> <s_m_subgroupid>
dock_pv

> <b_m_subgroup_collapsed>
1

$$$$
CHEMBL2208_lig214
                    3D
 Schrodinger Suite 2021-1.
 39 42  0  0  1  0            999 V2000
   39.2167    6.1160   14.0230 C   0  0  0  0  0  0
   38.0650    5.6469   14.6693 C   0  0  0  0  0  0
   37.8604    5.9113   16.0334 C   0  0  0  0  0  0
   40.2067    6.8163   14.7043 C   0  0  0  0  0  0
   37.0709    4.8147   13.8973 C   0  0  0  0  0  0
   37.0793    4.8252   12.6642 O   0  0  0  0  0  0
   36.2819    4.0245   14.6671 N   0  0  0  0  0  0
   35.3156    3.1163   14.2714 C   0  0  0  0  0  0
   40.0604    7.0175   16.0814 C   0  0  0  0  0  0
   38.8801    6.5581   16.7282 C   0  0  0  0  0  0
   40.8601    7.6302   17.0864 C   0  0  0  0  0  0
   40.2092    7.4905   18.2994 C   0  0  0  0  0  0
   38.9873    6.8877   18.0659 N   0  0  0  0  0  0
   37.9896    6.7025   19.1183 C   0  0  0  0  0  0
   38.7508    6.4173   20.4383 C   0  0  2  0  0  0
   39.8220    7.4317   20.5998 N   0  0  0  0  0  0
   40.5685    7.9833   19.6074 C   0  0  0  0  0  0
   41.4756    8.7658   19.8717 O   0  0  0  0  0  0
   34.8270    2.9234   13.0689 N   0  0  0  0  0  0
   33.8788    2.0058   13.0716 C   0  0  0  0  0  0
   33.6150    1.3954   14.2931 C   0  0  0  0  0  0
   34.6570    2.0846   15.5009 S   0  0  0  0  0  0
   39.2310    4.9527   20.5662 C   0  0  0  0  0  0
   38.1087    4.0251   20.6325 N   0  0  0  0  0  0
   39.3637    5.9323   12.9678 H   0  0  0  0  0  0
   36.9681    5.5950   16.5541 H   0  0  0  0  0  0
   41.0780    7.1785   14.1792 H   0  0  0  0  0  0
   36.4553    4.0467   15.6591 H   0  0  0  0  0  0
   41.8272    8.0910   16.9633 H   0  0  0  0  0  0
   37.2844    5.9115   18.8636 H   0  0  0  0  0  0
   37.4296    7.6239   19.2554 H   0  0  0  0  0  0
   38.0506    6.6062   21.2552 H   0  0  0  0  0  0
   40.1387    7.6132   21.5427 H   0  0  0  0  0  0
   33.3794    1.7744   12.1423 H   0  0  0  0  0  0
   32.8984    0.6246   14.5345 H   0  0  0  0  0  0
   39.8258    4.8409   21.4711 H   0  0  0  0  0  0
   39.8768    4.6807   19.7309 H   0  0  0  0  0  0
   37.7676    3.8020   19.7099 H   0  0  0  0  0  0
   38.4114    3.1335   21.0399 H   0  0  0  0  0  0
  1  2  2  0  0  0
  1  4  1  0  0  0
  1 25  1  0  0  0
  2  5  1  0  0  0
  2  3  1  0  0  0
  3 10  2  0  0  0
  3 26  1  0  0  0
  4  9  2  0  0  0
  4 27  1  0  0  0
  5  6  2  0  0  0
  5  7  1  0  0  0
  7  8  1  0  0  0
  7 28  1  0  0  0
  8 19  2  0  0  0
  8 22  1  0  0  0
  9 11  1  0  0  0
  9 10  1  0  0  0
 10 13  1  0  0  0
 11 12  2  0  0  0
 11 29  1  0  0  0
 12 13  1  0  0  0
 12 17  1  0  0  0
 13 14  1  0  0  0
 14 15  1  0  0  0
 14 30  1  0  0  0
 14 31  1  0  0  0
 15 16  1  0  0  0
 15 23  1  0  0  0
 15 32  1  0  0  0
 16 17  1  0  0  0
 16 33  1  0  0  0
 17 18  2  0  0  0
 19 20  1  0  0  0
 20 21  2  0  0  0
 20 34  1  0  0  0
 21 22  1  0  0  0
 21 35  1  0  0  0
 23 24  1  0  0  0
 23 36  1  0  0  0
 23 37  1  0  0  0
 24 38  1  0  0  0
 24 39  1  0  0  0
M  END
> <s_m_entry_id>
7478

> <s_m_entry_name>
dock_pv.39

> <s_m_Source_Path>
/home/csk/Desktop/cluster/DUD-E-result/mapk2

> <s_m_Source_File>
dock_pv.maegz

> <i_m_Source_File_Index>
39

> <chembl_id>
CHEMBL404224

> <chembl_pref_name>
None

> <i_lp_mmshare_version>
53161

> <i_f3d_flags>
0

> <r_lp_tautomer_probability>
0.999000488399163

> <s_lp_Force_Field>
OPLS_2005

> <r_lp_Energy>
26.09599

> <b_lp_Chiralities_Consistent>
1

> <s_lp_Variant>
CHEMBL2208_lig214-1

> <s_i_glide_gridfile>
glide-grid_3m2w

> <i_i_glide_lignum>
338

> <i_i_glide_rotatable_bonds>
4

> <r_i_docking_score>
-7.74641498424726

> <r_i_glide_ligand_efficiency>
-0.322767291010303

> <r_i_glide_ligand_efficiency_sa>
-0.931021972551511

> <r_i_glide_ligand_efficiency_ln>
-1.85407256555193

> <r_i_glide_gscore>
-7.74641498424726

> <r_i_glide_lipo>
-2.56355222485978

> <r_i_glide_hbond>
-0.566839252976504

> <r_i_glide_metal>
0

> <r_i_glide_rewards>
-1.45693291909157

> <r_i_glide_evdw>
-35.636100769043

> <r_i_glide_ecoul>
-11.7319192886353

> <r_i_glide_erotb>
0.487772388345099

> <r_i_glide_esite>
-0.105270043917076

> <r_i_glide_emodel>
-67.2952359457938

> <r_i_glide_energy>
-47.3680200576782

> <r_i_glide_einternal>
1.73358750343323

> <i_i_glide_confnum>
6

> <i_i_glide_posenum>
49

> <r_i_glide_eff_state_penalty>
0

> <s_user_duplicate_titles>
CHEMBL2208_lig214,434723

> <s_m_subgroup_title>
dock_pv

> <s_m_subgroupid>
dock_pv

> <b_m_subgroup_collapsed>
1

$$$$
CHEMBL2208_lig1156
                    3D
 Schrodinger Suite 2021-1.
 27 29  0  0  1  0            999 V2000
   37.8541    7.4097   21.6566 S   0  0  0  0  0  0
   40.2788    8.1002   19.9921 O   0  0  0  0  0  0
   37.2874    6.0226   17.9311 N   0  0  0  0  0  0
   38.6980    5.6251   13.0726 N   0  0  0  0  0  0
   38.4028    6.4253   17.2508 C   0  0  0  0  0  0
   39.4559    7.1375   17.9056 C   0  0  0  0  0  0
   38.4888    6.1410   15.8612 C   0  0  0  0  0  0
   39.3097    7.4238   19.2946 C   0  0  0  0  0  0
   39.6386    6.5660   15.1294 C   0  0  0  0  0  0
   38.1455    7.0187   19.9546 C   0  0  0  0  0  0
   40.5850    7.5426   17.1479 C   0  0  0  0  0  0
   40.6731    7.2618   15.7890 C   0  0  0  0  0  0
   37.1800    6.3144   19.2465 C   0  0  0  0  0  0
   37.4607    5.4523   15.1457 C   0  0  0  0  0  0
   39.6772    6.2701   13.7471 C   0  0  0  0  0  0
   37.6146    5.2265   13.7786 C   0  0  0  0  0  0
   38.6782    6.0867   22.5767 C   0  0  0  0  0  0
   40.0563    8.0584   20.9268 H   0  0  0  0  0  0
   41.3808    8.0908   17.6311 H   0  0  0  0  0  0
   41.5308    7.6003   15.2226 H   0  0  0  0  0  0
   36.2776    5.9783   19.7351 H   0  0  0  0  0  0
   36.5691    5.1088   15.6541 H   0  0  0  0  0  0
   40.5305    6.5759   13.1554 H   0  0  0  0  0  0
   36.8538    4.6952   13.2231 H   0  0  0  0  0  0
   38.6458    6.2862   23.6494 H   0  0  0  0  0  0
   39.7223    6.0254   22.2716 H   0  0  0  0  0  0
   38.2044    5.1238   22.3837 H   0  0  0  0  0  0
  1 10  1  0  0  0
  1 17  1  0  0  0
  2  8  1  0  0  0
  2 18  1  0  0  0
  3  5  2  0  0  0
  3 13  1  0  0  0
  4 15  1  0  0  0
  4 16  2  0  0  0
  5  6  1  0  0  0
  5  7  1  0  0  0
  6  8  2  0  0  0
  6 11  1  0  0  0
  7  9  1  0  0  0
  7 14  2  0  0  0
  8 10  1  0  0  0
  9 12  1  0  0  0
  9 15  2  0  0  0
 10 13  2  0  0  0
 11 12  2  0  0  0
 11 19  1  0  0  0
 12 20  1  0  0  0
 13 21  1  0  0  0
 14 16  1  0  0  0
 14 22  1  0  0  0
 15 23  1  0  0  0
 16 24  1  0  0  0
 17 25  1  0  0  0
 17 26  1  0  0  0
 17 27  1  0  0  0
M  END
> <s_m_entry_id>
7479

> <s_m_entry_name>
dock_pv.40

> <s_m_Source_Path>
/home/csk/Desktop/cluster/DUD-E-result/mapk2

> <s_m_Source_File>
dock_pv.maegz

> <i_m_Source_File_Index>
40

> <chembl_id>
CHEMBL2006933

> <chembl_pref_name>
None

> <i_lp_mmshare_version>
53161

> <i_f3d_flags>
0

> <r_lp_tautomer_probability>
1

> <s_lp_Force_Field>
OPLS_2005

> <r_lp_Energy>
15.075763

> <b_lp_Chiralities_Consistent>
1

> <s_lp_Variant>
CHEMBL2208_lig1156-1

> <s_i_glide_gridfile>
glide-grid_3m2w

> <i_i_glide_lignum>
1544

> <i_i_glide_rotatable_bonds>
2

> <r_i_docking_score>
-7.74084565383895

> <r_i_glide_ligand_efficiency>
-0.455343861990527

> <r_i_glide_ligand_efficiency_sa>
-1.17081728864974

> <r_i_glide_ligand_efficiency_ln>
-2.01941425092916

> <r_i_glide_gscore>
-7.74084565383895

> <r_i_glide_lipo>
-2.43390303039824

> <r_i_glide_hbond>
-0.32

> <r_i_glide_metal>
0

> <r_i_glide_rewards>
-2.66818117934891

> <r_i_glide_evdw>
-33.3069458007812

> <r_i_glide_ecoul>
-4.35609436035156

> <r_i_glide_erotb>
0

> <r_i_glide_esite>
0

> <r_i_glide_emodel>
-54.8946138685423

> <r_i_glide_energy>
-37.6630401611328

> <r_i_glide_einternal>
1.55177009105682

> <i_i_glide_confnum>
1

> <i_i_glide_posenum>
181

> <r_i_glide_eff_state_penalty>
0

> <s_user_duplicate_titles>
CHEMBL2208_lig1156

> <s_m_subgroup_title>
dock_pv

> <s_m_subgroupid>
dock_pv

> <b_m_subgroup_collapsed>
1

$$$$
CHEMBL2208_lig1153
                    3D
 Schrodinger Suite 2021-1.
 41 44  0  0  1  0            999 V2000
   40.1340    7.7263   18.8765 S   0  0  0  0  0  0
   41.4768    8.0250   18.3700 O   0  0  0  0  0  0
   39.3095    8.7825   19.4734 O   0  0  0  0  0  0
   40.2699    6.4968   19.9875 O   0  0  0  0  0  0
   33.4780   -0.5909   15.2743 O   0  0  0  0  0  0
   37.8599    5.2615   13.1287 O   0  0  0  0  0  0
   33.7860   -0.7576   17.5094 O   0  0  0  0  0  0
   36.2231    4.7770   15.3466 N   0  0  0  0  0  0
   39.3574    6.7214   16.2512 C   0  0  0  0  0  0
   38.4281    5.9786   15.4288 C   0  0  0  0  0  0
   39.1026    6.8533   17.6620 C   0  0  0  0  0  0
   37.2519    5.4293   16.0439 C   0  0  0  0  0  0
   38.6991    5.8699   14.0208 C   0  0  0  0  0  0
   37.9429    6.2969   18.1932 C   0  0  0  0  0  0
   37.0303    5.6266   17.4007 C   0  0  0  0  0  0
   40.4660    7.3385   15.6071 C   0  0  0  0  0  0
   34.2774    0.4253   15.6954 C   0  0  0  0  0  0
   39.8284    6.4393   13.4729 C   0  0  0  0  0  0
   34.4532    0.3316   17.0466 C   0  0  0  0  0  0
   35.7058    2.3512   15.6155 C   0  0  0  0  0  0
   40.6780    7.2026   14.2446 C   0  0  0  0  0  0
   36.4057    3.4367   14.7989 C   0  0  0  0  0  0
   34.9002    1.4149   14.9426 C   0  0  0  0  0  0
   35.2527    1.2270   17.7464 C   0  0  0  0  0  0
   35.8771    2.2458   17.0132 C   0  0  0  0  0  0
   32.9731   -1.1735   16.4463 C   0  0  0  0  0  0
   40.9686    5.8484   19.7481 H   0  0  0  0  0  0
   37.0594    4.9775   13.5843 H   0  0  0  0  0  0
   35.3201    4.8508   15.8125 H   0  0  0  0  0  0
   37.7268    6.4049   19.2477 H   0  0  0  0  0  0
   36.1306    5.2458   17.8638 H   0  0  0  0  0  0
   41.1579    7.9620   16.1410 H   0  0  0  0  0  0
   39.9901    6.3540   12.4106 H   0  0  0  0  0  0
   41.5064    7.7021   13.7691 H   0  0  0  0  0  0
   37.4637    3.2139   14.6720 H   0  0  0  0  0  0
   35.9799    3.4374   13.7939 H   0  0  0  0  0  0
   34.7674    1.4632   13.8719 H   0  0  0  0  0  0
   35.4009    1.1399   18.8142 H   0  0  0  0  0  0
   36.5160    2.9382   17.5379 H   0  0  0  0  0  0
   31.9542   -0.8189   16.6170 H   0  0  0  0  0  0
   32.9581   -2.2607   16.3732 H   0  0  0  0  0  0
  1  2  2  0  0  0
  1  3  2  0  0  0
  1  4  1  0  0  0
  1 11  1  0  0  0
  4 27  1  0  0  0
  5 17  1  0  0  0
  5 26  1  0  0  0
  6 13  1  0  0  0
  6 28  1  0  0  0
  7 19  1  0  0  0
  7 26  1  0  0  0
  8 12  1  0  0  0
  8 22  1  0  0  0
  8 29  1  0  0  0
  9 10  1  0  0  0
  9 11  2  0  0  0
  9 16  1  0  0  0
 10 12  2  0  0  0
 10 13  1  0  0  0
 11 14  1  0  0  0
 12 15  1  0  0  0
 13 18  2  0  0  0
 14 15  2  0  0  0
 14 30  1  0  0  0
 15 31  1  0  0  0
 16 21  2  0  0  0
 16 32  1  0  0  0
 17 19  1  0  0  0
 17 23  2  0  0  0
 18 21  1  0  0  0
 18 33  1  0  0  0
 19 24  2  0  0  0
 20 22  1  0  0  0
 20 23  1  0  0  0
 20 25  2  0  0  0
 21 34  1  0  0  0
 22 35  1  0  0  0
 22 36  1  0  0  0
 23 37  1  0  0  0
 24 25  1  0  0  0
 24 38  1  0  0  0
 25 39  1  0  0  0
 26 40  1  0  0  0
 26 41  1  0  0  0
M  END
> <s_m_entry_id>
7480

> <s_m_entry_name>
dock_pv.41

> <s_m_Source_Path>
/home/csk/Desktop/cluster/DUD-E-result/mapk2

> <s_m_Source_File>
dock_pv.maegz

> <i_m_Source_File_Index>
41

> <chembl_id>
CHEMBL2004544

> <chembl_pref_name>
None

> <i_lp_mmshare_version>
53161

> <i_f3d_flags>
0

> <r_lp_tautomer_probability>
1

> <s_lp_Force_Field>
OPLS_2005

> <r_lp_Energy>
37.427399

> <b_lp_Chiralities_Consistent>
1

> <s_lp_Variant>
CHEMBL2208_lig1153-1

> <s_i_glide_gridfile>
glide-grid_3m2w

> <i_i_glide_lignum>
1540

> <i_i_glide_rotatable_bonds>
6

> <r_i_docking_score>
-7.73694562661317

> <r_i_glide_ligand_efficiency>
-0.297574831792814

> <r_i_glide_ligand_efficiency_sa>
-0.88156426828579

> <r_i_glide_ligand_efficiency_ln>
-1.81699629342085

> <r_i_glide_gscore>
-7.73694562661317

> <r_i_glide_lipo>
-2.70901360544619

> <r_i_glide_hbond>
-0.475690255972899

> <r_i_glide_metal>
0

> <r_i_glide_rewards>
-1.08263821687902

> <r_i_glide_evdw>
-37.9434394836426

> <r_i_glide_ecoul>
-13.9378538131714

> <r_i_glide_erotb>
0.554451361869457

> <r_i_glide_esite>
-0.0362048640266856

> <r_i_glide_emodel>
-65.5995374074522

> <r_i_glide_energy>
-51.881293296814

> <r_i_glide_einternal>
15.4738168716431

> <i_i_glide_confnum>
114

> <i_i_glide_posenum>
397

> <r_i_glide_eff_state_penalty>
0

> <s_user_duplicate_titles>
CHEMBL2208_lig1153

> <s_m_subgroup_title>
dock_pv

> <s_m_subgroupid>
dock_pv

> <b_m_subgroup_collapsed>
1

$$$$
CHEMBL2208_lig996
                    3D
 Schrodinger Suite 2021-1.
 32 33  0  0  1  0            999 V2000
   41.6621    7.6250   16.6796 I   0  0  0  0  0  0
   36.2123    3.6025   19.6139 O   0  0  0  0  0  0
   35.8098    6.0155   20.9960 O   0  0  0  0  0  0
   37.7585    5.7491   17.0817 N   0  0  0  0  0  0
   37.0430    5.0861   14.8394 N   0  0  0  0  0  0
   38.6304    5.6250   13.0721 N   0  0  0  0  0  0
   40.6390    6.7528   13.4775 N   0  0  0  0  0  0
   39.4778    5.6186   21.0722 N   0  0  0  0  0  0
   39.1485    6.2379   15.3407 C   0  0  0  0  0  0
   37.8994    5.6516   15.7008 C   0  0  0  0  0  0
   39.7431    6.7045   16.5547 C   0  0  0  0  0  0
   39.4618    6.2002   13.9697 C   0  0  0  0  0  0
   38.8639    6.4178   17.5703 C   0  0  0  0  0  0
   36.6256    5.2391   17.8666 C   0  0  0  0  0  0
   37.0298    4.7126   19.2730 C   0  0  1  0  0  0
   37.4761    5.1017   13.5536 C   0  0  0  0  0  0
   37.0832    5.7803   20.4147 C   0  0  2  0  0  0
   38.1042    5.4481   21.5274 C   0  0  0  0  0  0
   36.4527    3.2967   20.4925 H   0  0  0  0  0  0
   35.9216    6.5181   21.8096 H   0  0  0  0  0  0
   41.2612    7.2103   14.1242 H   0  0  0  0  0  0
   40.8504    6.7101   12.4808 H   0  0  0  0  0  0
   40.0837    5.4941   21.8855 H   0  0  0  0  0  0
   39.7454    4.8726   20.4435 H   0  0  0  0  0  0
   38.9780    6.6127   18.6245 H   0  0  0  0  0  0
   36.1638    4.4342   17.2899 H   0  0  0  0  0  0
   35.8783    6.0241   17.9215 H   0  0  0  0  0  0
   38.0172    4.2634   19.1881 H   0  0  0  0  0  0
   36.8369    4.6090   12.8349 H   0  0  0  0  0  0
   37.3476    6.7484   19.9921 H   0  0  0  0  0  0
   37.9572    4.4350   21.9073 H   0  0  0  0  0  0
   37.9641    6.1211   22.3748 H   0  0  0  0  0  0
  1 11  1  0  0  0
  2 15  1  0  0  0
  2 19  1  0  0  0
  3 17  1  0  0  0
  3 20  1  0  0  0
  4 10  1  0  0  0
  4 13  1  0  0  0
  4 14  1  0  0  0
  5 10  2  0  0  0
  5 16  1  0  0  0
  6 12  1  0  0  0
  6 16  2  0  0  0
  7 12  1  0  0  0
  7 21  1  0  0  0
  7 22  1  0  0  0
  8 18  1  0  0  0
  8 23  1  0  0  0
  8 24  1  0  0  0
  9 10  1  0  0  0
  9 11  1  0  0  0
  9 12  2  0  0  0
 11 13  2  0  0  0
 13 25  1  0  0  0
 14 15  1  0  0  0
 14 26  1  0  0  0
 14 27  1  0  0  0
 15 17  1  0  0  0
 15 28  1  0  0  0
 16 29  1  0  0  0
 17 18  1  0  0  0
 17 30  1  0  0  0
 18 31  1  0  0  0
 18 32  1  0  0  0
M  END
> <s_m_entry_id>
7481

> <s_m_entry_name>
dock_pv.42

> <s_m_Source_Path>
/home/csk/Desktop/cluster/DUD-E-result/mapk2

> <s_m_Source_File>
dock_pv.maegz

> <i_m_Source_File_Index>
42

> <chembl_id>
CHEMBL1975534

> <chembl_pref_name>
None

> <i_lp_mmshare_version>
53161

> <i_f3d_flags>
0

> <r_lp_tautomer_probability>
1

> <s_lp_Force_Field>
OPLS_2005

> <r_lp_Energy>
19.67435

> <b_lp_Chiralities_Consistent>
1

> <s_lp_Variant>
CHEMBL2208_lig996-2

> <s_i_glide_gridfile>
glide-grid_3m2w

> <i_i_glide_lignum>
1295

> <i_i_glide_rotatable_bonds>
6

> <r_i_docking_score>
-7.72383214435296

> <r_i_glide_ligand_efficiency>
-0.429101785797386

> <r_i_glide_ligand_efficiency_sa>
-1.1245648112847

> <r_i_glide_ligand_efficiency_ln>
-1.9853712254301

> <r_i_glide_gscore>
-7.72383214435296

> <r_i_glide_lipo>
-1.33011982641789

> <r_i_glide_hbond>
-0.864

> <r_i_glide_metal>
0

> <r_i_glide_rewards>
-2.46762639320293

> <r_i_glide_evdw>
-29.5783977508545

> <r_i_glide_ecoul>
-12.5937156677246

> <r_i_glide_erotb>
0.305891312969279

> <r_i_glide_esite>
0

> <r_i_glide_emodel>
-57.4557538524845

> <r_i_glide_energy>
-42.1721134185791

> <r_i_glide_einternal>
8.91495704650879

> <i_i_glide_confnum>
14

> <i_i_glide_posenum>
119

> <r_i_glide_eff_state_penalty>
0

> <s_user_duplicate_titles>
CHEMBL2208_lig996

> <s_m_subgroup_title>
dock_pv

> <s_m_subgroupid>
dock_pv

> <b_m_subgroup_collapsed>
1

$$$$
CHEMBL2208_lig217
                    3D
 Schrodinger Suite 2021-1.
 42 45  0  0  1  0            999 V2000
   39.2483    6.0764   13.7282 C   0  0  0  0  0  0
   38.1193    5.5914   14.4018 C   0  0  0  0  0  0
   37.9808    5.7978   15.7831 C   0  0  0  0  0  0
   40.2523    6.7805   14.3852 C   0  0  0  0  0  0
   37.0674    4.8250   13.6370 C   0  0  0  0  0  0
   37.0780    4.8250   12.4046 O   0  0  0  0  0  0
   36.2046    4.1162   14.4108 N   0  0  0  0  0  0
   35.1586    3.2235   14.1019 C   0  0  0  0  0  0
   40.1445    6.9736   15.7672 C   0  0  0  0  0  0
   39.0087    6.4599   16.4473 C   0  0  0  0  0  0
   40.9407    7.6250   16.7521 C   0  0  0  0  0  0
   40.3156    7.4799   17.9788 C   0  0  0  0  0  0
   39.1553    6.7528   17.7869 N   0  0  0  0  0  0
   38.2136    6.4418   18.8566 C   0  0  0  0  0  0
   38.9999    6.3874   20.1888 C   0  0  1  0  0  0
   39.8853    7.5704   20.2731 N   0  0  0  0  0  0
   40.6746    8.0250   19.2683 C   0  0  0  0  0  0
   41.5768    8.8250   19.4939 O   0  0  0  0  0  0
   34.4928    2.6419   15.1869 C   0  0  0  0  0  0
   33.4275    1.7665   14.9710 C   0  0  0  0  0  0
   33.0526    1.4889   13.6571 C   0  0  0  0  0  0
   33.6847    2.0250   12.5844 N   0  0  0  0  0  0
   34.7276    2.8647   12.8152 C   0  0  0  0  0  0
   38.0339    6.1911   21.3809 C   0  0  0  0  0  0
   38.6779    6.4250   22.6623 N   0  0  0  0  0  0
   39.3563    5.9287   12.6632 H   0  0  0  0  0  0
   37.1228    5.4535   16.3405 H   0  0  0  0  0  0
   41.0917    7.1697   13.8296 H   0  0  0  0  0  0
   36.3499    4.2186   15.4011 H   0  0  0  0  0  0
   41.8709    8.1504   16.5994 H   0  0  0  0  0  0
   37.7152    5.4921   18.6582 H   0  0  0  0  0  0
   37.4516    7.2200   18.8939 H   0  0  0  0  0  0
   39.6627    5.5170   20.1825 H   0  0  0  0  0  0
   40.1197    7.8688   21.2099 H   0  0  0  0  0  0
   34.7792    2.8794   16.2019 H   0  0  0  0  0  0
   32.9008    1.3248   15.8042 H   0  0  0  0  0  0
   32.2270    0.8253   13.4463 H   0  0  0  0  0  0
   35.2081    3.2619   11.9339 H   0  0  0  0  0  0
   37.6233    5.1799   21.3685 H   0  0  0  0  0  0
   37.1906    6.8790   21.3026 H   0  0  0  0  0  0
   38.0547    6.2405   23.4356 H   0  0  0  0  0  0
   39.4879    5.8242   22.8108 H   0  0  0  0  0  0
  1  2  2  0  0  0
  1  4  1  0  0  0
  1 26  1  0  0  0
  2  5  1  0  0  0
  2  3  1  0  0  0
  3 10  2  0  0  0
  3 27  1  0  0  0
  4  9  2  0  0  0
  4 28  1  0  0  0
  5  6  2  0  0  0
  5  7  1  0  0  0
  7  8  1  0  0  0
  7 29  1  0  0  0
  8 19  2  0  0  0
  8 23  1  0  0  0
  9 10  1  0  0  0
  9 11  1  0  0  0
 10 13  1  0  0  0
 11 12  2  0  0  0
 11 30  1  0  0  0
 12 13  1  0  0  0
 12 17  1  0  0  0
 13 14  1  0  0  0
 14 15  1  0  0  0
 14 31  1  0  0  0
 14 32  1  0  0  0
 15 16  1  0  0  0
 15 24  1  0  0  0
 15 33  1  0  0  0
 16 17  1  0  0  0
 16 34  1  0  0  0
 17 18  2  0  0  0
 19 20  1  0  0  0
 19 35  1  0  0  0
 20 21  2  0  0  0
 20 36  1  0  0  0
 21 22  1  0  0  0
 21 37  1  0  0  0
 22 23  2  0  0  0
 23 38  1  0  0  0
 24 25  1  0  0  0
 24 39  1  0  0  0
 24 40  1  0  0  0
 25 41  1  0  0  0
 25 42  1  0  0  0
M  END
> <s_m_entry_id>
7482

> <s_m_entry_name>
dock_pv.43

> <s_m_Source_Path>
/home/csk/Desktop/cluster/DUD-E-result/mapk2

> <s_m_Source_File>
dock_pv.maegz

> <i_m_Source_File_Index>
43

> <chembl_id>
CHEMBL255180

> <chembl_pref_name>
None

> <i_lp_mmshare_version>
53161

> <i_f3d_flags>
0

> <r_lp_tautomer_probability>
1

> <s_lp_Force_Field>
OPLS_2005

> <r_lp_Energy>
32.745738

> <b_lp_Chiralities_Consistent>
1

> <s_lp_Variant>
CHEMBL2208_lig217-1

> <s_i_glide_gridfile>
glide-grid_3m2w

> <i_i_glide_lignum>
342

> <i_i_glide_rotatable_bonds>
4

> <r_i_docking_score>
-7.71917891772555

> <r_i_glide_ligand_efficiency>
-0.308767156709022

> <r_i_glide_ligand_efficiency_sa>
-0.902840642226021

> <r_i_glide_ligand_efficiency_ln>
-1.82967672862633

> <r_i_glide_gscore>
-7.71917891772555

> <r_i_glide_lipo>
-2.63052366023528

> <r_i_glide_hbond>
-0.631943346966912

> <r_i_glide_metal>
0

> <r_i_glide_rewards>
-1.4514573675276

> <r_i_glide_evdw>
-37.3919944763184

> <r_i_glide_ecoul>
-10.3598871231079

> <r_i_glide_erotb>
0.50341694382946

> <r_i_glide_esite>
-0.0850886945431204

> <r_i_glide_emodel>
-68.6615245224662

> <r_i_glide_energy>
-47.7518815994263

> <r_i_glide_einternal>
1.23892378807068

> <i_i_glide_confnum>
5

> <i_i_glide_posenum>
249

> <r_i_glide_eff_state_penalty>
0

> <s_user_duplicate_titles>
CHEMBL2208_lig217

> <s_m_subgroup_title>
dock_pv

> <s_m_subgroupid>
dock_pv

> <b_m_subgroup_collapsed>
1

$$$$
CHEMBL2208_lig207
                    3D
 Schrodinger Suite 2021-1.
 48 51  0  0  1  0            999 V2000
   39.2543    6.1286   14.0079 C   0  0  0  0  0  0
   38.0954    5.6100   14.6037 C   0  0  0  0  0  0
   37.8477    5.8095   15.9716 C   0  0  0  0  0  0
   40.1994    6.8403   14.7377 C   0  0  0  0  0  0
   37.1250    4.8251   13.7563 C   0  0  0  0  0  0
   37.2099    4.8731   12.5262 O   0  0  0  0  0  0
   36.2411    4.0514   14.4308 N   0  0  0  0  0  0
   35.2583    3.2519   13.8733 C   0  0  0  0  0  0
   39.9895    7.0173   16.1077 C   0  0  0  0  0  0
   38.8134    6.4897   16.7123 C   0  0  0  0  0  0
   40.7172    7.6611   17.1399 C   0  0  0  0  0  0
   40.0332    7.4798   18.3253 C   0  0  0  0  0  0
   38.8640    6.7981   18.0598 N   0  0  0  0  0  0
   37.8480    6.5122   19.0684 C   0  0  0  0  0  0
   38.5113    6.4492   20.4729 C   0  0  2  0  0  0
   39.5751    7.4739   20.6130 N   0  0  0  0  0  0
   40.3485    7.9926   19.6263 C   0  0  0  0  0  0
   41.2524    8.7833   19.8720 O   0  0  0  0  0  0
   34.9011    3.2118   12.6117 N   0  0  0  0  0  0
   33.8778    2.4048   12.4268 C   0  0  0  0  0  0
   33.4137    1.7276   13.5514 C   0  0  0  0  0  0
   34.3611    2.2080   14.9264 S   0  0  0  0  0  0
   38.9653    5.0172   20.8508 C   0  0  0  0  0  0
   37.8801    4.0252   20.8670 N   0  0  2  0  0  0
   36.8089    4.2404   21.8391 C   0  0  0  0  0  0
   37.3515    4.2958   23.2803 C   0  0  0  0  0  0
   35.8142    3.0843   21.6589 C   0  0  0  0  0  0
   39.4387    5.9867   12.9513 H   0  0  0  0  0  0
   36.9540    5.4423   16.4547 H   0  0  0  0  0  0
   41.0776    7.2426   14.2536 H   0  0  0  0  0  0
   36.3349    3.9944   15.4318 H   0  0  0  0  0  0
   41.6539    8.1896   17.0543 H   0  0  0  0  0  0
   37.3231    5.5892   18.8225 H   0  0  0  0  0  0
   37.0962    7.2944   19.0714 H   0  0  0  0  0  0
   37.7486    6.7577   21.1867 H   0  0  0  0  0  0
   39.8842    7.6739   21.5541 H   0  0  0  0  0  0
   33.4724    2.3010   11.4308 H   0  0  0  0  0  0
   32.6034    1.0183   13.6374 H   0  0  0  0  0  0
   39.4779    5.0264   21.8122 H   0  0  0  0  0  0
   39.7130    4.6813   20.1309 H   0  0  0  0  0  0
   38.2808    3.1039   21.0721 H   0  0  0  0  0  0
   36.2868    5.1687   21.6049 H   0  0  0  0  0  0
   36.5414    4.3142   24.0082 H   0  0  0  0  0  0
   37.9760    3.4303   23.5058 H   0  0  0  0  0  0
   37.9510    5.1878   23.4539 H   0  0  0  0  0  0
   34.9615    3.1877   22.3318 H   0  0  0  0  0  0
   35.4217    3.0434   20.6422 H   0  0  0  0  0  0
   36.2747    2.1178   21.8706 H   0  0  0  0  0  0
  1  2  2  0  0  0
  1  4  1  0  0  0
  1 28  1  0  0  0
  2  3  1  0  0  0
  2  5  1  0  0  0
  3 10  2  0  0  0
  3 29  1  0  0  0
  4  9  2  0  0  0
  4 30  1  0  0  0
  5  6  2  0  0  0
  5  7  1  0  0  0
  7  8  1  0  0  0
  7 31  1  0  0  0
  8 19  2  0  0  0
  8 22  1  0  0  0
  9 10  1  0  0  0
  9 11  1  0  0  0
 10 13  1  0  0  0
 11 12  2  0  0  0
 11 32  1  0  0  0
 12 17  1  0  0  0
 12 13  1  0  0  0
 13 14  1  0  0  0
 14 15  1  0  0  0
 14 33  1  0  0  0
 14 34  1  0  0  0
 15 16  1  0  0  0
 15 23  1  0  0  0
 15 35  1  0  0  0
 16 17  1  0  0  0
 16 36  1  0  0  0
 17 18  2  0  0  0
 19 20  1  0  0  0
 20 21  2  0  0  0
 20 37  1  0  0  0
 21 22  1  0  0  0
 21 38  1  0  0  0
 23 24  1  0  0  0
 23 39  1  0  0  0
 23 40  1  0  0  0
 24 25  1  0  0  0
 24 41  1  0  0  0
 25 26  1  0  0  0
 25 27  1  0  0  0
 25 42  1  0  0  0
 26 43  1  0  0  0
 26 44  1  0  0  0
 26 45  1  0  0  0
 27 46  1  0  0  0
 27 47  1  0  0  0
 27 48  1  0  0  0
M  END
> <s_m_entry_id>
7483

> <s_m_entry_name>
dock_pv.44

> <s_m_Source_Path>
/home/csk/Desktop/cluster/DUD-E-result/mapk2

> <s_m_Source_File>
dock_pv.maegz

> <i_m_Source_File_Index>
44

> <chembl_id>
CHEMBL272148

> <chembl_pref_name>
None

> <i_lp_mmshare_version>
53161

> <i_f3d_flags>
0

> <r_lp_tautomer_probability>
0.999000488399163

> <s_lp_Force_Field>
OPLS_2005

> <r_lp_Energy>
24.853799

> <b_lp_Chiralities_Consistent>
1

> <s_lp_Variant>
CHEMBL2208_lig207-1

> <s_i_glide_gridfile>
glide-grid_3m2w

> <i_i_glide_lignum>
325

> <i_i_glide_rotatable_bonds>
6

> <r_i_docking_score>
-7.71628328671675

> <r_i_glide_ligand_efficiency>
-0.285788269878398

> <r_i_glide_ligand_efficiency_sa>
-0.857364808693283

> <r_i_glide_ligand_efficiency_ln>
-1.79622353627545

> <r_i_glide_gscore>
-7.71628328671675

> <r_i_glide_lipo>
-2.66543394015581

> <r_i_glide_hbond>
-0.671755508528067

> <r_i_glide_metal>
0

> <r_i_glide_rewards>
-1.11149440604695

> <r_i_glide_evdw>
-37.977855682373

> <r_i_glide_ecoul>
-12.8639240264893

> <r_i_glide_erotb>
0.66075207515154

> <r_i_glide_esite>
-0.0998701190454128

> <r_i_glide_emodel>
-71.4179610193015

> <r_i_glide_energy>
-50.8417797088623

> <r_i_glide_einternal>
6.06724977493286

> <i_i_glide_confnum>
38

> <i_i_glide_posenum>
24

> <r_i_glide_eff_state_penalty>
0

> <s_user_duplicate_titles>
CHEMBL2208_lig207

> <s_m_subgroup_title>
dock_pv

> <s_m_subgroupid>
dock_pv

> <b_m_subgroup_collapsed>
1

$$$$
CHEMBL2208_lig160
                    3D
 Schrodinger Suite 2021-1.
 31 33  0  0  1  0            999 V2000
   38.2016    6.0134   19.2810 C   0  0  1  0  0  0
   39.4010    6.4253   13.9534 C   0  0  0  0  0  0
   38.2733    5.7653   14.4578 C   0  0  0  0  0  0
   38.0480    5.7411   15.8448 C   0  0  0  0  0  0
   40.2775    7.1425   14.7604 C   0  0  0  0  0  0
   40.0235    7.1300   16.1307 C   0  0  0  0  0  0
   38.9314    6.4136   16.7000 C   0  0  0  0  0  0
   40.6756    7.7488   17.1704 N   0  0  0  0  0  0
   40.0932    7.4189   18.3688 C   0  0  0  0  0  0
   39.0213    6.5718   18.1232 C   0  0  0  0  0  0
   39.1241    6.0381   20.5348 C   0  0  0  0  0  0
   39.7963    7.3536   20.6574 N   0  0  0  0  0  0
   40.4984    7.9321   19.6506 C   0  0  0  0  0  0
   41.3126    8.8249   19.8680 O   0  0  0  0  0  0
   36.8940    6.7831   19.5190 C   0  0  0  0  0  0
   37.3156    5.1179   13.4861 C   0  0  0  0  0  0
   36.2842    4.4250   13.9778 N   0  0  0  0  0  0
   37.4782    5.2242   12.2719 O   0  0  0  0  0  0
   37.9451    4.9731   19.0765 H   0  0  0  0  0  0
   39.5961    6.4249   12.8897 H   0  0  0  0  0  0
   37.2028    5.2232   16.2746 H   0  0  0  0  0  0
   41.1036    7.6871   14.3314 H   0  0  0  0  0  0
   41.4701    8.3711   17.1148 H   0  0  0  0  0  0
   39.8786    5.2526   20.4633 H   0  0  0  0  0  0
   38.5588    5.8291   21.4454 H   0  0  0  0  0  0
   39.9069    7.7384   21.5853 H   0  0  0  0  0  0
   36.3066    6.8373   18.6023 H   0  0  0  0  0  0
   36.2833    6.2895   20.2750 H   0  0  0  0  0  0
   37.0800    7.7994   19.8715 H   0  0  0  0  0  0
   35.6654    3.9595   13.3316 H   0  0  0  0  0  0
   36.1237    4.3523   14.9695 H   0  0  0  0  0  0
  1 10  1  0  0  0
  1 11  1  0  0  0
  1 15  1  0  0  0
  1 19  1  0  0  0
  2  3  2  0  0  0
  2  5  1  0  0  0
  2 20  1  0  0  0
  3  4  1  0  0  0
  3 16  1  0  0  0
  4  7  2  0  0  0
  4 21  1  0  0  0
  5  6  2  0  0  0
  5 22  1  0  0  0
  6  7  1  0  0  0
  6  8  1  0  0  0
  7 10  1  0  0  0
  8  9  1  0  0  0
  8 23  1  0  0  0
  9 10  2  0  0  0
  9 13  1  0  0  0
 11 12  1  0  0  0
 11 24  1  0  0  0
 11 25  1  0  0  0
 12 13  1  0  0  0
 12 26  1  0  0  0
 13 14  2  0  0  0
 15 27  1  0  0  0
 15 28  1  0  0  0
 15 29  1  0  0  0
 16 17  1  0  0  0
 16 18  2  0  0  0
 17 30  1  0  0  0
 17 31  1  0  0  0
M  END
> <s_m_entry_id>
7484

> <s_m_entry_name>
dock_pv.45

> <s_m_Source_Path>
/home/csk/Desktop/cluster/DUD-E-result/mapk2

> <s_m_Source_File>
dock_pv.maegz

> <i_m_Source_File_Index>
45

> <chembl_id>
CHEMBL246892

> <chembl_pref_name>
None

> <i_lp_mmshare_version>
53161

> <i_f3d_flags>
0

> <r_lp_tautomer_probability>
1

> <s_lp_Force_Field>
OPLS_2005

> <r_lp_Energy>
19.058453

> <b_lp_Chiralities_Consistent>
1

> <s_lp_Variant>
CHEMBL2208_lig160-2

> <s_i_glide_gridfile>
glide-grid_3m2w

> <i_i_glide_lignum>
242

> <i_i_glide_rotatable_bonds>
1

> <r_i_docking_score>
-7.7145761013291

> <r_i_glide_ligand_efficiency>
-0.42858756118495

> <r_i_glide_ligand_efficiency_sa>
-1.12321716155827

> <r_i_glide_ligand_efficiency_ln>
-1.98299200729881

> <r_i_glide_gscore>
-7.7145761013291

> <r_i_glide_lipo>
-2.12408114648046

> <r_i_glide_hbond>
-0.48

> <r_i_glide_metal>
0

> <r_i_glide_rewards>
-1.97219932765063

> <r_i_glide_evdw>
-30.2915744781494

> <r_i_glide_ecoul>
-10.1417112350464

> <r_i_glide_erotb>
0

> <r_i_glide_esite>
-0.102460218033589

> <r_i_glide_emodel>
-58.960296722258

> <r_i_glide_energy>
-40.4332857131958

> <r_i_glide_einternal>
0.0290669109672308

> <i_i_glide_confnum>
1

> <i_i_glide_posenum>
381

> <r_i_glide_eff_state_penalty>
0

> <s_user_duplicate_titles>
CHEMBL2208_lig160

> <s_m_subgroup_title>
dock_pv

> <s_m_subgroupid>
dock_pv

> <b_m_subgroup_collapsed>
1

$$$$
CHEMBL2208_lig479
                    3D
 Schrodinger Suite 2021-1.
 43 46  0  0  1  0            999 V2000
   37.9480    5.2836   13.0720 N   0  0  0  0  0  0
   37.0449    4.8860   14.0041 C   0  0  0  0  0  0
   37.1673    5.2232   15.3578 C   0  0  0  0  0  0
   39.0062    6.0250   13.4723 C   0  0  0  0  0  0
   39.2329    6.4250   14.8031 C   0  0  0  0  0  0
   38.2831    5.9990   15.7700 C   0  0  0  0  0  0
   40.5189    7.5680   16.5434 C   0  0  0  0  0  0
   40.3374    7.2090   15.2064 C   0  0  0  0  0  0
   39.6037    7.1403   17.5236 C   0  0  0  0  0  0
   38.5023    6.3568   17.1221 C   0  0  0  0  0  0
   37.7704    6.0257   18.2357 N   0  0  0  0  0  0
   38.3575    6.5789   19.3504 C   0  0  0  0  0  0
   39.4792    7.3291   18.9476 C   0  0  0  0  0  0
   40.3446    8.0841   19.8071 C   0  0  0  0  0  0
   39.7658    8.4245   20.9939 O   0  0  0  0  0  0
   41.4778    8.4280   19.4724 O   0  0  0  0  0  0
   37.7506    6.2993   20.7144 C   0  0  0  0  0  0
   37.1765    7.5066   21.2849 N   0  0  0  0  0  0
   35.9644    4.0252   13.4877 C   0  0  0  0  0  0
   35.0792    3.3108   14.2134 C   0  0  0  0  0  0
   34.0235    2.4247   13.6790 C   0  0  0  0  0  0
   33.6636    2.4167   12.3229 C   0  0  0  0  0  0
   32.6785    1.5479   11.8620 C   0  0  0  0  0  0
   32.0439    0.6877   12.7537 C   0  0  0  0  0  0
   32.3869    0.6899   14.1032 C   0  0  0  0  0  0
   33.3759    1.5554   14.5629 C   0  0  0  0  0  0
   36.4435    4.8985   16.0894 H   0  0  0  0  0  0
   39.7045    6.3208   12.7012 H   0  0  0  0  0  0
   41.3691    8.1743   16.8199 H   0  0  0  0  0  0
   41.0507    7.5378   14.4636 H   0  0  0  0  0  0
   36.9431    5.4492   18.2850 H   0  0  0  0  0  0
   38.8717    8.0522   21.0878 H   0  0  0  0  0  0
   36.9861    5.5203   20.6753 H   0  0  0  0  0  0
   38.5228    5.9286   21.3927 H   0  0  0  0  0  0
   36.3494    7.7753   20.7691 H   0  0  0  0  0  0
   36.8537    7.3089   22.2263 H   0  0  0  0  0  0
   35.9148    3.9672   12.4109 H   0  0  0  0  0  0
   35.1237    3.3719   15.2908 H   0  0  0  0  0  0
   34.1399    3.0752   11.6130 H   0  0  0  0  0  0
   32.4086    1.5419   10.8164 H   0  0  0  0  0  0
   31.2765    0.0166   12.3970 H   0  0  0  0  0  0
   31.8882    0.0246   14.7922 H   0  0  0  0  0  0
   33.6370    1.5450   15.6120 H   0  0  0  0  0  0
  1  2  2  0  0  0
  1  4  1  0  0  0
  2 19  1  0  0  0
  2  3  1  0  0  0
  3  6  2  0  0  0
  3 27  1  0  0  0
  4  5  2  0  0  0
  4 28  1  0  0  0
  5  8  1  0  0  0
  5  6  1  0  0  0
  6 10  1  0  0  0
  7  9  1  0  0  0
  7  8  2  0  0  0
  7 29  1  0  0  0
  8 30  1  0  0  0
  9 13  1  0  0  0
  9 10  2  0  0  0
 10 11  1  0  0  0
 11 12  1  0  0  0
 11 31  1  0  0  0
 12 13  2  0  0  0
 12 17  1  0  0  0
 13 14  1  0  0  0
 14 15  1  0  0  0
 14 16  2  0  0  0
 15 32  1  0  0  0
 17 18  1  0  0  0
 17 33  1  0  0  0
 17 34  1  0  0  0
 18 35  1  0  0  0
 18 36  1  0  0  0
 19 20  2  0  0  0
 19 37  1  0  0  0
 20 21  1  0  0  0
 20 38  1  0  0  0
 21 22  2  0  0  0
 21 26  1  0  0  0
 22 23  1  0  0  0
 22 39  1  0  0  0
 23 24  2  0  0  0
 23 40  1  0  0  0
 24 25  1  0  0  0
 24 41  1  0  0  0
 25 26  2  0  0  0
 25 42  1  0  0  0
 26 43  1  0  0  0
M  END
> <s_m_entry_id>
7485

> <s_m_entry_name>
dock_pv.46

> <s_m_Source_Path>
/home/csk/Desktop/cluster/DUD-E-result/mapk2

> <s_m_Source_File>
dock_pv.maegz

> <i_m_Source_File_Index>
46

> <chembl_id>
CHEMBL1801313

> <chembl_pref_name>
None

> <i_lp_mmshare_version>
53161

> <i_f3d_flags>
0

> <r_lp_tautomer_probability>
1

> <s_lp_Force_Field>
OPLS_2005

> <r_lp_Energy>
21.688152

> <b_lp_Chiralities_Consistent>
1

> <s_lp_Variant>
CHEMBL2208_lig479-1

> <s_i_glide_gridfile>
glide-grid_3m2w

> <i_i_glide_lignum>
649

> <i_i_glide_rotatable_bonds>
5

> <r_i_docking_score>
-7.70713375758866

> <r_i_glide_ligand_efficiency>
-0.296428221445718

> <r_i_glide_ligand_efficiency_sa>
-0.87816743964421

> <r_i_glide_ligand_efficiency_ln>
-1.80999507380116

> <r_i_glide_gscore>
-7.70713375758866

> <r_i_glide_lipo>
-3.02837267661939

> <r_i_glide_hbond>
-0.326111570584625

> <r_i_glide_metal>
0

> <r_i_glide_rewards>
-1.57608036806937

> <r_i_glide_evdw>
-41.3312110900879

> <r_i_glide_ecoul>
-7.55069208145142

> <r_i_glide_erotb>
0.482769061810227

> <r_i_glide_esite>
-0.0601738374033921

> <r_i_glide_emodel>
-71.4613213137156

> <r_i_glide_energy>
-48.8819031715393

> <r_i_glide_einternal>
2.2288806438446

> <i_i_glide_confnum>
10

> <i_i_glide_posenum>
381

> <r_i_glide_eff_state_penalty>
0

> <s_user_duplicate_titles>
CHEMBL2208_lig479

> <s_m_subgroup_title>
dock_pv

> <s_m_subgroupid>
dock_pv

> <b_m_subgroup_collapsed>
1

$$$$
CHEMBL2208_lig213
                    3D
 Schrodinger Suite 2021-1.
 39 42  0  0  1  0            999 V2000
   39.2609    6.1298   13.8739 C   0  0  0  0  0  0
   38.1423    5.5922   14.5232 C   0  0  0  0  0  0
   37.9766    5.7589   15.9070 C   0  0  0  0  0  0
   40.2477    6.8211   14.5643 C   0  0  0  0  0  0
   37.1299    4.8251   13.7130 C   0  0  0  0  0  0
   37.1823    4.8642   12.4799 O   0  0  0  0  0  0
   36.2528    4.0653   14.4117 N   0  0  0  0  0  0
   35.2551    3.2716   13.8717 C   0  0  0  0  0  0
   40.1303    6.9569   15.9490 C   0  0  0  0  0  0
   38.9862    6.4257   16.6034 C   0  0  0  0  0  0
   40.9339    7.5554   16.9576 C   0  0  0  0  0  0
   40.2773    7.4319   18.1675 C   0  0  0  0  0  0
   39.1099    6.7197   17.9477 N   0  0  0  0  0  0
   38.1444    6.4281   18.9994 C   0  0  0  0  0  0
   38.9088    6.3570   20.3456 C   0  0  1  0  0  0
   39.8143    7.5247   20.4526 N   0  0  0  0  0  0
   40.6013    7.9974   19.4588 C   0  0  0  0  0  0
   41.4777    8.8202   19.7042 O   0  0  0  0  0  0
   34.8889    3.2250   12.6129 N   0  0  0  0  0  0
   33.8606    2.4223   12.4362 C   0  0  0  0  0  0
   33.4059    1.7493   13.5672 C   0  0  0  0  0  0
   34.3617    2.2340   14.9364 S   0  0  0  0  0  0
   37.9251    6.1743   21.5237 C   0  0  0  0  0  0
   38.5610    6.4244   22.8056 N   0  0  0  0  0  0
   39.3811    6.0240   12.8036 H   0  0  0  0  0  0
   37.1137    5.3834   16.4361 H   0  0  0  0  0  0
   41.0782    7.2499   14.0277 H   0  0  0  0  0  0
   36.3535    4.0242   15.4129 H   0  0  0  0  0  0
   41.8913    8.0263   16.8205 H   0  0  0  0  0  0
   37.6289    5.4904   18.7905 H   0  0  0  0  0  0
   37.3990    7.2232   19.0257 H   0  0  0  0  0  0
   39.5587    5.4761   20.3448 H   0  0  0  0  0  0
   40.0266    7.8243   21.3948 H   0  0  0  0  0  0
   33.4505    2.3163   11.4419 H   0  0  0  0  0  0
   32.5967    1.0415   13.6656 H   0  0  0  0  0  0
   37.5131    5.1634   21.5170 H   0  0  0  0  0  0
   37.0850    6.8632   21.4291 H   0  0  0  0  0  0
   37.9324    6.2480   23.5765 H   0  0  0  0  0  0
   39.3689    5.8246   22.9627 H   0  0  0  0  0  0
  1  2  2  0  0  0
  1  4  1  0  0  0
  1 25  1  0  0  0
  2  5  1  0  0  0
  2  3  1  0  0  0
  3 10  2  0  0  0
  3 26  1  0  0  0
  4  9  2  0  0  0
  4 27  1  0  0  0
  5  6  2  0  0  0
  5  7  1  0  0  0
  7  8  1  0  0  0
  7 28  1  0  0  0
  8 19  2  0  0  0
  8 22  1  0  0  0
  9 11  1  0  0  0
  9 10  1  0  0  0
 10 13  1  0  0  0
 11 12  2  0  0  0
 11 29  1  0  0  0
 12 13  1  0  0  0
 12 17  1  0  0  0
 13 14  1  0  0  0
 14 15  1  0  0  0
 14 30  1  0  0  0
 14 31  1  0  0  0
 15 16  1  0  0  0
 15 23  1  0  0  0
 15 32  1  0  0  0
 16 17  1  0  0  0
 16 33  1  0  0  0
 17 18  2  0  0  0
 19 20  1  0  0  0
 20 21  2  0  0  0
 20 34  1  0  0  0
 21 22  1  0  0  0
 21 35  1  0  0  0
 23 24  1  0  0  0
 23 36  1  0  0  0
 23 37  1  0  0  0
 24 38  1  0  0  0
 24 39  1  0  0  0
M  END
> <s_m_entry_id>
7486

> <s_m_entry_name>
dock_pv.47

> <s_m_Source_Path>
/home/csk/Desktop/cluster/DUD-E-result/mapk2

> <s_m_Source_File>
dock_pv.maegz

> <i_m_Source_File_Index>
47

> <chembl_id>
CHEMBL257888

> <chembl_pref_name>
None

> <i_lp_mmshare_version>
53161

> <i_f3d_flags>
0

> <r_lp_tautomer_probability>
0.999000488399163

> <s_lp_Force_Field>
OPLS_2005

> <r_lp_Energy>
26.390308

> <b_lp_Chiralities_Consistent>
1

> <s_lp_Variant>
CHEMBL2208_lig213-1

> <s_i_glide_gridfile>
glide-grid_3m2w

> <i_i_glide_lignum>
337

> <i_i_glide_rotatable_bonds>
4

> <r_i_docking_score>
-7.70670805251174

> <r_i_glide_ligand_efficiency>
-0.321112835521323

> <r_i_glide_ligand_efficiency_sa>
-0.926249697120418

> <r_i_glide_ligand_efficiency_ln>
-1.84456887475524

> <r_i_glide_gscore>
-7.70670805251174

> <r_i_glide_lipo>
-2.67727390500645

> <r_i_glide_hbond>
-0.669703901607813

> <r_i_glide_metal>
0

> <r_i_glide_rewards>
-1.39469669890871

> <r_i_glide_evdw>
-35.7487640380859

> <r_i_glide_ecoul>
-10.4043369293213

> <r_i_glide_erotb>
0.487772388345099

> <r_i_glide_esite>
-0.104717194031378

> <r_i_glide_emodel>
-65.8365790952709

> <r_i_glide_energy>
-46.1531009674072

> <r_i_glide_einternal>
4.87534475326538

> <i_i_glide_confnum>
6

> <i_i_glide_posenum>
15

> <r_i_glide_eff_state_penalty>
0

> <s_user_duplicate_titles>
CHEMBL2208_lig213

> <s_m_subgroup_title>
dock_pv

> <s_m_subgroupid>
dock_pv

> <b_m_subgroup_collapsed>
1

$$$$
CHEMBL2208_lig59
                    3D
 Schrodinger Suite 2021-1.
 35 37  0  0  1  0            999 V2000
   37.3472    4.8276   21.2277 C   0  0  0  0  0  0
   38.4063    5.3972   20.4841 C   0  0  0  0  0  0
   38.2288    5.7687   19.1336 C   0  0  0  0  0  0
   39.3107    6.4690   18.2779 C   0  0  1  0  0  0
   36.9907    5.4863   18.5414 C   0  0  0  0  0  0
   36.1439    4.5094   20.5700 C   0  0  0  0  0  0
   39.0341    6.3081   16.7743 C   0  0  0  0  0  0
   35.9852    4.8227   19.2268 C   0  0  0  0  0  0
   36.7052    5.8306   17.2419 O   0  0  0  0  0  0
   37.7370    5.9797   16.3485 C   0  0  0  0  0  0
   37.4770    4.5961   22.6728 C   0  0  0  0  0  0
   39.5135    7.9741   18.6336 C   0  0  0  0  0  0
   37.5724    4.4223   23.8122 N   0  0  0  0  0  0
   38.3458    8.8248   20.8320 N   0  0  0  0  0  0
   42.0412    8.6966   18.6724 N   0  0  0  0  0  0
   40.9288    8.3763   18.6521 C   0  0  0  0  0  0
   38.8616    8.4478   19.8674 C   0  0  0  0  0  0
   40.0155    6.4736   15.7870 C   0  0  0  0  0  0
   39.6565    5.6253   21.0720 N   0  0  0  0  0  0
   37.4354    5.7676   15.0039 C   0  0  0  0  0  0
   35.0645    3.8845   21.2034 N   0  0  0  0  0  0
   39.7103    6.3153   14.4312 C   0  0  0  0  0  0
   38.4252    5.9459   14.0399 C   0  0  0  0  0  0
   40.6778    6.5378   13.4923 O   0  0  0  0  0  0
   40.2419    5.9326   18.4729 H   0  0  0  0  0  0
   35.0635    4.5938   18.7117 H   0  0  0  0  0  0
   39.0780    8.5901   17.8489 H   0  0  0  0  0  0
   41.0232    6.7426   16.0688 H   0  0  0  0  0  0
   39.7739    5.3060   22.0312 H   0  0  0  0  0  0
   40.4680    5.5157   20.4766 H   0  0  0  0  0  0
   36.4321    5.4928   14.7116 H   0  0  0  0  0  0
   35.2384    3.4991   22.1208 H   0  0  0  0  0  0
   34.3721    3.4413   20.6194 H   0  0  0  0  0  0
   38.1838    5.8083   12.9971 H   0  0  0  0  0  0
   40.4418    6.4257   12.5653 H   0  0  0  0  0  0
  1  2  2  0  0  0
  1  6  1  0  0  0
  1 11  1  0  0  0
  2  3  1  0  0  0
  2 19  1  0  0  0
  3  4  1  0  0  0
  3  5  2  0  0  0
  4  7  1  0  0  0
  4 12  1  0  0  0
  4 25  1  0  0  0
  5  8  1  0  0  0
  5  9  1  0  0  0
  6  8  2  0  0  0
  6 21  1  0  0  0
  7 18  2  0  0  0
  7 10  1  0  0  0
  8 26  1  0  0  0
  9 10  1  0  0  0
 10 20  2  0  0  0
 11 13  3  0  0  0
 12 16  1  0  0  0
 12 17  1  0  0  0
 12 27  1  0  0  0
 14 17  3  0  0  0
 15 16  3  0  0  0
 18 22  1  0  0  0
 18 28  1  0  0  0
 19 29  1  0  0  0
 19 30  1  0  0  0
 20 23  1  0  0  0
 20 31  1  0  0  0
 21 32  1  0  0  0
 21 33  1  0  0  0
 22 24  1  0  0  0
 22 23  2  0  0  0
 23 34  1  0  0  0
 24 35  1  0  0  0
M  END
> <s_m_entry_id>
7487

> <s_m_entry_name>
dock_pv.48

> <s_m_Source_Path>
/home/csk/Desktop/cluster/DUD-E-result/mapk2

> <s_m_Source_File>
dock_pv.maegz

> <i_m_Source_File_Index>
48

> <chembl_id>
CHEMBL3706786

> <chembl_pref_name>
None

> <i_lp_mmshare_version>
53161

> <i_f3d_flags>
0

> <r_lp_tautomer_probability>
1

> <s_lp_Force_Field>
OPLS_2005

> <r_lp_Energy>
24.79852

> <b_lp_Chiralities_Consistent>
1

> <s_lp_Variant>
CHEMBL2208_lig59-2

> <s_i_glide_gridfile>
glide-grid_3m2w

> <i_i_glide_lignum>
69

> <i_i_glide_rotatable_bonds>
2

> <r_i_docking_score>
-7.70301932705811

> <r_i_glide_ligand_efficiency>
-0.320959138627421

> <r_i_glide_ligand_efficiency_sa>
-0.925806358562514

> <r_i_glide_ligand_efficiency_ln>
-1.84368599348961

> <r_i_glide_gscore>
-7.70301932705811

> <r_i_glide_lipo>
-2.06437326977476

> <r_i_glide_hbond>
-0.782548917289095

> <r_i_glide_metal>
0

> <r_i_glide_rewards>
-1.57345541268582

> <r_i_glide_evdw>
-38.4603424072266

> <r_i_glide_ecoul>
-9.65523052215576

> <r_i_glide_erotb>
0.185030753334833

> <r_i_glide_esite>
-0.0963707819585652

> <r_i_glide_emodel>
-64.2201236910799

> <r_i_glide_energy>
-48.1155729293823

> <r_i_glide_einternal>
6.60634422302246

> <i_i_glide_confnum>
3

> <i_i_glide_posenum>
393

> <r_i_glide_eff_state_penalty>
0

> <s_user_duplicate_titles>
CHEMBL2208_lig59

> <s_m_subgroup_title>
dock_pv

> <s_m_subgroupid>
dock_pv

> <b_m_subgroup_collapsed>
1

$$$$
CHEMBL2208_lig904
                    3D
 Schrodinger Suite 2021-1.
 35 37  0  0  1  0            999 V2000
   41.0756    7.6249   14.3869 O   0  0  0  0  0  0
   37.6479    5.1388   12.7372 O   0  0  0  0  0  0
   41.3953    8.5282   19.4763 O   0  0  0  0  0  0
   39.4776    7.5690   21.0680 O   0  0  0  0  0  0
   37.2130    5.2130   15.7898 N   0  0  0  0  0  0
   39.5249    6.3191   13.3248 N   0  0  0  0  0  0
   39.2244    6.5163   15.5449 C   0  0  0  0  0  0
   39.2944    6.7824   16.9362 C   0  0  0  0  0  0
   38.1985    5.7650   15.0503 C   0  0  0  0  0  0
   38.2897    6.2130   17.7791 C   0  0  0  0  0  0
   37.2895    5.3976   17.1381 C   0  0  0  0  0  0
   40.0787    6.9097   14.3969 C   0  0  0  0  0  0
   38.3703    5.6658   13.5773 C   0  0  0  0  0  0
   40.3237    7.5603   17.5090 C   0  0  0  0  0  0
   38.3568    6.4762   19.1749 C   0  0  0  0  0  0
   40.3773    7.7966   18.8861 C   0  0  0  0  0  0
   39.3824    7.2685   19.7197 C   0  0  0  0  0  0
   36.3001    4.5814   17.9848 C   0  0  0  0  0  0
   35.7424    3.2966   17.3357 C   0  0  0  0  0  0
   42.4802    8.9942   18.6802 C   0  0  0  0  0  0
   38.5620    6.9848   21.9908 C   0  0  0  0  0  0
   39.9242    6.4198   12.4037 H   0  0  0  0  0  0
   41.0753    7.9614   16.8501 H   0  0  0  0  0  0
   37.5926    6.0669   19.8145 H   0  0  0  0  0  0
   36.7888    4.2659   18.9067 H   0  0  0  0  0  0
   35.4774    5.2249   18.2775 H   0  0  0  0  0  0
   35.0531    2.7890   18.0111 H   0  0  0  0  0  0
   35.1970    3.5085   16.4162 H   0  0  0  0  0  0
   36.5391    2.5942   17.0960 H   0  0  0  0  0  0
   43.1580    9.5929   19.2899 H   0  0  0  0  0  0
   43.0521    8.1667   18.2599 H   0  0  0  0  0  0
   42.1221    9.6250   17.8723 H   0  0  0  0  0  0
   38.7852    7.3360   22.9987 H   0  0  0  0  0  0
   37.5310    7.2685   21.7705 H   0  0  0  0  0  0
   38.6442    5.8956   21.9976 H   0  0  0  0  0  0
  1 12  2  0  0  0
  2 13  2  0  0  0
  3 16  1  0  0  0
  3 20  1  0  0  0
  4 17  1  0  0  0
  4 21  1  0  0  0
  5  9  1  0  0  0
  5 11  2  0  0  0
  6 12  1  0  0  0
  6 13  1  0  0  0
  6 22  1  0  0  0
  7  8  1  0  0  0
  7  9  2  0  0  0
  7 12  1  0  0  0
  8 10  1  0  0  0
  8 14  2  0  0  0
  9 13  1  0  0  0
 10 11  1  0  0  0
 10 15  2  0  0  0
 11 18  1  0  0  0
 14 16  1  0  0  0
 14 23  1  0  0  0
 15 17  1  0  0  0
 15 24  1  0  0  0
 16 17  2  0  0  0
 18 19  1  0  0  0
 18 25  1  0  0  0
 18 26  1  0  0  0
 19 27  1  0  0  0
 19 28  1  0  0  0
 19 29  1  0  0  0
 20 30  1  0  0  0
 20 31  1  0  0  0
 20 32  1  0  0  0
 21 33  1  0  0  0
 21 34  1  0  0  0
 21 35  1  0  0  0
M  END
> <s_m_entry_id>
7488

> <s_m_entry_name>
dock_pv.49

> <s_m_Source_Path>
/home/csk/Desktop/cluster/DUD-E-result/mapk2

> <s_m_Source_File>
dock_pv.maegz

> <i_m_Source_File_Index>
49

> <chembl_id>
CHEMBL2003524

> <chembl_pref_name>
None

> <i_lp_mmshare_version>
53161

> <i_f3d_flags>
0

> <r_lp_tautomer_probability>
1

> <s_lp_Force_Field>
OPLS_2005

> <r_lp_Energy>
41.873442

> <b_lp_Chiralities_Consistent>
1

> <s_lp_Variant>
CHEMBL2208_lig904-1

> <s_i_glide_gridfile>
glide-grid_3m2w

> <i_i_glide_lignum>
1157

> <i_i_glide_rotatable_bonds>
3

> <r_i_docking_score>
-7.69573233916764

> <r_i_glide_ligand_efficiency>
-0.366463444722268

> <r_i_glide_ligand_efficiency_sa>
-1.01104485637812

> <r_i_glide_ligand_efficiency_ln>
-1.90275427016778

> <r_i_glide_gscore>
-7.69573233916764

> <r_i_glide_lipo>
-1.51336533767582

> <r_i_glide_hbond>
-0.584022193699714

> <r_i_glide_metal>
0

> <r_i_glide_rewards>
-3.26098101632635

> <r_i_glide_evdw>
-36.9812698364258

> <r_i_glide_ecoul>
-3.25533533096313

> <r_i_glide_erotb>
0

> <r_i_glide_esite>
0

> <r_i_glide_emodel>
-57.9005914584812

> <r_i_glide_energy>
-40.2366051673889

> <r_i_glide_einternal>
1.47960221767426

> <i_i_glide_confnum>
1

> <i_i_glide_posenum>
112

> <r_i_glide_eff_state_penalty>
0

> <s_user_duplicate_titles>
CHEMBL2208_lig904

> <s_m_subgroup_title>
dock_pv

> <s_m_subgroupid>
dock_pv

> <b_m_subgroup_collapsed>
1

$$$$
CHEMBL2208_lig218
                    3D
 Schrodinger Suite 2021-1.
 42 45  0  0  1  0            999 V2000
   39.2192    6.0644   14.0293 C   0  0  0  0  0  0
   38.0609    5.6046   14.6714 C   0  0  0  0  0  0
   37.8580    5.8677   16.0364 C   0  0  0  0  0  0
   40.2062    6.7708   14.7101 C   0  0  0  0  0  0
   37.0475    4.8052   13.8853 C   0  0  0  0  0  0
   37.0781    4.8251   12.6538 O   0  0  0  0  0  0
   36.2098    4.0430   14.6366 N   0  0  0  0  0  0
   35.1872    3.1448   14.2711 C   0  0  0  0  0  0
   40.0495    6.9962   16.0823 C   0  0  0  0  0  0
   38.8736    6.5303   16.7300 C   0  0  0  0  0  0
   40.8289    7.6498   17.0808 C   0  0  0  0  0  0
   40.1791    7.5111   18.2968 C   0  0  0  0  0  0
   38.9725    6.8776   18.0647 N   0  0  0  0  0  0
   37.9565    6.7153   19.0974 C   0  0  0  0  0  0
   38.6614    6.5263   20.4659 C   0  0  2  0  0  0
   39.7609    7.5113   20.5998 N   0  0  0  0  0  0
   40.5294    8.0240   19.6025 C   0  0  0  0  0  0
   41.4493    8.7994   19.8634 O   0  0  0  0  0  0
   34.7632    2.8762   12.9604 C   0  0  0  0  0  0
   33.6830    2.0220   12.7381 C   0  0  0  0  0  0
   33.0775    1.4150   13.8376 C   0  0  0  0  0  0
   33.4901    1.6227   15.1134 N   0  0  0  0  0  0
   34.5257    2.4776   15.3104 C   0  0  0  0  0  0
   39.0856    5.0721   20.7601 C   0  0  0  0  0  0
   37.9740    4.1370   20.6694 N   0  0  0  0  0  0
   39.3693    5.8783   12.9748 H   0  0  0  0  0  0
   36.9648    5.5562   16.5572 H   0  0  0  0  0  0
   41.0779    7.1289   14.1848 H   0  0  0  0  0  0
   36.3431    4.1204   15.6315 H   0  0  0  0  0  0
   41.7761    8.1492   16.9396 H   0  0  0  0  0  0
   37.2779    5.8987   18.8569 H   0  0  0  0  0  0
   37.3647    7.6221   19.1601 H   0  0  0  0  0  0
   37.9286    6.8024   21.2269 H   0  0  0  0  0  0
   40.0796    7.7043   21.5390 H   0  0  0  0  0  0
   35.2395    3.3421   12.1107 H   0  0  0  0  0  0
   33.3346    1.8262   11.7344 H   0  0  0  0  0  0
   32.2448    0.7399   13.7073 H   0  0  0  0  0  0
   34.7988    2.6457   16.3427 H   0  0  0  0  0  0
   39.4776    5.0166   21.7744 H   0  0  0  0  0  0
   39.8780    4.7549   20.0829 H   0  0  0  0  0  0
   37.7655    3.9243   19.7066 H   0  0  0  0  0  0
   38.2631    3.2522   21.0836 H   0  0  0  0  0  0
  1  2  2  0  0  0
  1  4  1  0  0  0
  1 26  1  0  0  0
  2  5  1  0  0  0
  2  3  1  0  0  0
  3 10  2  0  0  0
  3 27  1  0  0  0
  4  9  2  0  0  0
  4 28  1  0  0  0
  5  6  2  0  0  0
  5  7  1  0  0  0
  7  8  1  0  0  0
  7 29  1  0  0  0
  8 19  2  0  0  0
  8 23  1  0  0  0
  9 10  1  0  0  0
  9 11  1  0  0  0
 10 13  1  0  0  0
 11 12  2  0  0  0
 11 30  1  0  0  0
 12 13  1  0  0  0
 12 17  1  0  0  0
 13 14  1  0  0  0
 14 15  1  0  0  0
 14 31  1  0  0  0
 14 32  1  0  0  0
 15 16  1  0  0  0
 15 24  1  0  0  0
 15 33  1  0  0  0
 16 17  1  0  0  0
 16 34  1  0  0  0
 17 18  2  0  0  0
 19 20  1  0  0  0
 19 35  1  0  0  0
 20 21  2  0  0  0
 20 36  1  0  0  0
 21 22  1  0  0  0
 21 37  1  0  0  0
 22 23  2  0  0  0
 23 38  1  0  0  0
 24 25  1  0  0  0
 24 39  1  0  0  0
 24 40  1  0  0  0
 25 41  1  0  0  0
 25 42  1  0  0  0
M  END
> <s_m_entry_id>
7489

> <s_m_entry_name>
dock_pv.50

> <s_m_Source_Path>
/home/csk/Desktop/cluster/DUD-E-result/mapk2

> <s_m_Source_File>
dock_pv.maegz

> <i_m_Source_File_Index>
50

> <chembl_id>
CHEMBL402957

> <chembl_pref_name>
None

> <i_lp_mmshare_version>
53161

> <i_f3d_flags>
0

> <r_lp_tautomer_probability>
1

> <s_lp_Force_Field>
OPLS_2005

> <r_lp_Energy>
30.673597

> <b_lp_Chiralities_Consistent>
1

> <s_lp_Variant>
CHEMBL2208_lig218-1

> <s_i_glide_gridfile>
glide-grid_3m2w

> <i_i_glide_lignum>
343

> <i_i_glide_rotatable_bonds>
4

> <r_i_docking_score>
-7.67699989102152

> <r_i_glide_ligand_efficiency>
-0.307079995640861

> <r_i_glide_ligand_efficiency_sa>
-0.897907353340789

> <r_i_glide_ligand_efficiency_ln>
-1.81967903529404

> <r_i_glide_gscore>
-7.67699989102152

> <r_i_glide_lipo>
-2.63011322393343

> <r_i_glide_hbond>
-0.569899613385352

> <r_i_glide_metal>
0

> <r_i_glide_rewards>
-1.49016800270019

> <r_i_glide_evdw>
-33.9001197814941

> <r_i_glide_ecoul>
-11.2701244354248

> <r_i_glide_erotb>
0.50341694382946

> <r_i_glide_esite>
-0.104711340443578

> <r_i_glide_emodel>
-64.4443820784825

> <r_i_glide_energy>
-45.1702442169189

> <r_i_glide_einternal>
0.74344003200531

> <i_i_glide_confnum>
5

> <i_i_glide_posenum>
147

> <r_i_glide_eff_state_penalty>
0

> <s_user_duplicate_titles>
CHEMBL2208_lig218,433981

> <s_m_subgroup_title>
dock_pv

> <s_m_subgroupid>
dock_pv

> <b_m_subgroup_collapsed>
1

$$$$
CHEMBL2208_lig210
                    3D
 Schrodinger Suite 2021-1.
 42 45  0  0  1  0            999 V2000
   39.1507    6.1409   14.0148 C   0  0  0  0  0  0
   38.0039    5.6226   14.6334 C   0  0  0  0  0  0
   37.7846    5.8264   16.0036 C   0  0  0  0  0  0
   40.1113    6.8523   14.7268 C   0  0  0  0  0  0
   37.0265    4.8076   13.8260 C   0  0  0  0  0  0
   37.0780    4.8251   12.5938 O   0  0  0  0  0  0
   36.1947    4.0251   14.5565 N   0  0  0  0  0  0
   35.2342    3.1341   14.1082 C   0  0  0  0  0  0
   39.9342    7.0209   16.1047 C   0  0  0  0  0  0
   38.7704    6.4912   16.7245 C   0  0  0  0  0  0
   40.6777    7.6605   17.1346 C   0  0  0  0  0  0
   40.0049    7.4751   18.3294 C   0  0  0  0  0  0
   38.8451    6.7724   18.0730 N   0  0  0  0  0  0
   37.8330    6.4766   19.0797 C   0  0  0  0  0  0
   38.4876    6.4494   20.4899 C   0  0  2  0  0  0
   39.5437    7.4828   20.6183 N   0  0  0  0  0  0
   40.3091    8.0065   19.6277 C   0  0  0  0  0  0
   41.1948    8.8203   19.8720 O   0  0  0  0  0  0
   34.8098    2.9552   12.8795 N   0  0  0  0  0  0
   33.8780    2.0248   12.8189 C   0  0  0  0  0  0
   33.5446    1.4052   14.0192 C   0  0  0  0  0  0
   34.5063    2.0949   15.2916 S   0  0  0  0  0  0
   38.9492    5.0277   20.8976 C   0  0  0  0  0  0
   37.8783    4.0250   20.9024 N   0  0  2  0  0  0
   36.8711    4.2616   21.9282 C   0  0  0  0  0  0
   39.3147    5.9952   12.9562 H   0  0  0  0  0  0
   36.9028    5.4625   16.5113 H   0  0  0  0  0  0
   40.9777    7.2549   14.2229 H   0  0  0  0  0  0
   36.3252    4.0361   15.5549 H   0  0  0  0  0  0
   41.6070    8.1996   17.0382 H   0  0  0  0  0  0
   37.3433    5.5317   18.8430 H   0  0  0  0  0  0
   37.0483    7.2251   19.0389 H   0  0  0  0  0  0
   37.7163    6.7679   21.1917 H   0  0  0  0  0  0
   39.8415    7.7086   21.5577 H   0  0  0  0  0  0
   33.4477    1.7913   11.8562 H   0  0  0  0  0  0
   32.8245    0.6238   14.2112 H   0  0  0  0  0  0
   39.4359    5.0529   21.8719 H   0  0  0  0  0  0
   39.7152    4.6939   20.1962 H   0  0  0  0  0  0
   38.2810    3.0956   21.0716 H   0  0  0  0  0  0
   36.1704    3.4260   21.9464 H   0  0  0  0  0  0
   37.3238    4.3323   22.9186 H   0  0  0  0  0  0
   36.2932    5.1649   21.7340 H   0  0  0  0  0  0
  1  2  2  0  0  0
  1  4  1  0  0  0
  1 26  1  0  0  0
  2  5  1  0  0  0
  2  3  1  0  0  0
  3 10  2  0  0  0
  3 27  1  0  0  0
  4  9  2  0  0  0
  4 28  1  0  0  0
  5  6  2  0  0  0
  5  7  1  0  0  0
  7  8  1  0  0  0
  7 29  1  0  0  0
  8 19  2  0  0  0
  8 22  1  0  0  0
  9 10  1  0  0  0
  9 11  1  0  0  0
 10 13  1  0  0  0
 11 12  2  0  0  0
 11 30  1  0  0  0
 12 13  1  0  0  0
 12 17  1  0  0  0
 13 14  1  0  0  0
 14 15  1  0  0  0
 14 31  1  0  0  0
 14 32  1  0  0  0
 15 16  1  0  0  0
 15 23  1  0  0  0
 15 33  1  0  0  0
 16 17  1  0  0  0
 16 34  1  0  0  0
 17 18  2  0  0  0
 19 20  1  0  0  0
 20 21  2  0  0  0
 20 35  1  0  0  0
 21 22  1  0  0  0
 21 36  1  0  0  0
 23 24  1  0  0  0
 23 37  1  0  0  0
 23 38  1  0  0  0
 24 25  1  0  0  0
 24 39  1  0  0  0
 25 40  1  0  0  0
 25 41  1  0  0  0
 25 42  1  0  0  0
M  END
> <s_m_entry_id>
7490

> <s_m_entry_name>
dock_pv.51

> <s_m_Source_Path>
/home/csk/Desktop/cluster/DUD-E-result/mapk2

> <s_m_Source_File>
dock_pv.maegz

> <i_m_Source_File_Index>
51

> <chembl_id>
CHEMBL258107

> <chembl_pref_name>
None

> <i_lp_mmshare_version>
53161

> <i_f3d_flags>
0

> <r_lp_tautomer_probability>
0.999000488399163

> <s_lp_Force_Field>
OPLS_2005

> <r_lp_Energy>
27.096736

> <b_lp_Chiralities_Consistent>
1

> <s_lp_Variant>
CHEMBL2208_lig210-1

> <s_i_glide_gridfile>
glide-grid_3m2w

> <i_i_glide_lignum>
331

> <i_i_glide_rotatable_bonds>
5

> <r_i_docking_score>
-7.67129897248737

> <r_i_glide_ligand_efficiency>
-0.306851958899495

> <r_i_glide_ligand_efficiency_sa>
-0.897240569864787

> <r_i_glide_ligand_efficiency_ln>
-1.81832774675871

> <r_i_glide_gscore>
-7.67129897248737

> <r_i_glide_lipo>
-2.54325333517326

> <r_i_glide_hbond>
-0.591042126059946

> <r_i_glide_metal>
0

> <r_i_glide_rewards>
-1.33223218248785

> <r_i_glide_evdw>
-36.7103118896484

> <r_i_glide_ecoul>
-12.5028142929077

> <r_i_glide_erotb>
0.60545601807089

> <r_i_glide_esite>
-0.0992896084186355

> <r_i_glide_emodel>
-70.0857123807915

> <r_i_glide_energy>
-49.2131261825562

> <r_i_glide_einternal>
2.35908389091492

> <i_i_glide_confnum>
15

> <i_i_glide_posenum>
1

> <r_i_glide_eff_state_penalty>
0

> <s_user_duplicate_titles>
CHEMBL2208_lig210,434633

> <s_m_subgroup_title>
dock_pv

> <s_m_subgroupid>
dock_pv

> <b_m_subgroup_collapsed>
1

$$$$
CHEMBL2208_lig42
                    3D
 Schrodinger Suite 2021-1.
 30 32  0  0  1  0            999 V2000
   36.8587    4.9927   20.7853 C   0  0  0  0  0  0
   36.5516    4.9047   19.4080 C   0  0  0  0  0  0
   37.2984    5.6227   18.4548 C   0  0  0  0  0  0
   37.9260    5.8137   21.2008 C   0  0  0  0  0  0
   38.3353    6.4496   18.9124 C   0  0  0  0  0  0
   38.6636    6.5245   20.2601 C   0  0  0  0  0  0
   39.0895    7.2248   18.0550 O   0  0  0  0  0  0
   37.0103    5.5853   16.9470 C   0  0  0  0  0  0
   38.1872    6.0781   16.1151 C   0  0  0  0  0  0
   36.0746    4.2467   21.7795 C   0  0  0  0  0  0
   39.1565    6.8926   16.7193 C   0  0  0  0  0  0
   35.4554    3.6622   22.5622 N   0  0  0  0  0  0
   38.3107    5.8032   14.7476 C   0  0  0  0  0  0
   35.4929    4.1059   18.9515 N   0  0  0  0  0  0
   38.2783    5.9742   22.5449 N   0  0  0  0  0  0
   40.2404    7.3849   15.9920 C   0  0  0  0  0  0
   39.3830    6.3050   14.0091 C   0  0  0  0  0  0
   40.3451    7.0994   14.6305 C   0  0  0  0  0  0
   39.4780    6.0250   12.6723 O   0  0  0  0  0  0
   39.4792    7.1589   20.5731 H   0  0  0  0  0  0
   36.7672    4.5678   16.6361 H   0  0  0  0  0  0
   36.1342    6.1986   16.7312 H   0  0  0  0  0  0
   37.5688    5.1924   14.2534 H   0  0  0  0  0  0
   35.2204    4.1412   17.9786 H   0  0  0  0  0  0
   35.0155    3.4977   19.6026 H   0  0  0  0  0  0
   39.1963    6.3403   22.7690 H   0  0  0  0  0  0
   37.8396    5.3570   23.2126 H   0  0  0  0  0  0
   40.9825    8.0042   16.4747 H   0  0  0  0  0  0
   41.1698    7.5027   14.0622 H   0  0  0  0  0  0
   40.2454    6.4245   12.2402 H   0  0  0  0  0  0
  1  2  2  0  0  0
  1  4  1  0  0  0
  1 10  1  0  0  0
  2  3  1  0  0  0
  2 14  1  0  0  0
  3  8  1  0  0  0
  3  5  2  0  0  0
  4  6  2  0  0  0
  4 15  1  0  0  0
  5  6  1  0  0  0
  5  7  1  0  0  0
  6 20  1  0  0  0
  7 11  1  0  0  0
  8  9  1  0  0  0
  8 21  1  0  0  0
  8 22  1  0  0  0
  9 13  2  0  0  0
  9 11  1  0  0  0
 10 12  3  0  0  0
 11 16  2  0  0  0
 13 17  1  0  0  0
 13 23  1  0  0  0
 14 24  1  0  0  0
 14 25  1  0  0  0
 15 26  1  0  0  0
 15 27  1  0  0  0
 16 18  1  0  0  0
 16 28  1  0  0  0
 17 19  1  0  0  0
 17 18  2  0  0  0
 18 29  1  0  0  0
 19 30  1  0  0  0
M  END
> <s_m_entry_id>
7491

> <s_m_entry_name>
dock_pv.52

> <s_m_Source_Path>
/home/csk/Desktop/cluster/DUD-E-result/mapk2

> <s_m_Source_File>
dock_pv.maegz

> <i_m_Source_File_Index>
52

> <chembl_id>
CHEMBL3706767

> <chembl_pref_name>
None

> <i_lp_mmshare_version>
53161

> <i_f3d_flags>
0

> <r_lp_tautomer_probability>
1

> <s_lp_Force_Field>
OPLS_2005

> <r_lp_Energy>
23.636035

> <b_lp_Chiralities_Consistent>
1

> <s_lp_Variant>
CHEMBL2208_lig42-1

> <s_i_glide_gridfile>
glide-grid_3m2w

> <i_i_glide_lignum>
47

> <i_i_glide_rotatable_bonds>
1

> <r_i_docking_score>
-7.66345461934518

> <r_i_glide_ligand_efficiency>
-0.403339716807641

> <r_i_glide_ligand_efficiency_sa>
-1.07627236426821

> <r_i_glide_ligand_efficiency_ln>
-1.94285034191723

> <r_i_glide_gscore>
-7.66345461934518

> <r_i_glide_lipo>
-2.14979765524211

> <r_i_glide_hbond>
-0.562156187997875

> <r_i_glide_metal>
0

> <r_i_glide_rewards>
-2.09685646332751

> <r_i_glide_evdw>
-30.9723815917969

> <r_i_glide_ecoul>
-8.26459789276123

> <r_i_glide_erotb>
0

> <r_i_glide_esite>
-0.0663355492736524

> <r_i_glide_emodel>
-56.9180725486973

> <r_i_glide_energy>
-39.2369794845581

> <r_i_glide_einternal>
0.000730261439457536

> <i_i_glide_confnum>
1

> <i_i_glide_posenum>
380

> <r_i_glide_eff_state_penalty>
0

> <s_user_duplicate_titles>
CHEMBL2208_lig42

> <s_m_subgroup_title>
dock_pv

> <s_m_subgroupid>
dock_pv

> <b_m_subgroup_collapsed>
1

$$$$
CHEMBL2208_lig1292
                    3D
 Schrodinger Suite 2021-1.
 36 39  0  0  1  0            999 V2000
   36.9938    4.8034   14.3601 N   0  0  0  0  0  0
   38.1573    5.5015   14.2200 C   0  0  0  0  0  0
   38.7721    5.6250   13.0729 N   0  0  0  0  0  0
   39.8775    6.3611   13.2934 N   0  0  0  0  0  0
   39.9663    6.7624   14.6100 C   0  0  0  0  0  0
   40.8898    7.5609   15.2805 C   0  0  0  0  0  0
   40.6973    7.7368   16.6510 C   0  0  0  0  0  0
   39.6358    7.1436   17.3370 C   0  0  0  0  0  0
   38.7010    6.3592   16.6514 C   0  0  0  0  0  0
   38.8589    6.1737   15.2670 C   0  0  0  0  0  0
   39.4830    7.3566   18.8022 C   0  0  0  0  0  0
   39.0678    6.4513   19.7664 C   0  0  0  0  0  0
   39.0105    7.1735   20.9308 N   0  0  0  0  0  0
   38.6234    6.7271   22.2668 C   0  0  0  0  0  0
   37.4095    5.7966   22.3444 C   0  0  0  0  0  0
   37.3264    4.9006   23.4139 C   0  0  0  0  0  0
   36.2472    4.0253   23.5091 C   0  0  0  0  0  0
   35.2573    4.0359   22.5298 C   0  0  0  0  0  0
   35.3245    4.9320   21.4655 C   0  0  0  0  0  0
   36.3922    5.8245   21.3812 C   0  0  0  0  0  0
   39.4378    8.4239   20.7289 N   0  0  0  0  0  0
   39.7399    8.5195   19.3811 N   0  0  0  0  0  0
   36.4354    4.8445   15.2038 H   0  0  0  0  0  0
   36.6119    4.2673   13.5932 H   0  0  0  0  0  0
   40.5131    6.5748   12.5289 H   0  0  0  0  0  0
   41.7208    8.0239   14.7701 H   0  0  0  0  0  0
   41.4022    8.3481   17.1938 H   0  0  0  0  0  0
   37.8700    5.9109   17.1718 H   0  0  0  0  0  0
   38.7864    5.4079   19.7320 H   0  0  0  0  0  0
   38.4407    7.5959   22.9019 H   0  0  0  0  0  0
   39.4912    6.2166   22.6842 H   0  0  0  0  0  0
   38.1032    4.8725   24.1649 H   0  0  0  0  0  0
   36.1857    3.3256   24.3292 H   0  0  0  0  0  0
   34.4309    3.3426   22.5949 H   0  0  0  0  0  0
   34.5555    4.9310   20.7091 H   0  0  0  0  0  0
   36.4288    6.5187   20.5539 H   0  0  0  0  0  0
  1  2  1  0  0  0
  1 23  1  0  0  0
  1 24  1  0  0  0
  2  3  2  0  0  0
  2 10  1  0  0  0
  3  4  1  0  0  0
  4  5  1  0  0  0
  4 25  1  0  0  0
  5  6  2  0  0  0
  5 10  1  0  0  0
  6  7  1  0  0  0
  6 26  1  0  0  0
  7  8  2  0  0  0
  7 27  1  0  0  0
  8  9  1  0  0  0
  8 11  1  0  0  0
  9 10  2  0  0  0
  9 28  1  0  0  0
 11 12  2  0  0  0
 11 22  1  0  0  0
 12 13  1  0  0  0
 12 29  1  0  0  0
 13 14  1  0  0  0
 13 21  1  0  0  0
 14 15  1  0  0  0
 14 30  1  0  0  0
 14 31  1  0  0  0
 15 16  2  0  0  0
 15 20  1  0  0  0
 16 17  1  0  0  0
 16 32  1  0  0  0
 17 18  2  0  0  0
 17 33  1  0  0  0
 18 19  1  0  0  0
 18 34  1  0  0  0
 19 20  2  0  0  0
 19 35  1  0  0  0
 20 36  1  0  0  0
 21 22  2  0  0  0
M  END
> <s_m_entry_id>
7492

> <s_m_entry_name>
dock_pv.53

> <s_m_Source_Path>
/home/csk/Desktop/cluster/DUD-E-result/mapk2

> <s_m_Source_File>
dock_pv.maegz

> <i_m_Source_File_Index>
53

> <chembl_id>
CHEMBL1682346

> <chembl_pref_name>
None

> <i_lp_mmshare_version>
53161

> <i_f3d_flags>
0

> <r_lp_tautomer_probability>
1

> <s_lp_Force_Field>
OPLS_2005

> <r_lp_Energy>
12.470927

> <b_lp_Chiralities_Consistent>
1

> <s_lp_Variant>
CHEMBL2208_lig1292-1

> <s_i_glide_gridfile>
glide-grid_3m2w

> <i_i_glide_lignum>
1752

> <i_i_glide_rotatable_bonds>
3

> <r_i_docking_score>
-7.66109984133304

> <r_i_glide_ligand_efficiency>
-0.348231810969684

> <r_i_glide_ligand_efficiency_sa>
-0.975759229517034

> <r_i_glide_ligand_efficiency_ln>
-1.87265224662826

> <r_i_glide_gscore>
-7.66109984133304

> <r_i_glide_lipo>
-2.34318089914092

> <r_i_glide_hbond>
-0.608

> <r_i_glide_metal>
0

> <r_i_glide_rewards>
-2.28985927072464

> <r_i_glide_evdw>
-38.4308662414551

> <r_i_glide_ecoul>
-6.92609119415283

> <r_i_glide_erotb>
0.64860889585688

> <r_i_glide_esite>
-0.108211576128681

> <r_i_glide_emodel>
-65.6960084583381

> <r_i_glide_energy>
-45.3569574356079

> <r_i_glide_einternal>
2.83680009841919

> <i_i_glide_confnum>
5

> <i_i_glide_posenum>
301

> <r_i_glide_eff_state_penalty>
0

> <s_user_duplicate_titles>
CHEMBL2208_lig1292

> <s_m_subgroup_title>
dock_pv

> <s_m_subgroupid>
dock_pv

> <b_m_subgroup_collapsed>
1

$$$$
CHEMBL2208_lig1046
                    3D
 Schrodinger Suite 2021-1.
 34 36  0  0  1  0            999 V2000
   36.2075    2.8247   18.7148 Cl  0  0  0  0  0  0
   34.1846    2.6805   23.6597 Cl  0  0  0  0  0  0
   39.4793    8.3614   20.7753 O   0  0  0  0  0  0
   37.1878    5.5541   18.1492 N   0  0  0  0  0  0
   39.3573    6.5693   15.3551 N   0  0  0  0  0  0
   38.7256    5.6273   13.2225 N   0  0  0  0  0  0
   39.1725    6.4238   21.8648 N   0  0  0  0  0  0
   40.6778    6.9225   13.4725 N   0  0  0  0  0  0
   37.3891    5.6965   19.5021 C   0  0  0  0  0  0
   38.4833    6.5878   19.6191 C   0  0  0  0  0  0
   38.1364    6.1854   17.3935 C   0  0  0  0  0  0
   36.5266    4.9402   20.4849 C   0  0  0  0  0  0
   38.9085    6.8801   18.3103 C   0  0  0  0  0  0
   38.2446    6.0246   15.9163 C   0  0  0  0  0  0
   35.9807    3.6622   20.2149 C   0  0  0  0  0  0
   39.0746    7.1996   20.7868 C   0  0  0  0  0  0
   36.2767    5.5061   21.7431 C   0  0  0  0  0  0
   35.2316    2.9968   21.1848 C   0  0  0  0  0  0
   37.3156    5.2990   15.1574 C   0  0  0  0  0  0
   35.0546    3.5480   22.4478 C   0  0  0  0  0  0
   35.5867    4.8010   22.7275 C   0  0  0  0  0  0
   39.5455    6.3468   14.0324 C   0  0  0  0  0  0
   37.6042    5.1249   13.8026 C   0  0  0  0  0  0
   36.4805    4.9458   17.7606 H   0  0  0  0  0  0
   38.9489    5.4410   21.8102 H   0  0  0  0  0  0
   39.6102    6.7798   22.7083 H   0  0  0  0  0  0
   40.8825    6.8175   12.4787 H   0  0  0  0  0  0
   41.2601    7.4942   14.0635 H   0  0  0  0  0  0
   39.7409    7.5206   18.0550 H   0  0  0  0  0  0
   36.6354    6.4939   21.9882 H   0  0  0  0  0  0
   34.8042    2.0309   20.9598 H   0  0  0  0  0  0
   36.4297    4.8611   15.5939 H   0  0  0  0  0  0
   35.4655    5.2250   23.7125 H   0  0  0  0  0  0
   36.9456    4.5500   13.1677 H   0  0  0  0  0  0
  1 15  1  0  0  0
  2 20  1  0  0  0
  3 16  2  0  0  0
  4  9  1  0  0  0
  4 11  1  0  0  0
  4 24  1  0  0  0
  5 14  1  0  0  0
  5 22  2  0  0  0
  6 22  1  0  0  0
  6 23  2  0  0  0
  7 16  1  0  0  0
  7 25  1  0  0  0
  7 26  1  0  0  0
  8 22  1  0  0  0
  8 27  1  0  0  0
  8 28  1  0  0  0
  9 10  2  0  0  0
  9 12  1  0  0  0
 10 13  1  0  0  0
 10 16  1  0  0  0
 11 13  2  0  0  0
 11 14  1  0  0  0
 12 15  1  0  0  0
 12 17  2  0  0  0
 13 29  1  0  0  0
 14 19  2  0  0  0
 15 18  2  0  0  0
 17 21  1  0  0  0
 17 30  1  0  0  0
 18 20  1  0  0  0
 18 31  1  0  0  0
 19 23  1  0  0  0
 19 32  1  0  0  0
 20 21  2  0  0  0
 21 33  1  0  0  0
 23 34  1  0  0  0
M  END
> <s_m_entry_id>
7493

> <s_m_entry_name>
dock_pv.54

> <s_m_Source_Path>
/home/csk/Desktop/cluster/DUD-E-result/mapk2

> <s_m_Source_File>
dock_pv.maegz

> <i_m_Source_File_Index>
54

> <chembl_id>
CHEMBL1965660

> <chembl_pref_name>
None

> <i_lp_mmshare_version>
53161

> <i_f3d_flags>
0

> <r_lp_tautomer_probability>
0.999999987636

> <s_lp_Force_Field>
OPLS_2005

> <r_lp_Energy>
0.92001

> <b_lp_Chiralities_Consistent>
1

> <s_lp_Variant>
CHEMBL2208_lig1046-1

> <s_i_glide_gridfile>
glide-grid_3m2w

> <i_i_glide_lignum>
1368

> <i_i_glide_rotatable_bonds>
3

> <r_i_docking_score>
-7.65862229810212

> <r_i_glide_ligand_efficiency>
-0.332983578178353

> <r_i_glide_ligand_efficiency_sa>
-0.946961001824511

> <r_i_glide_ligand_efficiency_ln>
-1.85192431622865

> <r_i_glide_gscore>
-7.65862229810212

> <r_i_glide_lipo>
-1.16225005426862

> <r_i_glide_hbond>
-0.587939341635342

> <r_i_glide_metal>
0

> <r_i_glide_rewards>
-2.35844185640724

> <r_i_glide_evdw>
-34.9184837341309

> <r_i_glide_ecoul>
-12.6926851272583

> <r_i_glide_erotb>
0.219798244055767

> <r_i_glide_esite>
-0.119962334051397

> <r_i_glide_emodel>
-66.6714861535388

> <r_i_glide_energy>
-47.6111688613892

> <r_i_glide_einternal>
7.1793041229248

> <i_i_glide_confnum>
6

> <i_i_glide_posenum>
350

> <r_i_glide_eff_state_penalty>
0

> <s_user_duplicate_titles>
CHEMBL2208_lig1046

> <s_m_subgroup_title>
dock_pv

> <s_m_subgroupid>
dock_pv

> <b_m_subgroup_collapsed>
1

$$$$
CHEMBL2208_lig147
                    3D
 Schrodinger Suite 2021-1.
 44 47  0  0  1  0            999 V2000
   37.0836    5.3289   23.4746 C   0  0  0  0  0  0
   36.1439    4.4885   24.0761 C   0  0  0  0  0  0
   36.0060    4.4712   25.4629 C   0  0  0  0  0  0
   36.8307    5.2700   26.2540 C   0  0  0  0  0  0
   37.7849    6.0958   25.6608 C   0  0  0  0  0  0
   37.9104    6.1292   24.2753 C   0  0  0  0  0  0
   40.1314    7.3962   16.0555 C   0  0  2  0  0  0
   36.4644    4.9991   19.2971 C   0  0  0  0  0  0
   37.4501    5.8917   19.7448 C   0  0  0  0  0  0
   38.3026    6.4930   18.8079 C   0  0  0  0  0  0
   36.2767    4.7026   17.9490 C   0  0  0  0  0  0
   37.1135    5.3325   17.0323 C   0  0  0  0  0  0
   38.1495    6.2132   17.4404 C   0  0  0  0  0  0
   37.1811    5.2420   15.6579 N   0  0  0  0  0  0
   38.2568    5.9489   15.1802 C   0  0  0  0  0  0
   38.8646    6.5869   16.2534 C   0  0  0  0  0  0
   40.1900    7.8170   14.5563 C   0  0  0  0  0  0
   39.8507    6.6803   13.6711 N   0  0  0  0  0  0
   38.7210    5.9428   13.8111 C   0  0  0  0  0  0
   38.2797    5.2946   12.8658 O   0  0  0  0  0  0
   41.3312    6.5575   16.4998 C   0  0  0  0  0  0
   37.5922    6.2336   21.2147 C   0  0  0  0  0  0
   37.1555    5.2853   22.0735 N   0  0  0  0  0  0
   38.0622    7.3224   21.5472 O   0  0  0  0  0  0
   36.6826    5.2291   27.7637 C   0  0  0  0  0  0
   35.5075    3.8539   23.4769 H   0  0  0  0  0  0
   35.2698    3.8240   25.9179 H   0  0  0  0  0  0
   38.4429    6.7114   26.2589 H   0  0  0  0  0  0
   38.6767    6.7572   23.8456 H   0  0  0  0  0  0
   40.0985    8.3021   16.6638 H   0  0  0  0  0  0
   35.7922    4.5277   20.0004 H   0  0  0  0  0  0
   39.0855    7.1651   19.1338 H   0  0  0  0  0  0
   35.4928    4.0270   17.6339 H   0  0  0  0  0  0
   36.6006    4.6791   15.0517 H   0  0  0  0  0  0
   41.1744    8.1996   14.2849 H   0  0  0  0  0  0
   39.4795    8.6272   14.3759 H   0  0  0  0  0  0
   40.3738    6.5663   12.8144 H   0  0  0  0  0  0
   41.0802    6.1284   17.4723 H   0  0  0  0  0  0
   41.5141    5.7242   15.8174 H   0  0  0  0  0  0
   42.2570    7.1399   16.5750 H   0  0  0  0  0  0
   36.7894    4.4421   21.6626 H   0  0  0  0  0  0
   37.3312    5.9523   28.2620 H   0  0  0  0  0  0
   35.6524    5.4526   28.0433 H   0  0  0  0  0  0
   36.9100    4.2288   28.1350 H   0  0  0  0  0  0
  1  6  1  0  0  0
  1  2  2  0  0  0
  1 23  1  0  0  0
  2  3  1  0  0  0
  2 26  1  0  0  0
  3  4  2  0  0  0
  3 27  1  0  0  0
  4  5  1  0  0  0
  4 25  1  0  0  0
  5  6  2  0  0  0
  5 28  1  0  0  0
  6 29  1  0  0  0
  7 16  1  0  0  0
  7 17  1  0  0  0
  7 21  1  0  0  0
  7 30  1  0  0  0
  8  9  2  0  0  0
  8 11  1  0  0  0
  8 31  1  0  0  0
  9 10  1  0  0  0
  9 22  1  0  0  0
 10 13  2  0  0  0
 10 32  1  0  0  0
 11 12  2  0  0  0
 11 33  1  0  0  0
 12 14  1  0  0  0
 12 13  1  0  0  0
 13 16  1  0  0  0
 14 15  1  0  0  0
 14 34  1  0  0  0
 15 16  2  0  0  0
 15 19  1  0  0  0
 17 18  1  0  0  0
 17 35  1  0  0  0
 17 36  1  0  0  0
 18 19  1  0  0  0
 18 37  1  0  0  0
 19 20  2  0  0  0
 21 38  1  0  0  0
 21 39  1  0  0  0
 21 40  1  0  0  0
 22 23  1  0  0  0
 22 24  2  0  0  0
 23 41  1  0  0  0
 25 42  1  0  0  0
 25 43  1  0  0  0
 25 44  1  0  0  0
M  END
> <s_m_entry_id>
7494

> <s_m_entry_name>
dock_pv.55

> <s_m_Source_Path>
/home/csk/Desktop/cluster/DUD-E-result/mapk2

> <s_m_Source_File>
dock_pv.maegz

> <i_m_Source_File_Index>
55

> <chembl_id>
CHEMBL248533

> <chembl_pref_name>
None

> <i_lp_mmshare_version>
53161

> <i_f3d_flags>
0

> <r_lp_tautomer_probability>
1

> <s_lp_Force_Field>
OPLS_2005

> <r_lp_Energy>
31.317263

> <b_lp_Chiralities_Consistent>
1

> <s_lp_Variant>
CHEMBL2208_lig147-1

> <s_i_glide_gridfile>
glide-grid_3m2w

> <i_i_glide_lignum>
215

> <i_i_glide_rotatable_bonds>
3

> <r_i_docking_score>
-7.64645521249284

> <r_i_glide_ligand_efficiency>
-0.305858208499714

> <r_i_glide_ligand_efficiency_sa>
-0.894334826071588

> <r_i_glide_ligand_efficiency_ln>
-1.81243903113259

> <r_i_glide_gscore>
-7.64645521249284

> <r_i_glide_lipo>
-2.33965282462697

> <r_i_glide_hbond>
-0.481674606879034

> <r_i_glide_metal>
0

> <r_i_glide_rewards>
-2.46528437562226

> <r_i_glide_evdw>
-37.804515838623

> <r_i_glide_ecoul>
-5.37734365463257

> <r_i_glide_erotb>
0.356096992337378

> <r_i_glide_esite>
-0.0191130575759171

> <r_i_glide_emodel>
-60.2567860667331

> <r_i_glide_energy>
-43.1818594932556

> <r_i_glide_einternal>
1.31019186973572

> <i_i_glide_confnum>
10

> <i_i_glide_posenum>
385

> <r_i_glide_eff_state_penalty>
0

> <s_user_duplicate_titles>
CHEMBL2208_lig147

> <s_m_subgroup_title>
dock_pv

> <s_m_subgroupid>
dock_pv

> <b_m_subgroup_collapsed>
1

$$$$
CHEMBL2208_lig163
                    3D
 Schrodinger Suite 2021-1.
 45 48  0  0  1  0            999 V2000
   35.2973    3.0366   14.3169 C   0  0  0  0  0  0
   34.8242    2.1141   15.2907 C   0  0  0  0  0  0
   33.8724    1.1512   14.9136 C   0  0  0  0  0  0
   33.3613    1.1062   13.6218 C   0  0  0  0  0  0
   33.8071    2.0139   12.6724 C   0  0  0  0  0  0
   34.7776    2.9497   13.0134 C   0  0  0  0  0  0
   38.3218    6.6058   19.3825 C   0  0  2  0  0  0
   39.1420    6.2303   13.9904 C   0  0  0  0  0  0
   38.0621    5.6510   14.6735 C   0  0  0  0  0  0
   37.9325    5.8503   16.0566 C   0  0  0  0  0  0
   40.0979    7.0219   14.6227 C   0  0  0  0  0  0
   39.9481    7.2046   15.9964 C   0  0  0  0  0  0
   38.8848    6.6126   16.7359 C   0  0  0  0  0  0
   40.7007    7.9168   16.9002 N   0  0  0  0  0  0
   40.1719    7.8057   18.1619 C   0  0  0  0  0  0
   39.0733    6.9655   18.1087 C   0  0  0  0  0  0
   38.5055    7.8129   20.3501 C   0  0  0  0  0  0
   39.9287    8.2147   20.4228 N   0  0  0  0  0  0
   40.7546    8.3507   19.3536 C   0  0  0  0  0  0
   41.8779    8.8250   19.4721 O   0  0  0  0  0  0
   38.8070    5.2782   19.9957 C   0  0  0  0  0  0
   37.0666    4.8084   13.9114 C   0  0  0  0  0  0
   36.2782    4.0017   14.6697 N   0  0  0  0  0  0
   37.0780    4.8250   12.6791 O   0  0  0  0  0  0
   35.3047    2.0662   16.7256 C   0  0  0  0  0  0
   35.4780    3.2248   17.3605 N   0  0  0  0  0  0
   35.4779    0.9963   17.3023 O   0  0  0  0  0  0
   33.5056    0.4315   15.6334 H   0  0  0  0  0  0
   32.6190    0.3677   13.3572 H   0  0  0  0  0  0
   33.4170    1.9815   11.6650 H   0  0  0  0  0  0
   35.0956    3.6231   12.2347 H   0  0  0  0  0  0
   37.2577    6.5076   19.1652 H   0  0  0  0  0  0
   39.2533    6.0715   12.9268 H   0  0  0  0  0  0
   37.1165    5.4266   16.6221 H   0  0  0  0  0  0
   40.9138    7.4639   14.0672 H   0  0  0  0  0  0
   41.5293    8.4646   16.7123 H   0  0  0  0  0  0
   38.1457    7.5655   21.3516 H   0  0  0  0  0  0
   37.9188    8.6703   20.0137 H   0  0  0  0  0  0
   40.3556    8.2501   21.3365 H   0  0  0  0  0  0
   38.6236    4.4394   19.3273 H   0  0  0  0  0  0
   39.8760    5.3001   20.2151 H   0  0  0  0  0  0
   38.2905    5.0624   20.9318 H   0  0  0  0  0  0
   36.4745    4.0178   15.6574 H   0  0  0  0  0  0
   35.7926    3.1922   18.3182 H   0  0  0  0  0  0
   34.9786    4.0446   17.0265 H   0  0  0  0  0  0
  1 23  1  0  0  0
  1  6  1  0  0  0
  1  2  2  0  0  0
  2  3  1  0  0  0
  2 25  1  0  0  0
  3  4  2  0  0  0
  3 28  1  0  0  0
  4  5  1  0  0  0
  4 29  1  0  0  0
  5  6  2  0  0  0
  5 30  1  0  0  0
  6 31  1  0  0  0
  7 16  1  0  0  0
  7 17  1  0  0  0
  7 21  1  0  0  0
  7 32  1  0  0  0
  8  9  2  0  0  0
  8 11  1  0  0  0
  8 33  1  0  0  0
  9 10  1  0  0  0
  9 22  1  0  0  0
 10 13  2  0  0  0
 10 34  1  0  0  0
 11 12  2  0  0  0
 11 35  1  0  0  0
 12 14  1  0  0  0
 12 13  1  0  0  0
 13 16  1  0  0  0
 14 15  1  0  0  0
 14 36  1  0  0  0
 15 16  2  0  0  0
 15 19  1  0  0  0
 17 18  1  0  0  0
 17 37  1  0  0  0
 17 38  1  0  0  0
 18 19  1  0  0  0
 18 39  1  0  0  0
 19 20  2  0  0  0
 21 40  1  0  0  0
 21 41  1  0  0  0
 21 42  1  0  0  0
 22 23  1  0  0  0
 22 24  2  0  0  0
 23 43  1  0  0  0
 25 26  1  0  0  0
 25 27  2  0  0  0
 26 44  1  0  0  0
 26 45  1  0  0  0
M  END
> <s_m_entry_id>
7495

> <s_m_entry_name>
dock_pv.56

> <s_m_Source_Path>
/home/csk/Desktop/cluster/DUD-E-result/mapk2

> <s_m_Source_File>
dock_pv.maegz

> <i_m_Source_File_Index>
56

> <chembl_id>
CHEMBL391983

> <chembl_pref_name>
None

> <i_lp_mmshare_version>
53161

> <i_f3d_flags>
0

> <r_lp_tautomer_probability>
1

> <s_lp_Force_Field>
OPLS_2005

> <r_lp_Energy>
37.886089

> <b_lp_Chiralities_Consistent>
1

> <s_lp_Variant>
CHEMBL2208_lig163-1

> <s_i_glide_gridfile>
glide-grid_3m2w

> <i_i_glide_lignum>
246

> <i_i_glide_rotatable_bonds>
4

> <r_i_docking_score>
-7.64046527240644

> <r_i_glide_ligand_efficiency>
-0.282980195274313

> <r_i_glide_ligand_efficiency_sa>
-0.848940584890281

> <r_i_glide_ligand_efficiency_ln>
-1.77857435250167

> <r_i_glide_gscore>
-7.64046527240644

> <r_i_glide_lipo>
-2.60922136238233

> <r_i_glide_hbond>
-0.611872607964427

> <r_i_glide_metal>
0

> <r_i_glide_rewards>
-1.23984075978349

> <r_i_glide_evdw>
-42.7290802001953

> <r_i_glide_ecoul>
-9.04895782470703

> <r_i_glide_erotb>
0.438651858152265

> <r_i_glide_esite>
-0.12438471671264

> <r_i_glide_emodel>
-72.6047784714304

> <r_i_glide_energy>
-51.7780380249023

> <r_i_glide_einternal>
3.33521509170532

> <i_i_glide_confnum>
4

> <i_i_glide_posenum>
210

> <r_i_glide_eff_state_penalty>
0

> <s_user_duplicate_titles>
CHEMBL2208_lig163

> <s_m_subgroup_title>
dock_pv

> <s_m_subgroupid>
dock_pv

> <b_m_subgroup_collapsed>
1

$$$$
CHEMBL2208_lig205
                    3D
 Schrodinger Suite 2021-1.
 44 47  0  0  1  0            999 V2000
   39.1450    6.2267   14.0400 C   0  0  0  0  0  0
   38.0493    5.6612   14.7050 C   0  0  0  0  0  0
   37.8877    5.8528   16.0877 C   0  0  0  0  0  0
   40.0979    6.9922   14.7079 C   0  0  0  0  0  0
   37.0678    4.8167   13.9275 C   0  0  0  0  0  0
   37.0782    4.8253   12.6946 O   0  0  0  0  0  0
   36.2780    4.0176   14.6845 N   0  0  0  0  0  0
   35.3197    3.1031   14.2750 C   0  0  0  0  0  0
   39.9794    7.1528   16.0927 C   0  0  0  0  0  0
   38.8792    6.5584   16.7679 C   0  0  0  0  0  0
   40.7420    7.8317   17.0856 C   0  0  0  0  0  0
   40.1770    7.5713   18.3162 C   0  0  0  0  0  0
   39.0306    6.8242   18.1170 N   0  0  0  0  0  0
   38.1463    6.4281   19.2103 C   0  0  0  0  0  0
   39.0362    6.2409   20.4717 C   0  0  1  0  0  0
   39.8747    7.4498   20.6308 N   0  0  0  0  0  0
   40.5829    8.0248   19.6258 C   0  0  0  0  0  0
   41.4774    8.8247   19.8719 O   0  0  0  0  0  0
   34.8261    2.9248   13.0728 N   0  0  0  0  0  0
   33.8777    2.0060   13.0666 C   0  0  0  0  0  0
   33.6236    1.3754   14.2803 C   0  0  0  0  0  0
   34.6641    2.0553   15.4946 S   0  0  0  0  0  0
   38.2336    5.8617   21.7363 C   0  0  0  0  0  0
   37.5828    4.5495   21.6462 N   0  0  0  0  0  0
   36.2970    4.3351   21.3264 C   0  0  0  0  0  0
   35.4992    5.2370   21.0683 O   0  0  0  0  0  0
   35.8509    2.8791   21.2815 C   0  0  0  0  0  0
   39.2756    6.0718   12.9781 H   0  0  0  0  0  0
   37.0507    5.4435   16.6349 H   0  0  0  0  0  0
   40.9218    7.4364   14.1658 H   0  0  0  0  0  0
   36.4441    4.0315   15.6775 H   0  0  0  0  0  0
   41.6331    8.4212   16.9533 H   0  0  0  0  0  0
   37.6196    5.5102   18.9549 H   0  0  0  0  0  0
   37.4106    7.2148   19.3778 H   0  0  0  0  0  0
   39.7256    5.4095   20.2923 H   0  0  0  0  0  0
   40.1993    7.6534   21.5663 H   0  0  0  0  0  0
   33.3721    1.7881   12.1359 H   0  0  0  0  0  0
   32.9109    0.6001   14.5144 H   0  0  0  0  0  0
   37.5175    6.6473   21.9859 H   0  0  0  0  0  0
   38.9135    5.8252   22.5884 H   0  0  0  0  0  0
   38.1574    3.7454   21.8712 H   0  0  0  0  0  0
   35.5671    2.5367   22.2781 H   0  0  0  0  0  0
   34.9866    2.7607   20.6276 H   0  0  0  0  0  0
   36.6446    2.2293   20.9051 H   0  0  0  0  0  0
  1  2  2  0  0  0
  1  4  1  0  0  0
  1 28  1  0  0  0
  2  3  1  0  0  0
  2  5  1  0  0  0
  3 10  2  0  0  0
  3 29  1  0  0  0
  4  9  2  0  0  0
  4 30  1  0  0  0
  5  6  2  0  0  0
  5  7  1  0  0  0
  7  8  1  0  0  0
  7 31  1  0  0  0
  8 19  2  0  0  0
  8 22  1  0  0  0
  9 10  1  0  0  0
  9 11  1  0  0  0
 10 13  1  0  0  0
 11 12  2  0  0  0
 11 32  1  0  0  0
 12 17  1  0  0  0
 12 13  1  0  0  0
 13 14  1  0  0  0
 14 15  1  0  0  0
 14 33  1  0  0  0
 14 34  1  0  0  0
 15 16  1  0  0  0
 15 23  1  0  0  0
 15 35  1  0  0  0
 16 17  1  0  0  0
 16 36  1  0  0  0
 17 18  2  0  0  0
 19 20  1  0  0  0
 20 21  2  0  0  0
 20 37  1  0  0  0
 21 22  1  0  0  0
 21 38  1  0  0  0
 23 24  1  0  0  0
 23 39  1  0  0  0
 23 40  1  0  0  0
 24 25  1  0  0  0
 24 41  1  0  0  0
 25 26  2  0  0  0
 25 27  1  0  0  0
 27 42  1  0  0  0
 27 43  1  0  0  0
 27 44  1  0  0  0
M  END
> <s_m_entry_id>
7496

> <s_m_entry_name>
dock_pv.57

> <s_m_Source_Path>
/home/csk/Desktop/cluster/DUD-E-result/mapk2

> <s_m_Source_File>
dock_pv.maegz

> <i_m_Source_File_Index>
57

> <chembl_id>
CHEMBL436652

> <chembl_pref_name>
None

> <i_lp_mmshare_version>
53161

> <i_f3d_flags>
0

> <r_lp_tautomer_probability>
0.999000488399163

> <s_lp_Force_Field>
OPLS_2005

> <r_lp_Energy>
24.197787

> <b_lp_Chiralities_Consistent>
1

> <s_lp_Variant>
CHEMBL2208_lig205-2

> <s_i_glide_gridfile>
glide-grid_3m2w

> <i_i_glide_lignum>
322

> <i_i_glide_rotatable_bonds>
6

> <r_i_docking_score>
-7.63985308146606

> <r_i_glide_ligand_efficiency>
-0.28295752153578

> <r_i_glide_ligand_efficiency_sa>
-0.848872563674759

> <r_i_glide_ligand_efficiency_ln>
-1.7784318445435

> <r_i_glide_gscore>
-7.63985308146606

> <r_i_glide_lipo>
-2.56045434766301

> <r_i_glide_hbond>
-0.446280166604604

> <r_i_glide_metal>
0

> <r_i_glide_rewards>
-1.16994072853738

> <r_i_glide_evdw>
-42.7620124816895

> <r_i_glide_ecoul>
-12.1692695617676

> <r_i_glide_erotb>
0.660885141508508

> <r_i_glide_esite>
-0.160571921819972

> <r_i_glide_emodel>
-76.9612096573945

> <r_i_glide_energy>
-54.931282043457

> <r_i_glide_einternal>
5.82646179199219

> <i_i_glide_confnum>
26

> <i_i_glide_posenum>
131

> <r_i_glide_eff_state_penalty>
0

> <s_user_duplicate_titles>
CHEMBL2208_lig205

> <s_m_subgroup_title>
dock_pv

> <s_m_subgroupid>
dock_pv

> <b_m_subgroup_collapsed>
1

$$$$
CHEMBL2208_lig872
                    3D
 Schrodinger Suite 2021-1.
 43 46  0  0  1  0            999 V2000
   40.1217    6.6737   13.7374 N   0  0  0  0  0  0
   39.0474    6.8855   18.3121 N   0  0  0  0  0  0
   38.1871    5.3913   13.0989 N   0  0  0  0  0  0
   38.4029    6.7763   20.6245 N   0  0  0  0  0  0
   40.2807    8.0112   20.0530 N   0  0  0  0  0  0
   36.6792    5.8228   22.8497 N   0  0  0  0  0  0
   39.7477    6.9235   15.9714 C   0  0  0  0  0  0
   38.6651    6.1627   15.3928 C   0  0  0  0  0  0
   39.9574    7.3205   17.3986 C   0  0  0  0  0  0
   38.9413    6.0254   13.9966 C   0  0  0  0  0  0
   40.5771    7.2331   14.9015 C   0  0  0  0  0  0
   39.2598    7.2346   19.6132 C   0  0  0  0  0  0
   37.4788    5.5666   15.8630 C   0  0  0  0  0  0
   41.0576    8.0943   17.7791 C   0  0  0  0  0  0
   37.3210    5.8197   20.3833 C   0  0  2  0  0  0
   41.1751    8.4249   19.1243 C   0  0  0  0  0  0
   36.6794    4.8829   14.9480 C   0  0  0  0  0  0
   37.0648    4.8250   13.6091 C   0  0  0  0  0  0
   36.2224    5.9718   21.4736 C   0  0  1  0  0  0
   37.8694    4.3727   20.3223 C   0  0  0  0  0  0
   35.0896    4.9746   21.1516 C   0  0  0  0  0  0
   36.7300    3.3485   20.1019 C   0  0  0  0  0  0
   35.5841    3.5147   21.1188 C   0  0  0  0  0  0
   40.5958    6.7733   12.8465 H   0  0  0  0  0  0
   38.7797    6.8146   21.5604 H   0  0  0  0  0  0
   37.4390    6.4575   23.0447 H   0  0  0  0  0  0
   35.9243    6.0886   23.4733 H   0  0  0  0  0  0
   41.4781    7.8188   14.8752 H   0  0  0  0  0  0
   37.1985    5.6186   16.9048 H   0  0  0  0  0  0
   41.7968    8.4243   17.0721 H   0  0  0  0  0  0
   36.8834    6.0480   19.4098 H   0  0  0  0  0  0
   42.0080    9.0136   19.4710 H   0  0  0  0  0  0
   35.7789    4.3851   15.2722 H   0  0  0  0  0  0
   36.4571    4.2796   12.9044 H   0  0  0  0  0  0
   35.8203    6.9824   21.3840 H   0  0  0  0  0  0
   38.6033    4.2783   19.5224 H   0  0  0  0  0  0
   38.3993    4.1296   21.2444 H   0  0  0  0  0  0
   34.2742    5.0804   21.8688 H   0  0  0  0  0  0
   34.6779    5.2204   20.1745 H   0  0  0  0  0  0
   37.1157    2.3323   20.1752 H   0  0  0  0  0  0
   36.3381    3.4537   19.0887 H   0  0  0  0  0  0
   35.9274    3.2116   22.1095 H   0  0  0  0  0  0
   34.7623    2.8442   20.8649 H   0  0  0  0  0  0
  1 10  1  0  0  0
  1 11  1  0  0  0
  1 24  1  0  0  0
  2  9  2  0  0  0
  2 12  1  0  0  0
  3 10  2  0  0  0
  3 18  1  0  0  0
  4 12  1  0  0  0
  4 15  1  0  0  0
  4 25  1  0  0  0
  5 12  2  0  0  0
  5 16  1  0  0  0
  6 19  1  0  0  0
  6 26  1  0  0  0
  6 27  1  0  0  0
  7  8  1  0  0  0
  7  9  1  0  0  0
  7 11  2  0  0  0
  8 10  1  0  0  0
  8 13  2  0  0  0
  9 14  1  0  0  0
 11 28  1  0  0  0
 13 17  1  0  0  0
 13 29  1  0  0  0
 14 16  2  0  0  0
 14 30  1  0  0  0
 15 19  1  0  0  0
 15 20  1  0  0  0
 15 31  1  0  0  0
 16 32  1  0  0  0
 17 18  2  0  0  0
 17 33  1  0  0  0
 18 34  1  0  0  0
 19 21  1  0  0  0
 19 35  1  0  0  0
 20 22  1  0  0  0
 20 36  1  0  0  0
 20 37  1  0  0  0
 21 23  1  0  0  0
 21 38  1  0  0  0
 21 39  1  0  0  0
 22 23  1  0  0  0
 22 40  1  0  0  0
 22 41  1  0  0  0
 23 42  1  0  0  0
 23 43  1  0  0  0
M  END
> <s_m_entry_id>
7497

> <s_m_entry_name>
dock_pv.58

> <s_m_Source_Path>
/home/csk/Desktop/cluster/DUD-E-result/mapk2

> <s_m_Source_File>
dock_pv.maegz

> <i_m_Source_File_Index>
58

> <chembl_id>
CHEMBL1995813

> <chembl_pref_name>
None

> <i_lp_mmshare_version>
53161

> <i_f3d_flags>
0

> <r_lp_tautomer_probability>
0.999998420164496

> <s_lp_Force_Field>
OPLS_2005

> <r_lp_Energy>
14.973411

> <b_lp_Chiralities_Consistent>
1

> <s_lp_Variant>
CHEMBL2208_lig872-3

> <s_i_glide_gridfile>
glide-grid_3m2w

> <i_i_glide_lignum>
1112

> <i_i_glide_rotatable_bonds>
3

> <r_i_docking_score>
-7.62848701456152

> <r_i_glide_ligand_efficiency>
-0.331673348459196

> <r_i_glide_ligand_efficiency_sa>
-0.943234882794075

> <r_i_glide_ligand_efficiency_ln>
-1.84463733141689

> <r_i_glide_gscore>
-7.62848701456152

> <r_i_glide_lipo>
-1.78093243650478

> <r_i_glide_hbond>
-0.747650638185721

> <r_i_glide_metal>
0

> <r_i_glide_rewards>
-3.00949933903091

> <r_i_glide_evdw>
-40.7796936035156

> <r_i_glide_ecoul>
-4.05767440795898

> <r_i_glide_erotb>
0.583625750748594

> <r_i_glide_esite>
-0.0263945102190656

> <r_i_glide_emodel>
-62.1447796592639

> <r_i_glide_energy>
-44.8373680114746

> <r_i_glide_einternal>
3.44853067398071

> <i_i_glide_confnum>
23

> <i_i_glide_posenum>
287

> <r_i_glide_eff_state_penalty>
0

> <s_user_duplicate_titles>
CHEMBL2208_lig872

> <s_m_subgroup_title>
dock_pv

> <s_m_subgroupid>
dock_pv

> <b_m_subgroup_collapsed>
1

$$$$
CHEMBL2208_lig1219
                    3D
 Schrodinger Suite 2021-1.
 30 32  0  0  1  0            999 V2000
   37.4888    5.2246   12.4819 O   0  0  0  0  0  0
   39.7929    8.0140   20.2713 N   0  0  0  0  0  0
   38.8255    7.0248   22.2716 N   0  0  0  0  0  0
   39.2442    6.8108   18.1933 C   0  0  0  0  0  0
   38.3454    6.0294   20.3078 C   0  0  0  0  0  0
   39.0454    7.1087   20.9119 C   0  0  0  0  0  0
   39.3903    6.7027   16.7030 C   0  0  0  0  0  0
   38.4712    5.8844   18.9168 C   0  0  0  0  0  0
   39.8634    7.8398   18.9244 C   0  0  0  0  0  0
   38.4070    6.0676   15.9251 C   0  0  0  0  0  0
   37.6599    5.3316   21.3559 C   0  0  0  0  0  0
   38.5301    5.9327   14.5333 C   0  0  0  0  0  0
   40.5042    7.2350   16.0356 C   0  0  0  0  0  0
   37.9790    5.9758   22.5361 C   0  0  0  0  0  0
   39.6539    6.4813   13.9046 C   0  0  0  0  0  0
   40.6206    7.1511   14.6487 C   0  0  0  0  0  0
   37.4781    5.2500   13.7116 C   0  0  0  0  0  0
   36.3483    4.5222   14.4394 C   0  0  0  0  0  0
   39.2588    7.5748   23.0075 H   0  0  0  0  0  0
   37.9736    5.0594   18.4328 H   0  0  0  0  0  0
   40.4568    8.5839   18.4179 H   0  0  0  0  0  0
   37.5275    5.6827   16.4209 H   0  0  0  0  0  0
   37.0363    4.4536   21.2733 H   0  0  0  0  0  0
   41.2926    7.7333   16.5803 H   0  0  0  0  0  0
   37.7058    5.7487   23.5550 H   0  0  0  0  0  0
   39.7806    6.4168   12.8315 H   0  0  0  0  0  0
   41.4647    7.6089   14.1499 H   0  0  0  0  0  0
   35.7713    5.2196   15.0462 H   0  0  0  0  0  0
   36.7582    3.7592   15.0999 H   0  0  0  0  0  0
   35.6760    4.0379   13.7292 H   0  0  0  0  0  0
  1 17  2  0  0  0
  2  6  2  0  0  0
  2  9  1  0  0  0
  3  6  1  0  0  0
  3 14  1  0  0  0
  3 19  1  0  0  0
  4  7  1  0  0  0
  4  8  1  0  0  0
  4  9  2  0  0  0
  5  6  1  0  0  0
  5  8  2  0  0  0
  5 11  1  0  0  0
  7 10  2  0  0  0
  7 13  1  0  0  0
  8 20  1  0  0  0
  9 21  1  0  0  0
 10 12  1  0  0  0
 10 22  1  0  0  0
 11 14  2  0  0  0
 11 23  1  0  0  0
 12 15  2  0  0  0
 12 17  1  0  0  0
 13 16  2  0  0  0
 13 24  1  0  0  0
 14 25  1  0  0  0
 15 16  1  0  0  0
 15 26  1  0  0  0
 16 27  1  0  0  0
 17 18  1  0  0  0
 18 28  1  0  0  0
 18 29  1  0  0  0
 18 30  1  0  0  0
M  END
> <s_m_entry_id>
7498

> <s_m_entry_name>
dock_pv.59

> <s_m_Source_Path>
/home/csk/Desktop/cluster/DUD-E-result/mapk2

> <s_m_Source_File>
dock_pv.maegz

> <i_m_Source_File_Index>
59

> <chembl_id>
CHEMBL2000568

> <chembl_pref_name>
None

> <i_lp_mmshare_version>
53161

> <i_f3d_flags>
0

> <r_lp_tautomer_probability>
0.999948432606831

> <s_lp_Force_Field>
OPLS_2005

> <r_lp_Energy>
16.517045

> <b_lp_Chiralities_Consistent>
1

> <s_lp_Variant>
CHEMBL2208_lig1219-1

> <s_i_glide_gridfile>
glide-grid_3m2w

> <i_i_glide_lignum>
1646

> <i_i_glide_rotatable_bonds>
2

> <r_i_docking_score>
-7.62383056320276

> <r_i_glide_ligand_efficiency>
-0.423546142400153

> <r_i_glide_ligand_efficiency_sa>
-1.11000490667614

> <r_i_glide_ligand_efficiency_ln>
-1.95966633464499

> <r_i_glide_gscore>
-7.62383056320276

> <r_i_glide_lipo>
-2.34311932892027

> <r_i_glide_hbond>
-0.423891199404251

> <r_i_glide_metal>
0

> <r_i_glide_rewards>
-2.70481447176471

> <r_i_glide_evdw>
-33.8770370483398

> <r_i_glide_ecoul>
-4.26733350753784

> <r_i_glide_erotb>
0.308371208856827

> <r_i_glide_esite>
-0.12642489342269

> <r_i_glide_emodel>
-56.400803143786

> <r_i_glide_energy>
-38.1443705558777

> <r_i_glide_einternal>
0.464431256055832

> <i_i_glide_confnum>
3

> <i_i_glide_posenum>
325

> <r_i_glide_eff_state_penalty>
0

> <s_user_duplicate_titles>
CHEMBL2208_lig1219

> <s_m_subgroup_title>
dock_pv

> <s_m_subgroupid>
dock_pv

> <b_m_subgroup_collapsed>
1

$$$$
CHEMBL2208_lig1481
                    3D
 Schrodinger Suite 2021-1.
 49 52  0  0  1  0            999 V2000
   38.9547    6.6862   21.4498 O   0  0  0  0  0  0
   38.1465    5.5404   12.6721 N   0  0  0  0  0  0
   37.0781    4.8251   13.0438 N   0  0  0  0  0  0
   40.8478    8.8210   19.2093 N   0  0  0  0  0  0
   38.2776    5.6232   23.9848 N   0  0  0  0  0  0
   37.8549    5.5507   14.9659 C   0  0  0  0  0  0
   38.6755    5.9268   13.8623 C   0  0  0  0  0  0
   39.4032    6.6610   16.4622 C   0  0  0  0  0  0
   38.2097    5.9513   16.2569 C   0  0  0  0  0  0
   36.8124    4.7780   14.3863 C   0  0  0  0  0  0
   39.7582    7.1469   17.8261 C   0  0  0  0  0  0
   39.8781    6.6087   14.0637 C   0  0  0  0  0  0
   40.2301    6.9462   15.3656 C   0  0  0  0  0  0
   39.2556    6.5350   18.9892 C   0  0  0  0  0  0
   39.4780    7.1125   20.2474 C   0  0  0  0  0  0
   40.5589    8.2858   18.0030 C   0  0  0  0  0  0
   40.2776    8.2462   20.2910 C   0  0  0  0  0  0
   35.6629    3.9642   14.9349 C   0  0  0  0  0  0
   38.2304    5.4615   21.5237 C   0  0  0  0  0  0
   37.4137    5.4059   22.8366 C   0  0  1  0  0  0
   35.5961    3.7912   22.0166 C   0  0  0  0  0  0
   36.6973    4.0536   23.0345 C   0  0  0  0  0  0
   35.8781    3.0711   20.8529 C   0  0  0  0  0  0
   34.3020    4.2601   22.2552 C   0  0  0  0  0  0
   34.8657    2.8152   19.9323 C   0  0  0  0  0  0
   33.2867    3.9927   21.3405 C   0  0  0  0  0  0
   33.5728    3.2677   20.1850 C   0  0  0  0  0  0
   36.5136    4.3435   12.3588 H   0  0  0  0  0  0
   39.0260    4.9385   23.9495 H   0  0  0  0  0  0
   38.7734    6.5026   23.8730 H   0  0  0  0  0  0
   37.5529    5.7061   17.0774 H   0  0  0  0  0  0
   40.5172    6.8692   13.2312 H   0  0  0  0  0  0
   41.1653    7.4674   15.5041 H   0  0  0  0  0  0
   38.6642    5.6384   18.9085 H   0  0  0  0  0  0
   40.9680    8.8284   17.1639 H   0  0  0  0  0  0
   40.4683    8.6986   21.2512 H   0  0  0  0  0  0
   35.4990    4.1108   16.0015 H   0  0  0  0  0  0
   34.7225    4.2013   14.4385 H   0  0  0  0  0  0
   35.8367    2.8975   14.7939 H   0  0  0  0  0  0
   38.9333    4.6280   21.4617 H   0  0  0  0  0  0
   37.5281    5.3741   20.6954 H   0  0  0  0  0  0
   36.6766    6.2108   22.8340 H   0  0  0  0  0  0
   36.2537    4.0011   24.0311 H   0  0  0  0  0  0
   37.4189    3.2347   23.0031 H   0  0  0  0  0  0
   36.8752    2.6958   20.6685 H   0  0  0  0  0  0
   34.0822    4.8200   23.1532 H   0  0  0  0  0  0
   35.0785    2.2462   19.0396 H   0  0  0  0  0  0
   32.2815    4.3401   21.5287 H   0  0  0  0  0  0
   32.7860    3.0552   19.4764 H   0  0  0  0  0  0
  1 15  1  0  0  0
  1 19  1  0  0  0
  2  3  1  0  0  0
  2  7  2  0  0  0
  3 28  1  0  0  0
  3 10  1  0  0  0
  4 16  1  0  0  0
  4 17  2  0  0  0
  5 20  1  0  0  0
  5 29  1  0  0  0
  5 30  1  0  0  0
  6  9  1  0  0  0
  6  7  1  0  0  0
  6 10  2  0  0  0
  7 12  1  0  0  0
  8 13  1  0  0  0
  8 11  1  0  0  0
  8  9  2  0  0  0
  9 31  1  0  0  0
 10 18  1  0  0  0
 11 14  1  0  0  0
 11 16  2  0  0  0
 12 32  1  0  0  0
 12 13  2  0  0  0
 13 33  1  0  0  0
 14 15  2  0  0  0
 14 34  1  0  0  0
 15 17  1  0  0  0
 16 35  1  0  0  0
 17 36  1  0  0  0
 18 37  1  0  0  0
 18 38  1  0  0  0
 18 39  1  0  0  0
 19 20  1  0  0  0
 19 40  1  0  0  0
 19 41  1  0  0  0
 20 22  1  0  0  0
 20 42  1  0  0  0
 21 22  1  0  0  0
 21 23  2  0  0  0
 21 24  1  0  0  0
 22 43  1  0  0  0
 22 44  1  0  0  0
 23 25  1  0  0  0
 23 45  1  0  0  0
 24 26  2  0  0  0
 24 46  1  0  0  0
 25 27  2  0  0  0
 25 47  1  0  0  0
 26 27  1  0  0  0
 26 48  1  0  0  0
 27 49  1  0  0  0
M  END
> <s_m_entry_id>
7499

> <s_m_entry_name>
dock_pv.60

> <s_m_Source_Path>
/home/csk/Desktop/cluster/DUD-E-result/mapk2

> <s_m_Source_File>
dock_pv.maegz

> <i_m_Source_File_Index>
60

> <chembl_id>
CHEMBL2002726

> <chembl_pref_name>
None

> <i_lp_mmshare_version>
53161

> <i_f3d_flags>
0

> <r_lp_tautomer_probability>
0.0196078431372549

> <s_lp_Force_Field>
OPLS_2005

> <r_lp_Energy>
40.37

> <b_lp_Chiralities_Consistent>
1

> <s_lp_Variant>
CHEMBL2208_lig1481-4

> <s_i_glide_gridfile>
glide-grid_3m2w

> <i_i_glide_lignum>
2064

> <i_i_glide_rotatable_bonds>
6

> <r_i_docking_score>
-7.62199222352079

> <r_i_glide_ligand_efficiency>
-0.282296008278548

> <r_i_glide_ligand_efficiency_sa>
-0.846888023905242

> <r_i_glide_ligand_efficiency_ln>
-1.7742741312731

> <r_i_glide_gscore>
-7.62199222352079

> <r_i_glide_lipo>
-2.5461787655237

> <r_i_glide_hbond>
-0.661524634383138

> <r_i_glide_metal>
0

> <r_i_glide_rewards>
-1.86080316530449

> <r_i_glide_evdw>
-38.1770935058594

> <r_i_glide_ecoul>
-9.09451198577881

> <r_i_glide_erotb>
0.745495708144768

> <r_i_glide_esite>
-0.0259498932944443

> <r_i_glide_emodel>
-66.3862373740403

> <r_i_glide_energy>
-47.2716054916382

> <r_i_glide_einternal>
4.64161539077759

> <i_i_glide_confnum>
29

> <i_i_glide_posenum>
143

> <r_i_glide_eff_state_penalty>
0

> <s_user_duplicate_titles>
CHEMBL2208_lig1481,CHEMBL2208_lig1481

> <s_m_subgroup_title>
dock_pv

> <s_m_subgroupid>
dock_pv

> <b_m_subgroup_collapsed>
1

$$$$
CHEMBL2208_lig229
                    3D
 Schrodinger Suite 2021-1.
 34 36  0  0  1  0            999 V2000
   40.2728    8.4246   20.6769 O   0  0  0  0  0  0
   39.2246    7.7824   20.6667 C   0  0  0  0  0  0
   38.5264    7.5568   21.8080 N   0  0  0  0  0  0
   37.0825    7.2159   21.8477 C   0  0  0  0  0  0
   36.7209    6.0530   20.8697 C   0  0  2  0  0  0
   37.0253    4.6527   21.4561 C   0  0  0  0  0  0
   36.6090    3.4772   20.5533 C   0  0  0  0  0  0
   35.3600    3.5767   20.0954 F   0  0  0  0  0  0
   37.4761    6.3382   19.5843 C   0  0  0  0  0  0
   37.1993    5.8776   18.3188 N   0  0  0  0  0  0
   38.6212    7.1234   19.5332 C   0  0  0  0  0  0
   39.0455    7.0881   18.2036 C   0  0  0  0  0  0
   38.1562    6.3328   17.4401 C   0  0  0  0  0  0
   38.1964    6.0284   15.9846 C   0  0  0  0  0  0
   37.1981    5.3536   15.2715 C   0  0  0  0  0  0
   37.4245    5.1597   13.9056 C   0  0  0  0  0  0
   39.3223    6.4832   15.3779 N   0  0  0  0  0  0
   39.4432    6.2578   14.0544 C   0  0  0  0  0  0
   38.5379    5.6211   13.2726 N   0  0  0  0  0  0
   40.6093    6.7311   13.4750 N   0  0  0  0  0  0
   39.0233    7.6888   22.6811 H   0  0  0  0  0  0
   36.5190    8.1130   21.5848 H   0  0  0  0  0  0
   36.7938    6.9707   22.8701 H   0  0  0  0  0  0
   35.6477    6.1094   20.6836 H   0  0  0  0  0  0
   36.4984    4.5519   22.4066 H   0  0  0  0  0  0
   38.0874    4.5641   21.6968 H   0  0  0  0  0  0
   36.6790    2.5293   21.0873 H   0  0  0  0  0  0
   37.2576    3.4016   19.6811 H   0  0  0  0  0  0
   36.4228    5.2766   18.0778 H   0  0  0  0  0  0
   39.9258    7.5856   17.8252 H   0  0  0  0  0  0
   36.2979    4.9931   15.7435 H   0  0  0  0  0  0
   36.7176    4.6083   13.3037 H   0  0  0  0  0  0
   40.7690    6.6465   12.4750 H   0  0  0  0  0  0
   41.2508    7.2497   14.0543 H   0  0  0  0  0  0
  1  2  2  0  0  0
  2  3  1  0  0  0
  2 11  1  0  0  0
  3  4  1  0  0  0
  3 21  1  0  0  0
  4  5  1  0  0  0
  4 22  1  0  0  0
  4 23  1  0  0  0
  5  6  1  0  0  0
  5  9  1  0  0  0
  5 24  1  0  0  0
  6  7  1  0  0  0
  6 25  1  0  0  0
  6 26  1  0  0  0
  7  8  1  0  0  0
  7 27  1  0  0  0
  7 28  1  0  0  0
  9 11  2  0  0  0
  9 10  1  0  0  0
 10 13  1  0  0  0
 10 29  1  0  0  0
 11 12  1  0  0  0
 12 13  2  0  0  0
 12 30  1  0  0  0
 13 14  1  0  0  0
 14 17  2  0  0  0
 14 15  1  0  0  0
 15 16  2  0  0  0
 15 31  1  0  0  0
 16 19  1  0  0  0
 16 32  1  0  0  0
 17 18  1  0  0  0
 18 20  1  0  0  0
 18 19  2  0  0  0
 20 33  1  0  0  0
 20 34  1  0  0  0
M  END
> <s_m_entry_id>
7500

> <s_m_entry_name>
dock_pv.61

> <s_m_Source_Path>
/home/csk/Desktop/cluster/DUD-E-result/mapk2

> <s_m_Source_File>
dock_pv.maegz

> <i_m_Source_File_Index>
61

> <chembl_id>
CHEMBL524266

> <chembl_pref_name>
None

> <i_lp_mmshare_version>
53161

> <i_f3d_flags>
0

> <r_lp_tautomer_probability>
0.999999987636

> <s_lp_Force_Field>
OPLS_2005

> <r_lp_Energy>
7.175171

> <b_lp_Chiralities_Consistent>
1

> <s_lp_Variant>
CHEMBL2208_lig229-1

> <s_i_glide_gridfile>
glide-grid_3m2w

> <i_i_glide_lignum>
360

> <i_i_glide_rotatable_bonds>
3

> <r_i_docking_score>
-7.61977771250159

> <r_i_glide_ligand_efficiency>
-0.38098888562508

> <r_i_glide_ligand_efficiency_sa>
-1.03416294183489

> <r_i_glide_ligand_efficiency_ln>
-1.90697904435029

> <r_i_glide_gscore>
-7.61977771250159

> <r_i_glide_lipo>
-1.08150621662592

> <r_i_glide_hbond>
-0.570829179097772

> <r_i_glide_metal>
0

> <r_i_glide_rewards>
-2.84320655495191

> <r_i_glide_evdw>
-34.4001808166504

> <r_i_glide_ecoul>
-10.8164157867432

> <r_i_glide_erotb>
0.332016575510294

> <r_i_glide_esite>
-0.113780928492292

> <r_i_glide_emodel>
-64.6476591379298

> <r_i_glide_energy>
-45.2165966033936

> <r_i_glide_einternal>
1.42060601711273

> <i_i_glide_confnum>
2

> <i_i_glide_posenum>
117

> <r_i_glide_eff_state_penalty>
0

> <s_user_duplicate_titles>
CHEMBL2208_lig229,494338

> <s_m_subgroup_title>
dock_pv

> <s_m_subgroupid>
dock_pv

> <b_m_subgroup_collapsed>
1

$$$$
CHEMBL2208_lig1336
                    3D
 Schrodinger Suite 2021-1.
 28 30  0  0  1  0            999 V2000
   36.2780    4.8494   15.8548 O   0  0  0  0  0  0
   39.0796    5.8542   13.0720 O   0  0  0  0  0  0
   37.5130    5.7052   17.6535 N   0  0  0  0  0  0
   38.4151    6.5281   19.5407 N   0  0  0  0  0  0
   41.4690    8.4259   18.4257 N   0  0  0  0  0  0
   38.5638    6.4677   18.1823 C   0  0  0  0  0  0
   36.7316    5.2035   18.6919 C   0  0  0  0  0  0
   37.4048    5.5169   16.2883 C   0  0  0  0  0  0
   39.5489    7.0144   17.3309 C   0  0  0  0  0  0
   37.3269    5.7555   19.8550 C   0  0  0  0  0  0
   38.3999    5.9949   15.4168 C   0  0  0  0  0  0
   39.4776    6.7533   15.9411 C   0  0  0  0  0  0
   35.6397    4.3211   18.7368 C   0  0  0  0  0  0
   36.7923    5.4478   21.1133 C   0  0  0  0  0  0
   40.6209    7.8046   17.9406 C   0  0  0  0  0  0
   38.2637    5.6268   13.9615 C   0  0  0  0  0  0
   35.1450    4.0281   20.0149 C   0  0  0  0  0  0
   40.5670    7.3008   15.0022 C   0  0  0  0  0  0
   35.6979    4.5823   21.1723 C   0  0  0  0  0  0
   35.5473    4.8251   16.4828 H   0  0  0  0  0  0
   35.1942    3.8599   17.8719 H   0  0  0  0  0  0
   37.2324    5.8497   22.0164 H   0  0  0  0  0  0
   37.3442    5.1027   13.7039 H   0  0  0  0  0  0
   34.3123    3.3458   20.1128 H   0  0  0  0  0  0
   41.3336    7.9104   15.4773 H   0  0  0  0  0  0
   41.0776    6.4761   14.5078 H   0  0  0  0  0  0
   40.1171    7.9228   14.2266 H   0  0  0  0  0  0
   35.2836    4.3210   22.1389 H   0  0  0  0  0  0
  1  8  1  0  0  0
  1 20  1  0  0  0
  2 16  2  0  0  0
  3  6  1  0  0  0
  3  7  1  0  0  0
  3  8  1  0  0  0
  4  6  2  0  0  0
  4 10  1  0  0  0
  5 15  3  0  0  0
  6  9  1  0  0  0
  7 10  1  0  0  0
  7 13  2  0  0  0
  8 11  2  0  0  0
  9 12  2  0  0  0
  9 15  1  0  0  0
 10 14  2  0  0  0
 11 12  1  0  0  0
 11 16  1  0  0  0
 12 18  1  0  0  0
 13 17  1  0  0  0
 13 21  1  0  0  0
 14 19  1  0  0  0
 14 22  1  0  0  0
 16 23  1  0  0  0
 17 19  2  0  0  0
 17 24  1  0  0  0
 18 25  1  0  0  0
 18 26  1  0  0  0
 18 27  1  0  0  0
 19 28  1  0  0  0
M  END
> <s_m_entry_id>
7501

> <s_m_entry_name>
dock_pv.62

> <s_m_Source_Path>
/home/csk/Desktop/cluster/DUD-E-result/mapk2

> <s_m_Source_File>
dock_pv.maegz

> <i_m_Source_File_Index>
62

> <chembl_id>
CHEMBL1989856

> <chembl_pref_name>
None

> <i_lp_mmshare_version>
53161

> <i_f3d_flags>
0

> <r_lp_tautomer_probability>
1

> <s_lp_Force_Field>
OPLS_2005

> <r_lp_Energy>
26.459168

> <b_lp_Chiralities_Consistent>
1

> <s_lp_Variant>
CHEMBL2208_lig1336-1

> <s_i_glide_gridfile>
glide-grid_3m2w

> <i_i_glide_lignum>
1813

> <i_i_glide_rotatable_bonds>
2

> <r_i_docking_score>
-7.61061364175677

> <r_i_glide_ligand_efficiency>
-0.40055861272404

> <r_i_glide_ligand_efficiency_sa>
-1.06885126155355

> <r_i_glide_ligand_efficiency_ln>
-1.92945401917843

> <r_i_glide_gscore>
-7.61061364175677

> <r_i_glide_lipo>
-1.44317105177731

> <r_i_glide_hbond>
-0.238479097654268

> <r_i_glide_metal>
0

> <r_i_glide_rewards>
-3.23969189923132

> <r_i_glide_evdw>
-32.1557121276855

> <r_i_glide_ecoul>
-7.20990657806396

> <r_i_glide_erotb>
0

> <r_i_glide_esite>
0

> <r_i_glide_emodel>
-57.2022600645349

> <r_i_glide_energy>
-39.3656187057495

> <r_i_glide_einternal>
1.28652274608612

> <i_i_glide_confnum>
1

> <i_i_glide_posenum>
238

> <r_i_glide_eff_state_penalty>
0

> <s_user_duplicate_titles>
CHEMBL2208_lig1336

> <s_m_subgroup_title>
dock_pv

> <s_m_subgroupid>
dock_pv

> <b_m_subgroup_collapsed>
1

$$$$
CHEMBL2208_lig1475
                    3D
 Schrodinger Suite 2021-1.
 49 52  0  0  1  0            999 V2000
   34.1630   -1.1418   17.0806 Cl  0  0  0  0  0  0
   35.9363    0.4513   14.9186 Cl  0  0  0  0  0  0
   37.3098    4.8117   21.8048 O   0  0  0  0  0  0
   40.1624    6.4254   13.5585 N   0  0  0  0  0  0
   39.0765    5.8046   13.0723 N   0  0  0  0  0  0
   38.9046    8.0112   21.1217 N   0  0  0  0  0  0
   34.4630    4.8243   21.7898 N   0  0  0  0  0  0
   38.8112    6.0746   15.2915 C   0  0  0  0  0  0
   40.0646    6.6208   14.9206 C   0  0  0  0  0  0
   39.2614    6.7051   17.5886 C   0  0  0  0  0  0
   38.4122    6.1203   16.6380 C   0  0  0  0  0  0
   38.2574    5.5857   14.0666 C   0  0  0  0  0  0
   38.8735    6.7728   19.0282 C   0  0  0  0  0  0
   40.9247    7.2069   15.8480 C   0  0  0  0  0  0
   40.4923    7.2331   17.1734 C   0  0  0  0  0  0
   38.2162    5.7144   19.6792 C   0  0  0  0  0  0
   37.9185    5.7964   21.0514 C   0  0  0  0  0  0
   39.1768    7.9033   19.7997 C   0  0  0  0  0  0
   38.2989    6.9591   21.7234 C   0  0  0  0  0  0
   36.9536    4.8660   13.8241 C   0  0  0  0  0  0
   34.7292    2.4196   18.8277 C   0  0  0  0  0  0
   34.6801    0.4857   17.3538 C   0  0  0  0  0  0
   35.4483    1.1806   16.4112 C   0  0  0  0  0  0
   34.3233    1.1108   18.5493 C   0  0  0  0  0  0
   35.1883    4.2104   20.6882 C   0  0  2  0  0  0
   34.3053    3.0548   20.1495 C   0  0  0  0  0  0
   36.5841    3.7462   21.1828 C   0  0  0  0  0  0
   35.4775    3.1129   17.8726 C   0  0  0  0  0  0
   35.8322    2.4942   16.6777 C   0  0  0  0  0  0
   40.9160    6.6878   12.9328 H   0  0  0  0  0  0
   34.2756    4.1204   22.4907 H   0  0  0  0  0  0
   35.0771    5.4879   22.2490 H   0  0  0  0  0  0
   37.4558    5.7136   16.9305 H   0  0  0  0  0  0
   41.8798    7.6232   15.5626 H   0  0  0  0  0  0
   41.1517    7.6750   17.9062 H   0  0  0  0  0  0
   37.9778    4.8234   19.1216 H   0  0  0  0  0  0
   39.6572    8.7616   19.3559 H   0  0  0  0  0  0
   38.1192    7.0563   22.7841 H   0  0  0  0  0  0
   37.0292    3.8262   14.1283 H   0  0  0  0  0  0
   36.1247    5.3168   14.3694 H   0  0  0  0  0  0
   36.6806    4.8429   12.7692 H   0  0  0  0  0  0
   33.7451    0.5621   19.2805 H   0  0  0  0  0  0
   35.3047    4.9861   19.9322 H   0  0  0  0  0  0
   33.2820    3.4055   20.0020 H   0  0  0  0  0  0
   34.2527    2.2635   20.9046 H   0  0  0  0  0  0
   36.4601    2.9726   21.9418 H   0  0  0  0  0  0
   37.1609    3.2696   20.3905 H   0  0  0  0  0  0
   35.7801    4.1354   18.0309 H   0  0  0  0  0  0
   36.4023    3.0479   15.9562 H   0  0  0  0  0  0
  1 22  1  0  0  0
  2 23  1  0  0  0
  3 17  1  0  0  0
  3 27  1  0  0  0
  4  5  1  0  0  0
  4  9  1  0  0  0
  4 30  1  0  0  0
  5 12  2  0  0  0
  6 18  1  0  0  0
  6 19  2  0  0  0
  7 25  1  0  0  0
  7 31  1  0  0  0
  7 32  1  0  0  0
  8  9  1  0  0  0
  8 11  2  0  0  0
  8 12  1  0  0  0
  9 14  2  0  0  0
 10 11  1  0  0  0
 10 13  1  0  0  0
 10 15  2  0  0  0
 11 33  1  0  0  0
 12 20  1  0  0  0
 13 16  1  0  0  0
 13 18  2  0  0  0
 14 15  1  0  0  0
 14 34  1  0  0  0
 15 35  1  0  0  0
 16 17  2  0  0  0
 16 36  1  0  0  0
 17 19  1  0  0  0
 18 37  1  0  0  0
 19 38  1  0  0  0
 20 39  1  0  0  0
 20 40  1  0  0  0
 20 41  1  0  0  0
 21 24  1  0  0  0
 21 26  1  0  0  0
 21 28  2  0  0  0
 22 23  1  0  0  0
 22 24  2  0  0  0
 23 29  2  0  0  0
 24 42  1  0  0  0
 25 26  1  0  0  0
 25 27  1  0  0  0
 25 43  1  0  0  0
 26 44  1  0  0  0
 26 45  1  0  0  0
 27 46  1  0  0  0
 27 47  1  0  0  0
 28 29  1  0  0  0
 28 48  1  0  0  0
 29 49  1  0  0  0
M  END
> <s_m_entry_id>
7502

> <s_m_entry_name>
dock_pv.63

> <s_m_Source_Path>
/home/csk/Desktop/cluster/DUD-E-result/mapk2

> <s_m_Source_File>
dock_pv.maegz

> <i_m_Source_File_Index>
63

> <chembl_id>
CHEMBL1991063

> <chembl_pref_name>
None

> <i_lp_mmshare_version>
53161

> <i_f3d_flags>
0

> <r_lp_tautomer_probability>
0.980392156862745

> <s_lp_Force_Field>
OPLS_2005

> <r_lp_Energy>
24.598708

> <b_lp_Chiralities_Consistent>
1

> <s_lp_Variant>
CHEMBL2208_lig1475-1

> <s_i_glide_gridfile>
glide-grid_3m2w

> <i_i_glide_lignum>
2051

> <i_i_glide_rotatable_bonds>
6

> <r_i_docking_score>
-7.60291911524411

> <r_i_glide_ligand_efficiency>
-0.26216962466359

> <r_i_glide_ligand_efficiency_sa>
-0.805468148133607

> <r_i_glide_ligand_efficiency_ln>
-1.74087568399681

> <r_i_glide_gscore>
-7.60291911524411

> <r_i_glide_lipo>
-2.28033648134618

> <r_i_glide_hbond>
-0.676249837604763

> <r_i_glide_metal>
0

> <r_i_glide_rewards>
-1.82029152998471

> <r_i_glide_evdw>
-45.4701309204102

> <r_i_glide_ecoul>
-7.30771923065186

> <r_i_glide_erotb>
0.543623164309835

> <r_i_glide_esite>
0

> <r_i_glide_emodel>
-71.0113215275074

> <r_i_glide_energy>
-52.777850151062

> <r_i_glide_einternal>
10.6388931274414

> <i_i_glide_confnum>
84

> <i_i_glide_posenum>
46

> <r_i_glide_eff_state_penalty>
0

> <s_user_duplicate_titles>
CHEMBL2208_lig1475,CHEMBL2208_lig1475

> <s_m_subgroup_title>
dock_pv

> <s_m_subgroupid>
dock_pv

> <b_m_subgroup_collapsed>
1

$$$$
CHEMBL2208_lig1475
                    3D
 Schrodinger Suite 2021-1.
 49 52  0  0  1  0            999 V2000
   34.2466   -0.5584   17.4816 Cl  0  0  0  0  0  0
   35.9205    1.1431   15.3604 Cl  0  0  0  0  0  0
   36.8151    5.3751   21.6266 O   0  0  0  0  0  0
   40.1510    6.2929   13.5132 N   0  0  0  0  0  0
   39.0683    5.6301   13.0721 N   0  0  0  0  0  0
   38.6608    8.4253   20.8888 N   0  0  0  0  0  0
   35.1612    3.6226   23.1214 N   0  0  0  0  0  0
   38.8196    6.0335   15.2728 C   0  0  0  0  0  0
   40.0670    6.5628   14.8645 C   0  0  0  0  0  0
   39.2822    6.7950   17.5291 C   0  0  0  0  0  0
   38.4293    6.1598   16.6149 C   0  0  0  0  0  0
   38.2549    5.4721   14.0839 C   0  0  0  0  0  0
   38.8601    6.9717   18.9491 C   0  0  0  0  0  0
   40.9302    7.2045   15.7555 C   0  0  0  0  0  0
   40.5106    7.2981   17.0828 C   0  0  0  0  0  0
   38.1437    5.9808   19.6374 C   0  0  0  0  0  0
   37.6409    6.2271   20.9253 C   0  0  0  0  0  0
   39.1045    8.1693   19.6340 C   0  0  0  0  0  0
   37.9275    7.4648   21.5026 C   0  0  0  0  0  0
   36.9402    4.7507   13.8970 C   0  0  0  0  0  0
   34.8388    2.9233   19.3899 C   0  0  0  0  0  0
   34.7473    1.0617   17.8301 C   0  0  0  0  0  0
   35.4779    1.8074   16.8965 C   0  0  0  0  0  0
   34.4271    1.6252   19.0693 C   0  0  0  0  0  0
   35.6548    3.2331   21.8076 C   0  0  1  0  0  0
   34.5467    3.5174   20.7635 C   0  0  0  0  0  0
   36.9977    3.9590   21.5362 C   0  0  0  0  0  0
   35.5353    3.6697   18.4398 C   0  0  0  0  0  0
   35.8640    3.1117   17.2065 C   0  0  0  0  0  0
   40.8978    6.5246   12.8676 H   0  0  0  0  0  0
   35.8607    3.4095   23.8188 H   0  0  0  0  0  0
   35.0635    4.6298   23.1379 H   0  0  0  0  0  0
   37.4683    5.7848   16.9316 H   0  0  0  0  0  0
   41.8783    7.6172   15.4442 H   0  0  0  0  0  0
   41.1678    7.7875   17.7865 H   0  0  0  0  0  0
   37.9484    5.0464   19.1390 H   0  0  0  0  0  0
   39.6310    8.9796   19.1538 H   0  0  0  0  0  0
   37.5602    7.6996   22.4910 H   0  0  0  0  0  0
   36.9813    3.7480   14.3196 H   0  0  0  0  0  0
   36.1125    5.2756   14.3739 H   0  0  0  0  0  0
   36.6783    4.6206   12.8462 H   0  0  0  0  0  0
   33.8777    1.0413   19.7950 H   0  0  0  0  0  0
   35.8383    2.1560   21.8321 H   0  0  0  0  0  0
   34.3754    4.5905   20.6694 H   0  0  0  0  0  0
   33.5955    3.1058   21.1079 H   0  0  0  0  0  0
   37.7330    3.6785   22.2920 H   0  0  0  0  0  0
   37.4039    3.6170   20.5865 H   0  0  0  0  0  0
   35.8209    4.6867   18.6586 H   0  0  0  0  0  0
   36.4129    3.6985   16.4889 H   0  0  0  0  0  0
  1 22  1  0  0  0
  2 23  1  0  0  0
  3 17  1  0  0  0
  3 27  1  0  0  0
  4  5  1  0  0  0
  4  9  1  0  0  0
  4 30  1  0  0  0
  5 12  2  0  0  0
  6 18  1  0  0  0
  6 19  2  0  0  0
  7 25  1  0  0  0
  7 31  1  0  0  0
  7 32  1  0  0  0
  8  9  1  0  0  0
  8 11  2  0  0  0
  8 12  1  0  0  0
  9 14  2  0  0  0
 10 11  1  0  0  0
 10 13  1  0  0  0
 10 15  2  0  0  0
 11 33  1  0  0  0
 12 20  1  0  0  0
 13 16  1  0  0  0
 13 18  2  0  0  0
 14 15  1  0  0  0
 14 34  1  0  0  0
 15 35  1  0  0  0
 16 17  2  0  0  0
 16 36  1  0  0  0
 17 19  1  0  0  0
 18 37  1  0  0  0
 19 38  1  0  0  0
 20 39  1  0  0  0
 20 40  1  0  0  0
 20 41  1  0  0  0
 21 24  1  0  0  0
 21 26  1  0  0  0
 21 28  2  0  0  0
 22 23  1  0  0  0
 22 24  2  0  0  0
 23 29  2  0  0  0
 24 42  1  0  0  0
 25 26  1  0  0  0
 25 27  1  0  0  0
 25 43  1  0  0  0
 26 44  1  0  0  0
 26 45  1  0  0  0
 27 46  1  0  0  0
 27 47  1  0  0  0
 28 29  1  0  0  0
 28 48  1  0  0  0
 29 49  1  0  0  0
M  END
> <s_m_entry_id>
7503

> <s_m_entry_name>
dock_pv.64

> <s_m_Source_Path>
/home/csk/Desktop/cluster/DUD-E-result/mapk2

> <s_m_Source_File>
dock_pv.maegz

> <i_m_Source_File_Index>
64

> <chembl_id>
CHEMBL1991063

> <chembl_pref_name>
None

> <i_lp_mmshare_version>
53161

> <i_f3d_flags>
0

> <r_lp_tautomer_probability>
0.980392156862745

> <s_lp_Force_Field>
OPLS_2005

> <r_lp_Energy>
23.665702

> <b_lp_Chiralities_Consistent>
1

> <s_lp_Variant>
CHEMBL2208_lig1475-2

> <s_i_glide_gridfile>
glide-grid_3m2w

> <i_i_glide_lignum>
2052

> <i_i_glide_rotatable_bonds>
6

> <r_i_docking_score>
-7.5883793299983

> <r_i_glide_ligand_efficiency>
-0.261668252758562

> <r_i_glide_ligand_efficiency_sa>
-0.803927774795594

> <r_i_glide_ligand_efficiency_ln>
-1.73754644187266

> <r_i_glide_gscore>
-7.5883793299983

> <r_i_glide_lipo>
-2.54676252617565

> <r_i_glide_hbond>
-0.581088062301033

> <r_i_glide_metal>
0

> <r_i_glide_rewards>
-1.90446695214188

> <r_i_glide_evdw>
-45.2192840576172

> <r_i_glide_ecoul>
-5.59147167205811

> <r_i_glide_erotb>
0.543623164309835

> <r_i_glide_esite>
0

> <r_i_glide_emodel>
-68.7535257051773

> <r_i_glide_energy>
-50.8107557296753

> <r_i_glide_einternal>
9.74012756347656

> <i_i_glide_confnum>
86

> <i_i_glide_posenum>
72

> <r_i_glide_eff_state_penalty>
0

> <s_user_duplicate_titles>
CHEMBL2208_lig1475

> <s_m_subgroup_title>
dock_pv

> <s_m_subgroupid>
dock_pv

> <b_m_subgroup_collapsed>
1

$$$$
CHEMBL2208_lig1406
                    3D
 Schrodinger Suite 2021-1.
 28 30  0  0  1  0            999 V2000
   39.4709    6.2276   13.6179 N   0  0  0  0  0  0
   40.6530    7.6229   15.1723 N   0  0  0  0  0  0
   38.4117    5.4077   13.6305 N   0  0  0  0  0  0
   40.2147    8.4254   19.8744 N   0  0  0  0  0  0
   38.7713    6.1496   15.7545 C   0  0  0  0  0  0
   38.8736    6.4834   17.1423 C   0  0  0  0  0  0
   39.7069    6.7437   14.8662 C   0  0  0  0  0  0
   37.9728    5.3262   14.8669 C   0  0  0  0  0  0
   39.8452    7.4647   17.4701 C   0  0  0  0  0  0
   38.0665    5.7790   18.1958 C   0  0  0  0  0  0
   40.6779    7.9767   16.4765 C   0  0  0  0  0  0
   40.0468    7.9994   18.8134 C   0  0  0  0  0  0
   38.7092    5.2249   19.3157 C   0  0  0  0  0  0
   36.6832    5.6061   18.0733 C   0  0  0  0  0  0
   36.7528    4.4656   15.1204 C   0  0  0  0  0  0
   38.0048    4.4784   20.2555 C   0  0  0  0  0  0
   35.9807    4.8251   18.9911 C   0  0  0  0  0  0
   36.6418    4.2686   20.0809 C   0  0  0  0  0  0
   39.9743    6.4256   12.7627 H   0  0  0  0  0  0
   41.4322    8.7092   16.7234 H   0  0  0  0  0  0
   39.7782    5.3219   19.4456 H   0  0  0  0  0  0
   36.1506    6.0440   17.2427 H   0  0  0  0  0  0
   36.8263    3.8928   16.0421 H   0  0  0  0  0  0
   35.8501    5.0720   15.1844 H   0  0  0  0  0  0
   36.5810    3.7392   14.3230 H   0  0  0  0  0  0
   38.5201    4.0381   21.0983 H   0  0  0  0  0  0
   34.9228    4.6561   18.8566 H   0  0  0  0  0  0
   36.0981    3.6658   20.7938 H   0  0  0  0  0  0
  1  3  1  0  0  0
  1  7  1  0  0  0
  1 19  1  0  0  0
  2  7  2  0  0  0
  2 11  1  0  0  0
  3  8  2  0  0  0
  4 12  3  0  0  0
  5  6  2  0  0  0
  5  7  1  0  0  0
  5  8  1  0  0  0
  6  9  1  0  0  0
  6 10  1  0  0  0
  8 15  1  0  0  0
  9 11  2  0  0  0
  9 12  1  0  0  0
 10 13  2  0  0  0
 10 14  1  0  0  0
 11 20  1  0  0  0
 13 16  1  0  0  0
 13 21  1  0  0  0
 14 17  2  0  0  0
 14 22  1  0  0  0
 15 23  1  0  0  0
 15 24  1  0  0  0
 15 25  1  0  0  0
 16 18  2  0  0  0
 16 26  1  0  0  0
 17 18  1  0  0  0
 17 27  1  0  0  0
 18 28  1  0  0  0
M  END
> <s_m_entry_id>
7505

> <s_m_entry_name>
dock_pv.66

> <s_m_Source_Path>
/home/csk/Desktop/cluster/DUD-E-result/mapk2

> <s_m_Source_File>
dock_pv.maegz

> <i_m_Source_File_Index>
66

> <chembl_id>
CHEMBL1965495

> <chembl_pref_name>
None

> <i_lp_mmshare_version>
53161

> <i_f3d_flags>
0

> <r_lp_tautomer_probability>
1

> <s_lp_Force_Field>
OPLS_2005

> <r_lp_Energy>
11.787812

> <b_lp_Chiralities_Consistent>
1

> <s_lp_Variant>
CHEMBL2208_lig1406-1

> <s_i_glide_gridfile>
glide-grid_3m2w

> <i_i_glide_lignum>
1945

> <i_i_glide_rotatable_bonds>
1

> <r_i_docking_score>
-7.57614299851654

> <r_i_glide_ligand_efficiency>
-0.420896833250919

> <r_i_glide_ligand_efficiency_sa>
-1.10306175252937

> <r_i_glide_ligand_efficiency_ln>
-1.94740849203922

> <r_i_glide_gscore>
-7.57614299851654

> <r_i_glide_lipo>
-1.54633050840738

> <r_i_glide_hbond>
-0.0243722378483503

> <r_i_glide_metal>
0

> <r_i_glide_rewards>
-3.9747229447615

> <r_i_glide_evdw>
-31.5177097320557

> <r_i_glide_ecoul>
-5.11816692352295

> <r_i_glide_erotb>
0.312893217631924

> <r_i_glide_esite>
0

> <r_i_glide_emodel>
-52.2924271684402

> <r_i_glide_energy>
-36.6358766555786

> <r_i_glide_einternal>
2.10937356948853

> <i_i_glide_confnum>
1

> <i_i_glide_posenum>
272

> <r_i_glide_eff_state_penalty>
0

> <s_user_duplicate_titles>
CHEMBL2208_lig1406

> <s_m_subgroup_title>
dock_pv

> <s_m_subgroupid>
dock_pv

> <b_m_subgroup_collapsed>
1

$$$$
CHEMBL2208_lig1168
                    3D
 Schrodinger Suite 2021-1.
 38 41  0  0  1  0            999 V2000
   38.0456    6.1185   17.2170 C   0  0  0  0  0  0
   37.0781    5.4481   16.4566 C   0  0  0  0  0  0
   37.2280    5.2304   15.0866 C   0  0  0  0  0  0
   39.1909    6.6215   16.5823 C   0  0  0  0  0  0
   39.3519    6.4438   15.2073 C   0  0  0  0  0  0
   38.3748    5.7270   14.4538 C   0  0  0  0  0  0
   39.8780    6.2941   13.0721 N   0  0  0  0  0  0
   40.3153    6.8302   14.2515 C   0  0  0  0  0  0
   37.8827    6.3343   18.7003 C   0  0  0  0  0  0
   38.6535    7.2238   19.3081 N   0  0  0  0  0  0
   36.9860    5.7150   19.6006 C   0  0  0  0  0  0
   37.2402    6.2969   20.8244 N   0  0  0  0  0  0
   38.2713    7.2231   20.6002 C   0  0  0  0  0  0
   38.7674    7.9938   21.5756 N   0  0  0  0  0  0
   38.2452    7.8194   22.8183 C   0  0  0  0  0  0
   37.2309    6.9127   23.1181 C   0  0  0  0  0  0
   36.7097    6.1436   22.0805 C   0  0  0  0  0  0
   36.2433    3.3287   19.5984 C   0  0  0  0  0  0
   35.1150    2.5096   18.9497 C   0  0  0  0  0  0
   36.4434    2.9161   21.0632 C   0  0  0  0  0  0
   38.7119    5.6251   13.1326 N   0  0  0  0  0  0
   36.0107    4.7571   19.4357 N   0  0  0  0  0  0
   36.1817    5.0744   16.9215 H   0  0  0  0  0  0
   36.4725    4.6959   14.5294 H   0  0  0  0  0  0
   39.9469    7.1522   17.1414 H   0  0  0  0  0  0
   41.2286    7.4049   14.2908 H   0  0  0  0  0  0
   38.6775    8.4251   23.6015 H   0  0  0  0  0  0
   36.8479    6.8164   24.1246 H   0  0  0  0  0  0
   35.9104    5.4286   22.2049 H   0  0  0  0  0  0
   37.1682    3.0946   19.0712 H   0  0  0  0  0  0
   35.3090    1.4390   19.0325 H   0  0  0  0  0  0
   34.1496    2.7075   19.4182 H   0  0  0  0  0  0
   35.0176    2.7379   17.8860 H   0  0  0  0  0  0
   36.6780    1.8550   21.1355 H   0  0  0  0  0  0
   37.2719    3.4563   21.5231 H   0  0  0  0  0  0
   35.5472    3.0952   21.6589 H   0  0  0  0  0  0
   40.3836    6.4072   12.1958 H   0  0  0  0  0  0
   35.4051    4.8814   18.6371 H   0  0  0  0  0  0
  1  2  1  0  0  0
  1  9  1  0  0  0
  1  4  2  0  0  0
  2  3  2  0  0  0
  2 23  1  0  0  0
  3  6  1  0  0  0
  3 24  1  0  0  0
  4 25  1  0  0  0
  4  5  1  0  0  0
  5  6  1  0  0  0
  5  8  2  0  0  0
  6 21  2  0  0  0
  7 37  1  0  0  0
  7 21  1  0  0  0
  7  8  1  0  0  0
  8 26  1  0  0  0
  9 10  1  0  0  0
  9 11  2  0  0  0
 10 13  2  0  0  0
 11 12  1  0  0  0
 11 22  1  0  0  0
 12 13  1  0  0  0
 12 17  1  0  0  0
 13 14  1  0  0  0
 14 15  2  0  0  0
 15 16  1  0  0  0
 15 27  1  0  0  0
 16 17  2  0  0  0
 16 28  1  0  0  0
 17 29  1  0  0  0
 18 19  1  0  0  0
 18 20  1  0  0  0
 18 22  1  0  0  0
 18 30  1  0  0  0
 19 31  1  0  0  0
 19 32  1  0  0  0
 19 33  1  0  0  0
 20 34  1  0  0  0
 20 35  1  0  0  0
 20 36  1  0  0  0
 22 38  1  0  0  0
M  END
> <s_m_entry_id>
7506

> <s_m_entry_name>
dock_pv.67

> <s_m_Source_Path>
/home/csk/Desktop/cluster/DUD-E-result/mapk2

> <s_m_Source_File>
dock_pv.maegz

> <i_m_Source_File_Index>
67

> <chembl_id>
CHEMBL1682553

> <chembl_pref_name>
None

> <i_lp_mmshare_version>
53161

> <i_f3d_flags>
0

> <r_lp_tautomer_probability>
0.0196078431372549

> <s_lp_Force_Field>
OPLS_2005

> <r_lp_Energy>
32.711049

> <b_lp_Chiralities_Consistent>
1

> <s_lp_Variant>
CHEMBL2208_lig1168-2

> <s_i_glide_gridfile>
glide-grid_3m2w

> <i_i_glide_lignum>
1572

> <i_i_glide_rotatable_bonds>
3

> <r_i_docking_score>
-7.55810536702931

> <r_i_glide_ligand_efficiency>
-0.343550243955878

> <r_i_glide_ligand_efficiency_sa>
-0.962641294628767

> <r_i_glide_ligand_efficiency_ln>
-1.8474766402937

> <r_i_glide_gscore>
-7.55810536702931

> <r_i_glide_lipo>
-1.98456636352975

> <r_i_glide_hbond>
-0.595368928445999

> <r_i_glide_metal>
0

> <r_i_glide_rewards>
-2.65754093939394

> <r_i_glide_evdw>
-34.1541786193848

> <r_i_glide_ecoul>
-6.77199745178223

> <r_i_glide_erotb>
0.427217755477707

> <r_i_glide_esite>
-0.0243383424007613

> <r_i_glide_emodel>
-59.6167374392578

> <r_i_glide_energy>
-40.926176071167

> <r_i_glide_einternal>
1.06649541854858

> <i_i_glide_confnum>
4

> <i_i_glide_posenum>
358

> <r_i_glide_eff_state_penalty>
0

> <s_user_duplicate_titles>
CHEMBL2208_lig1168,CHEMBL2208_lig1168

> <s_m_subgroup_title>
dock_pv

> <s_m_subgroupid>
dock_pv

> <b_m_subgroup_collapsed>
1

$$$$
CHEMBL2208_lig1352
                    3D
 Schrodinger Suite 2021-1.
 34 37  0  0  1  0            999 V2000
   40.6864    7.2133   15.7320 C   0  0  0  0  0  0
   38.2647    6.0255   16.6560 C   0  0  0  0  0  0
   39.1200    6.6840   17.5537 C   0  0  0  0  0  0
   40.3039    7.2663   17.0741 C   0  0  0  0  0  0
   38.7841    6.7807   18.9970 C   0  0  0  0  0  0
   37.9278    5.7706   19.6119 C   0  0  0  0  0  0
   37.5782    5.8840   20.9186 C   0  0  0  0  0  0
   38.0297    6.9562   21.6403 N   0  0  0  0  0  0
   38.8163    7.9187   21.0995 C   0  0  0  0  0  0
   39.1983    7.7590   19.7471 N   0  0  0  0  0  0
   39.0783    8.8317   21.8692 O   0  0  0  0  0  0
   36.6682    4.9449   21.6428 C   0  0  0  0  0  0
   36.6827    4.8686   23.0482 C   0  0  0  0  0  0
   35.8145    4.0221   23.7273 C   0  0  0  0  0  0
   34.9438    3.2098   23.0102 C   0  0  0  0  0  0
   34.9333    3.2406   21.6206 C   0  0  0  0  0  0
   35.7833    4.1104   20.9420 C   0  0  0  0  0  0
   38.6144    5.9599   15.2998 C   0  0  0  0  0  0
   39.8239    6.5493   14.8573 C   0  0  0  0  0  0
   39.8782    6.3031   13.4996 N   0  0  0  0  0  0
   38.7965    5.6251   13.0721 N   0  0  0  0  0  0
   38.0419    5.4082   14.1161 C   0  0  0  0  0  0
   41.6065    7.6690   15.3942 H   0  0  0  0  0  0
   37.3335    5.5831   16.9788 H   0  0  0  0  0  0
   40.9638    7.7776   17.7614 H   0  0  0  0  0  0
   37.5721    4.9268   19.0447 H   0  0  0  0  0  0
   37.7846    7.0934   22.6067 H   0  0  0  0  0  0
   37.3649    5.4689   23.6331 H   0  0  0  0  0  0
   35.8298    3.9803   24.8065 H   0  0  0  0  0  0
   34.2819    2.5348   23.5341 H   0  0  0  0  0  0
   34.2675    2.5927   21.0711 H   0  0  0  0  0  0
   35.7383    4.1242   19.8643 H   0  0  0  0  0  0
   40.6025    6.5707   12.8417 H   0  0  0  0  0  0
   37.1129    4.8653   14.0238 H   0  0  0  0  0  0
  1 19  2  0  0  0
  1  4  1  0  0  0
  1 23  1  0  0  0
  2 18  2  0  0  0
  2  3  1  0  0  0
  2 24  1  0  0  0
  3  5  1  0  0  0
  3  4  2  0  0  0
  4 25  1  0  0  0
  5  6  1  0  0  0
  5 10  2  0  0  0
  6  7  2  0  0  0
  6 26  1  0  0  0
  7  8  1  0  0  0
  7 12  1  0  0  0
  8  9  1  0  0  0
  8 27  1  0  0  0
  9 11  2  0  0  0
  9 10  1  0  0  0
 12 13  2  0  0  0
 12 17  1  0  0  0
 13 14  1  0  0  0
 13 28  1  0  0  0
 14 15  2  0  0  0
 14 29  1  0  0  0
 15 16  1  0  0  0
 15 30  1  0  0  0
 16 17  2  0  0  0
 16 31  1  0  0  0
 17 32  1  0  0  0
 18 19  1  0  0  0
 18 22  1  0  0  0
 19 20  1  0  0  0
 20 21  1  0  0  0
 20 33  1  0  0  0
 21 22  2  0  0  0
 22 34  1  0  0  0
M  END
> <s_m_entry_id>
7507

> <s_m_entry_name>
dock_pv.68

> <s_m_Source_Path>
/home/csk/Desktop/cluster/DUD-E-result/mapk2

> <s_m_Source_File>
dock_pv.maegz

> <i_m_Source_File_Index>
68

> <chembl_id>
CHEMBL526133

> <chembl_pref_name>
None

> <i_lp_mmshare_version>
53161

> <i_f3d_flags>
0

> <r_lp_tautomer_probability>
0.509835439254261

> <s_lp_Force_Field>
OPLS_2005

> <r_lp_Energy>
20.409614

> <b_lp_Chiralities_Consistent>
1

> <s_lp_Variant>
CHEMBL2208_lig1352-1

> <s_i_glide_gridfile>
glide-grid_3m2w

> <i_i_glide_lignum>
1845

> <i_i_glide_rotatable_bonds>
2

> <r_i_docking_score>
-7.55785402360103

> <r_i_glide_ligand_efficiency>
-0.343538819254592

> <r_i_glide_ligand_efficiency_sa>
-0.962609282166457

> <r_i_glide_ligand_efficiency_ln>
-1.84741520279185

> <r_i_glide_gscore>
-7.55785402360103

> <r_i_glide_lipo>
-2.13579968936534

> <r_i_glide_hbond>
-0.543258069970177

> <r_i_glide_metal>
0

> <r_i_glide_rewards>
-2.31876934967632

> <r_i_glide_evdw>
-38.705509185791

> <r_i_glide_ecoul>
-5.73611688613892

> <r_i_glide_erotb>
0.306389032450747

> <r_i_glide_esite>
-0.0707229548295508

> <r_i_glide_emodel>
-66.0265935131369

> <r_i_glide_energy>
-44.4416260719299

> <r_i_glide_einternal>
0.595575451850891

> <i_i_glide_confnum>
1

> <i_i_glide_posenum>
310

> <r_i_glide_eff_state_penalty>
0

> <s_user_duplicate_titles>
CHEMBL2208_lig1352,CHEMBL2208_lig1352

> <s_m_subgroup_title>
dock_pv

> <s_m_subgroupid>
dock_pv

> <b_m_subgroup_collapsed>
1

$$$$
CHEMBL2208_lig225
                    3D
 Schrodinger Suite 2021-1.
 42 45  0  0  1  0            999 V2000
   39.1281    5.9940   14.2225 C   0  0  0  0  0  0
   37.9050    5.5647   14.7571 C   0  0  0  0  0  0
   37.6000    5.8301   16.1029 C   0  0  0  0  0  0
   40.0913    6.6466   14.9859 C   0  0  0  0  0  0
   36.9513    4.7839   13.8873 C   0  0  0  0  0  0
   37.0780    4.8250   12.6608 O   0  0  0  0  0  0
   36.0681    4.0250   14.5841 N   0  0  0  0  0  0
   35.0780    3.1032   14.1957 C   0  0  0  0  0  0
   39.7899    6.8469   16.3328 C   0  0  0  0  0  0
   38.5517    6.4488   16.9139 C   0  0  0  0  0  0
   40.5177    7.4289   17.3387 N   0  0  0  0  0  0
   39.8214    7.3926   18.5217 C   0  0  0  0  0  0
   38.5847    6.8250   18.2956 C   0  0  0  0  0  0
   37.5591    6.7449   19.4142 C   0  0  0  0  0  0
   38.2823    6.7915   20.7990 C   0  0  2  0  0  0
   39.4780    7.6776   20.7897 N   0  0  0  0  0  0
   40.2897    7.9666   19.7406 C   0  0  0  0  0  0
   41.3055    8.6440   19.8720 O   0  0  0  0  0  0
   34.6781    2.8250   12.8799 C   0  0  0  0  0  0
   33.6301    1.9314   12.6450 C   0  0  0  0  0  0
   33.0280    1.3072   13.7365 C   0  0  0  0  0  0
   33.4099    1.5373   15.0167 N   0  0  0  0  0  0
   34.4153    2.4250   15.2266 C   0  0  0  0  0  0
   38.4805    5.3973   21.4418 C   0  0  0  0  0  0
   39.0780    4.4250   20.5420 N   0  0  0  0  0  0
   39.3604    5.8030   13.1834 H   0  0  0  0  0  0
   36.6547    5.5477   16.5440 H   0  0  0  0  0  0
   41.0284    6.9631   14.5510 H   0  0  0  0  0  0
   36.1510    4.1109   15.5839 H   0  0  0  0  0  0
   41.4344    7.8466   17.2716 H   0  0  0  0  0  0
   36.9575    5.8387   19.3299 H   0  0  0  0  0  0
   36.8511    7.5707   19.3667 H   0  0  0  0  0  0
   37.5921    7.3011   21.4741 H   0  0  0  0  0  0
   39.8583    7.9178   21.6944 H   0  0  0  0  0  0
   35.1581    3.3111   12.0438 H   0  0  0  0  0  0
   33.3041    1.7214   11.6370 H   0  0  0  0  0  0
   32.2188    0.6059   13.5954 H   0  0  0  0  0  0
   34.6683    2.6014   16.2625 H   0  0  0  0  0  0
   37.5122    5.0065   21.7580 H   0  0  0  0  0  0
   39.0780    5.4817   22.3499 H   0  0  0  0  0  0
   40.0533    4.6589   20.3828 H   0  0  0  0  0  0
   39.0780    3.5065   20.9827 H   0  0  0  0  0  0
  1  2  2  0  0  0
  1  4  1  0  0  0
  1 26  1  0  0  0
  2  5  1  0  0  0
  2  3  1  0  0  0
  3 10  2  0  0  0
  3 27  1  0  0  0
  4  9  2  0  0  0
  4 28  1  0  0  0
  5  6  2  0  0  0
  5  7  1  0  0  0
  7  8  1  0  0  0
  7 29  1  0  0  0
  8 19  2  0  0  0
  8 23  1  0  0  0
  9 10  1  0  0  0
  9 11  1  0  0  0
 10 13  1  0  0  0
 11 12  1  0  0  0
 11 30  1  0  0  0
 12 13  2  0  0  0
 12 17  1  0  0  0
 13 14  1  0  0  0
 14 15  1  0  0  0
 14 31  1  0  0  0
 14 32  1  0  0  0
 15 16  1  0  0  0
 15 24  1  0  0  0
 15 33  1  0  0  0
 16 17  1  0  0  0
 16 34  1  0  0  0
 17 18  2  0  0  0
 19 20  1  0  0  0
 19 35  1  0  0  0
 20 21  2  0  0  0
 20 36  1  0  0  0
 21 22  1  0  0  0
 21 37  1  0  0  0
 22 23  2  0  0  0
 23 38  1  0  0  0
 24 25  1  0  0  0
 24 39  1  0  0  0
 24 40  1  0  0  0
 25 41  1  0  0  0
 25 42  1  0  0  0
M  END
> <s_m_entry_id>
7508

> <s_m_entry_name>
dock_pv.69

> <s_m_Source_Path>
/home/csk/Desktop/cluster/DUD-E-result/mapk2

> <s_m_Source_File>
dock_pv.maegz

> <i_m_Source_File_Index>
69

> <chembl_id>
CHEMBL255605

> <chembl_pref_name>
None

> <i_lp_mmshare_version>
53161

> <i_f3d_flags>
0

> <r_lp_tautomer_probability>
1

> <s_lp_Force_Field>
OPLS_2005

> <r_lp_Energy>
29.866156

> <b_lp_Chiralities_Consistent>
1

> <s_lp_Variant>
CHEMBL2208_lig225-1

> <s_i_glide_gridfile>
glide-grid_3m2w

> <i_i_glide_lignum>
355

> <i_i_glide_rotatable_bonds>
4

> <r_i_docking_score>
-7.54703419290107

> <r_i_glide_ligand_efficiency>
-0.301881367716043

> <r_i_glide_ligand_efficiency_sa>
-0.882706473090562

> <r_i_glide_ligand_efficiency_ln>
-1.78887327008181

> <r_i_glide_gscore>
-7.54703419290107

> <r_i_glide_lipo>
-2.34509660044377

> <r_i_glide_hbond>
-0.771476997700144

> <r_i_glide_metal>
0

> <r_i_glide_rewards>
-1.29888990536439

> <r_i_glide_evdw>
-36.7723083496094

> <r_i_glide_ecoul>
-11.2856893539429

> <r_i_glide_erotb>
0.50341694382946

> <r_i_glide_esite>
-0.103518812650332

> <r_i_glide_emodel>
-66.4513714996877

> <r_i_glide_energy>
-48.0579977035522

> <r_i_glide_einternal>
3.3109290599823

> <i_i_glide_confnum>
1

> <i_i_glide_posenum>
108

> <r_i_glide_eff_state_penalty>
0

> <s_user_duplicate_titles>
CHEMBL2208_lig225

> <s_m_subgroup_title>
dock_pv

> <s_m_subgroupid>
dock_pv

> <b_m_subgroup_collapsed>
1

$$$$
CHEMBL2208_lig813
                    3D
 Schrodinger Suite 2021-1.
 53 57  0  0  1  0            999 V2000
   37.4102    5.9812   20.8116 C   0  0  1  0  0  0
   38.0815    4.7150   21.4052 C   0  0  0  0  0  0
   37.3583    4.2163   22.6730 C   0  0  0  0  0  0
   35.8524    4.0128   22.4181 C   0  0  0  0  0  0
   35.2272    5.2250   21.8866 N   0  0  2  0  0  0
   35.8872    5.6972   20.6724 C   0  0  0  0  0  0
   37.6802    7.2700   21.6671 C   0  0  0  0  0  0
   39.0780    7.7516   21.5140 N   0  0  0  0  0  0
   39.7349    7.8813   20.3302 C   0  0  0  0  0  0
   40.8330    8.4250   20.2718 O   0  0  0  0  0  0
   37.9997    6.3337   19.4567 C   0  0  0  0  0  0
   39.0366    7.2299   19.2553 C   0  0  0  0  0  0
   39.3047    7.2161   17.8754 C   0  0  0  0  0  0
   38.3836    6.3875   17.2399 C   0  0  0  0  0  0
   37.6220    5.8425   18.2431 N   0  0  0  0  0  0
   38.1695    6.0249   15.8149 C   0  0  0  0  0  0
   39.0593    6.4035   14.8060 C   0  0  0  0  0  0
   38.8015    5.9911   13.4986 C   0  0  0  0  0  0
   37.7295    5.2250   13.1644 N   0  0  0  0  0  0
   36.8852    4.8252   14.1546 C   0  0  0  0  0  0
   37.0575    5.2469   15.4744 C   0  0  0  0  0  0
   35.8780    3.9220   13.7779 N   0  0  0  0  0  0
   35.2885    2.9570   14.5283 C   0  0  0  0  0  0
   34.4069    1.9767   13.7805 C   0  0  0  0  0  0
   35.4788    2.8002   15.7348 O   0  0  0  0  0  0
   32.7963    0.1091   12.4224 C   0  0  0  0  0  0
   33.0309    1.3635   11.8676 C   0  0  0  0  0  0
   33.8395    2.2851   12.5319 C   0  0  0  0  0  0
   33.3651   -0.2234   13.6487 C   0  0  0  0  0  0
   34.1538    0.7064   14.3273 C   0  0  0  0  0  0
   32.4863    1.6853   10.6730 F   0  0  0  0  0  0
   33.1550   -1.4518   14.1758 F   0  0  0  0  0  0
   38.0506    3.9079   20.6716 H   0  0  0  0  0  0
   39.1362    4.8916   21.6192 H   0  0  0  0  0  0
   37.7882    3.2582   22.9844 H   0  0  0  0  0  0
   37.5185    4.8827   23.5214 H   0  0  0  0  0  0
   35.6939    3.1894   21.7176 H   0  0  0  0  0  0
   35.3507    3.7394   23.3462 H   0  0  0  0  0  0
   35.2533    5.9415   22.6083 H   0  0  0  0  0  0
   35.3962    6.6120   20.3482 H   0  0  0  0  0  0
   35.7011    4.9572   19.8913 H   0  0  0  0  0  0
   37.4813    7.0922   22.7248 H   0  0  0  0  0  0
   37.0100    8.0788   21.3675 H   0  0  0  0  0  0
   39.6253    7.8902   22.3565 H   0  0  0  0  0  0
   40.0895    7.7799   17.3907 H   0  0  0  0  0  0
   36.8864    5.1655   18.1027 H   0  0  0  0  0  0
   39.9355    6.9957   15.0247 H   0  0  0  0  0  0
   39.4781    6.2578   12.6988 H   0  0  0  0  0  0
   36.3477    4.9557   16.2315 H   0  0  0  0  0  0
   35.7292    3.8631   12.7826 H   0  0  0  0  0  0
   32.1808   -0.6046   11.8976 H   0  0  0  0  0  0
   34.0229    3.2249   12.0391 H   0  0  0  0  0  0
   34.5781    0.4243   15.2798 H   0  0  0  0  0  0
  1  6  1  0  0  0
  1 11  1  0  0  0
  1  7  1  0  0  0
  1  2  1  0  0  0
  2  3  1  0  0  0
  2 33  1  0  0  0
  2 34  1  0  0  0
  3  4  1  0  0  0
  3 35  1  0  0  0
  3 36  1  0  0  0
  4  5  1  0  0  0
  4 37  1  0  0  0
  4 38  1  0  0  0
  5  6  1  0  0  0
  5 39  1  0  0  0
  6 40  1  0  0  0
  6 41  1  0  0  0
  7  8  1  0  0  0
  7 42  1  0  0  0
  7 43  1  0  0  0
  8  9  1  0  0  0
  8 44  1  0  0  0
  9 12  1  0  0  0
  9 10  2  0  0  0
 11 15  1  0  0  0
 11 12  2  0  0  0
 12 13  1  0  0  0
 13 14  2  0  0  0
 13 45  1  0  0  0
 14 16  1  0  0  0
 14 15  1  0  0  0
 15 46  1  0  0  0
 16 17  2  0  0  0
 16 21  1  0  0  0
 17 18  1  0  0  0
 17 47  1  0  0  0
 18 19  2  0  0  0
 18 48  1  0  0  0
 19 20  1  0  0  0
 20 21  2  0  0  0
 20 22  1  0  0  0
 21 49  1  0  0  0
 22 23  1  0  0  0
 22 50  1  0  0  0
 23 24  1  0  0  0
 23 25  2  0  0  0
 24 30  2  0  0  0
 24 28  1  0  0  0
 26 29  2  0  0  0
 26 27  1  0  0  0
 26 51  1  0  0  0
 27 28  2  0  0  0
 27 31  1  0  0  0
 28 52  1  0  0  0
 29 30  1  0  0  0
 29 32  1  0  0  0
 30 53  1  0  0  0
M  END
> <s_m_entry_id>
7509

> <s_m_entry_name>
dock_pv.70

> <s_m_Source_Path>
/home/csk/Desktop/cluster/DUD-E-result/mapk2

> <s_m_Source_File>
dock_pv.maegz

> <i_m_Source_File_Index>
70

> <chembl_id>
CHEMBL1933186

> <chembl_pref_name>
None

> <i_lp_mmshare_version>
53161

> <i_f3d_flags>
0

> <r_lp_tautomer_probability>
1

> <s_lp_Force_Field>
OPLS_2005

> <r_lp_Energy>
40.499153

> <b_lp_Chiralities_Consistent>
1

> <s_lp_Variant>
CHEMBL2208_lig813-1

> <s_i_glide_gridfile>
glide-grid_3m2w

> <i_i_glide_lignum>
1037

> <i_i_glide_rotatable_bonds>
4

> <r_i_docking_score>
-7.52892244979708

> <r_i_glide_ligand_efficiency>
-0.235278826556159

> <r_i_glide_ligand_efficiency_sa>
-0.746963712699254

> <r_i_glide_ligand_efficiency_ln>
-1.68593096718436

> <r_i_glide_gscore>
-7.52892244979708

> <r_i_glide_lipo>
-2.41674595172897

> <r_i_glide_hbond>
-0.623350199877245

> <r_i_glide_metal>
0

> <r_i_glide_rewards>
-0.975563016946758

> <r_i_glide_evdw>
-46.6399345397949

> <r_i_glide_ecoul>
-9.6439962387085

> <r_i_glide_erotb>
0.416844515505491

> <r_i_glide_esite>
-0.151511633953579

> <r_i_glide_emodel>
-78.4353521617231

> <r_i_glide_energy>
-56.2839307785034

> <r_i_glide_einternal>
5.37443447113037

> <i_i_glide_confnum>
31

> <i_i_glide_posenum>
349

> <r_i_glide_eff_state_penalty>
0

> <s_user_duplicate_titles>
CHEMBL2208_lig813

> <s_m_subgroup_title>
dock_pv

> <s_m_subgroupid>
dock_pv

> <b_m_subgroup_collapsed>
1

$$$$
CHEMBL2208_lig49
                    3D
 Schrodinger Suite 2021-1.
 31 33  0  0  1  0            999 V2000
   37.0979    4.7147   20.8605 C   0  0  0  0  0  0
   38.1285    5.5260   20.3349 C   0  0  0  0  0  0
   38.1674    5.8446   18.9644 C   0  0  0  0  0  0
   36.1247    4.1910   19.9863 C   0  0  0  0  0  0
   37.1402    5.3612   18.1403 C   0  0  0  0  0  0
   39.3213    6.5833   16.8163 C   0  0  0  0  0  0
   38.2335    6.0249   16.1289 C   0  0  0  0  0  0
   36.1549    4.5178   18.6349 C   0  0  0  0  0  0
   37.0869    5.6405   16.7898 O   0  0  0  0  0  0
   39.2480    6.7302   18.3338 C   0  0  0  0  0  0
   40.4148    7.0280   16.0637 C   0  0  0  0  0  0
   37.0341    4.4249   22.2996 C   0  0  0  0  0  0
   36.9821    4.2006   23.4333 N   0  0  0  0  0  0
   38.2822    5.8099   14.7501 C   0  0  0  0  0  0
   40.4469    6.8686   14.6800 C   0  0  0  0  0  0
   39.3995    6.2279   14.0288 C   0  0  0  0  0  0
   39.1507    6.0253   21.1543 N   0  0  0  0  0  0
   35.0990    3.3389   20.4073 N   0  0  0  0  0  0
   41.4783    7.6250   16.6801 O   0  0  0  0  0  0
   39.4780    6.0250   12.6786 O   0  0  0  0  0  0
   35.4028    4.1368   17.9588 H   0  0  0  0  0  0
   39.0660    7.7741   18.5913 H   0  0  0  0  0  0
   40.2224    6.4679   18.7491 H   0  0  0  0  0  0
   37.4535    5.3369   14.2448 H   0  0  0  0  0  0
   41.2904    7.2256   14.1094 H   0  0  0  0  0  0
   39.9957    6.3231   20.6935 H   0  0  0  0  0  0
   39.2410    5.6375   22.0869 H   0  0  0  0  0  0
   34.5723    2.8495   19.6995 H   0  0  0  0  0  0
   35.2024    2.9051   21.3147 H   0  0  0  0  0  0
   42.0438    8.0850   16.0546 H   0  0  0  0  0  0
   40.2970    6.3691   12.2974 H   0  0  0  0  0  0
  1  2  2  0  0  0
  1  4  1  0  0  0
  1 12  1  0  0  0
  2  3  1  0  0  0
  2 17  1  0  0  0
  3 10  1  0  0  0
  3  5  2  0  0  0
  4  8  2  0  0  0
  4 18  1  0  0  0
  5  8  1  0  0  0
  5  9  1  0  0  0
  6 10  1  0  0  0
  6 11  2  0  0  0
  6  7  1  0  0  0
  7  9  1  0  0  0
  7 14  2  0  0  0
  8 21  1  0  0  0
 10 22  1  0  0  0
 10 23  1  0  0  0
 11 15  1  0  0  0
 11 19  1  0  0  0
 12 13  3  0  0  0
 14 16  1  0  0  0
 14 24  1  0  0  0
 15 16  2  0  0  0
 15 25  1  0  0  0
 16 20  1  0  0  0
 17 26  1  0  0  0
 17 27  1  0  0  0
 18 28  1  0  0  0
 18 29  1  0  0  0
 19 30  1  0  0  0
 20 31  1  0  0  0
M  END
> <s_m_entry_id>
7510

> <s_m_entry_name>
dock_pv.71

> <s_m_Source_Path>
/home/csk/Desktop/cluster/DUD-E-result/mapk2

> <s_m_Source_File>
dock_pv.maegz

> <i_m_Source_File_Index>
71

> <chembl_id>
CHEMBL3706777

> <chembl_pref_name>
None

> <i_lp_mmshare_version>
53161

> <i_f3d_flags>
0

> <r_lp_tautomer_probability>
0.999999964870001

> <s_lp_Force_Field>
OPLS_2005

> <r_lp_Energy>
30.323151

> <b_lp_Chiralities_Consistent>
1

> <s_lp_Variant>
CHEMBL2208_lig49-1

> <s_i_glide_gridfile>
glide-grid_3m2w

> <i_i_glide_lignum>
55

> <i_i_glide_rotatable_bonds>
2

> <r_i_docking_score>
-7.52706974746106

> <r_i_glide_ligand_efficiency>
-0.376353487373053

> <r_i_glide_ligand_efficiency_sa>
-1.02158053517222

> <r_i_glide_ligand_efficiency_ln>
-1.88377729841397

> <r_i_glide_gscore>
-7.52706974746106

> <r_i_glide_lipo>
-2.19624469468263

> <r_i_glide_hbond>
-0.587055523231493

> <r_i_glide_metal>
0

> <r_i_glide_rewards>
-1.69350398102988

> <r_i_glide_evdw>
-32.5392951965332

> <r_i_glide_ecoul>
-8.83052444458008

> <r_i_glide_erotb>
0

> <r_i_glide_esite>
-0.0987221220033909

> <r_i_glide_emodel>
-60.712454518793

> <r_i_glide_energy>
-41.3698196411133

> <r_i_glide_einternal>
0.822574257850647

> <i_i_glide_confnum>
1

> <i_i_glide_posenum>
273

> <r_i_glide_eff_state_penalty>
0

> <s_user_duplicate_titles>
CHEMBL2208_lig49

> <s_m_subgroup_title>
dock_pv

> <s_m_subgroupid>
dock_pv

> <b_m_subgroup_collapsed>
1

$$$$
CHEMBL2208_lig1470
                    3D
 Schrodinger Suite 2021-1.
 43 47  0  0  1  0            999 V2000
   40.6780    7.2256   14.8065 S   0  0  0  0  0  0
   39.4777    6.1769   19.9899 F   0  0  0  0  0  0
   35.4007    3.7219   19.8091 F   0  0  0  0  0  0
   36.2690    4.9674   14.9990 O   0  0  0  0  0  0
   38.0703    5.4734   12.7343 O   0  0  0  0  0  0
   39.2688    6.7857   17.1791 N   0  0  0  0  0  0
   39.9738    6.4250   13.4717 N   0  0  0  0  0  0
   37.5401    4.7434   21.3034 N   0  0  0  0  0  0
   38.2998    6.0250   17.8951 C   0  0  0  0  0  0
   39.3556    6.6269   15.8016 C   0  0  0  0  0  0
   37.2465    5.4249   17.1517 C   0  0  0  0  0  0
   38.4145    6.0223   15.0534 C   0  0  0  0  0  0
   37.1953    5.4600   15.6409 C   0  0  0  0  0  0
   40.2277    7.6942   17.8200 C   0  0  0  0  0  0
   38.4109    5.7443   19.2730 C   0  0  0  0  0  0
   38.7492    5.9319   13.6502 C   0  0  0  0  0  0
   37.4337    4.9819   19.9252 C   0  0  0  0  0  0
   36.2780    4.6760   17.8332 C   0  0  0  0  0  0
   36.3591    4.4613   19.2018 C   0  0  0  0  0  0
   40.1352    9.1706   17.4720 C   0  0  0  0  0  0
   39.7287    8.7080   18.8368 C   0  0  0  0  0  0
   36.6436    5.5170   22.1557 C   0  0  0  0  0  0
   37.0780    6.9726   22.2458 C   0  0  0  0  0  0
   36.6780    7.8934   21.2720 C   0  0  0  0  0  0
   37.8780    7.3853   23.3089 C   0  0  0  0  0  0
   37.0680    9.2250   21.3792 C   0  0  0  0  0  0
   38.2780    8.7146   23.3972 C   0  0  0  0  0  0
   37.8780    9.6250   22.4297 C   0  0  0  0  0  0
   40.4412    6.4423   12.5722 H   0  0  0  0  0  0
   37.6842    3.7786   21.5752 H   0  0  0  0  0  0
   41.2167    7.2618   17.9601 H   0  0  0  0  0  0
   35.4780    4.1940   17.2923 H   0  0  0  0  0  0
   41.0780    9.6972   17.3361 H   0  0  0  0  0  0
   39.3676    9.5039   16.7716 H   0  0  0  0  0  0
   38.6780    8.7036   19.1103 H   0  0  0  0  0  0
   40.3680    8.9003   19.6971 H   0  0  0  0  0  0
   36.6164    5.0669   23.1491 H   0  0  0  0  0  0
   35.6195    5.4697   21.7821 H   0  0  0  0  0  0
   36.0476    7.5828   20.4521 H   0  0  0  0  0  0
   38.2061    6.6803   24.0597 H   0  0  0  0  0  0
   36.7327    9.9613   20.6720 H   0  0  0  0  0  0
   38.8942    9.0418   24.2222 H   0  0  0  0  0  0
   38.1623   10.6599   22.5370 H   0  0  0  0  0  0
  1  7  1  0  0  0
  1 10  1  0  0  0
  2 15  1  0  0  0
  3 19  1  0  0  0
  4 13  2  0  0  0
  5 16  2  0  0  0
  6  9  1  0  0  0
  6 10  1  0  0  0
  6 14  1  0  0  0
  7 16  1  0  0  0
  7 29  1  0  0  0
  8 17  1  0  0  0
  8 22  1  0  0  0
  8 30  1  0  0  0
  9 11  2  0  0  0
  9 15  1  0  0  0
 10 12  2  0  0  0
 11 13  1  0  0  0
 11 18  1  0  0  0
 12 13  1  0  0  0
 12 16  1  0  0  0
 14 20  1  0  0  0
 14 21  1  0  0  0
 14 31  1  0  0  0
 15 17  2  0  0  0
 17 19  1  0  0  0
 18 19  2  0  0  0
 18 32  1  0  0  0
 20 21  1  0  0  0
 20 33  1  0  0  0
 20 34  1  0  0  0
 21 35  1  0  0  0
 21 36  1  0  0  0
 22 23  1  0  0  0
 22 37  1  0  0  0
 22 38  1  0  0  0
 23 24  2  0  0  0
 23 25  1  0  0  0
 24 26  1  0  0  0
 24 39  1  0  0  0
 25 27  2  0  0  0
 25 40  1  0  0  0
 26 28  2  0  0  0
 26 41  1  0  0  0
 27 28  1  0  0  0
 27 42  1  0  0  0
 28 43  1  0  0  0
M  END
> <s_m_entry_id>
7512

> <s_m_entry_name>
dock_pv.73

> <s_m_Source_Path>
/home/csk/Desktop/cluster/DUD-E-result/mapk2

> <s_m_Source_File>
dock_pv.maegz

> <i_m_Source_File_Index>
73

> <chembl_id>
CHEMBL1991640

> <chembl_pref_name>
None

> <i_lp_mmshare_version>
53161

> <i_f3d_flags>
0

> <r_lp_tautomer_probability>
1

> <s_lp_Force_Field>
OPLS_2005

> <r_lp_Energy>
37.819951

> <b_lp_Chiralities_Consistent>
1

> <s_lp_Variant>
CHEMBL2208_lig1470-1

> <s_i_glide_gridfile>
glide-grid_3m2w

> <i_i_glide_lignum>
2042

> <i_i_glide_rotatable_bonds>
4

> <r_i_docking_score>
-7.51044731864404

> <r_i_glide_ligand_efficiency>
-0.268230261380144

> <r_i_glide_ligand_efficiency_sa>
-0.814505052725573

> <r_i_glide_ligand_efficiency_ln>
-1.73363175745835

> <r_i_glide_gscore>
-7.51044731864404

> <r_i_glide_lipo>
-2.845232484401

> <r_i_glide_hbond>
-0.627231274584332

> <r_i_glide_metal>
0

> <r_i_glide_rewards>
-1.75991858452016

> <r_i_glide_evdw>
-40.4673309326172

> <r_i_glide_ecoul>
-3.48746275901794

> <r_i_glide_erotb>
0.343905041395698

> <r_i_glide_esite>
-0.0754840560506927

> <r_i_glide_emodel>
-64.3137669051109

> <r_i_glide_energy>
-43.9547936916351

> <r_i_glide_einternal>
1.45701885223389

> <i_i_glide_confnum>
3

> <i_i_glide_posenum>
107

> <r_i_glide_eff_state_penalty>
0

> <s_user_duplicate_titles>
CHEMBL2208_lig1470

> <s_m_subgroup_title>
dock_pv

> <s_m_subgroupid>
dock_pv

> <b_m_subgroup_collapsed>
1

$$$$
CHEMBL2208_lig1532
                    3D
 Schrodinger Suite 2021-1.
 26 28  0  0  1  0            999 V2000
   38.6898    7.1344   21.4698 Cl  0  0  0  0  0  0
   40.6285    7.5415   15.9579 O   0  0  0  0  0  0
   38.6780    5.6250   12.6720 O   0  0  0  0  0  0
   35.4780    3.9171   15.0720 O   0  0  0  0  0  0
   37.1414    4.8534   14.0224 N   0  0  0  0  0  0
   40.6780    7.2250   13.7665 N   0  0  0  0  0  0
   35.8780    4.4398   18.5398 N   0  0  0  0  0  0
   38.2962    6.0251   16.2861 C   0  0  0  0  0  0
   38.8551    6.1915   15.0314 C   0  0  0  0  0  0
   38.9603    6.6685   17.4765 C   0  0  0  0  0  0
   37.0623    5.2052   16.3750 C   0  0  0  0  0  0
   40.1251    7.4093   17.2245 C   0  0  0  0  0  0
   40.0685    6.9841   14.8399 C   0  0  0  0  0  0
   38.2582    5.5704   13.8261 C   0  0  0  0  0  0
   36.5819    4.6863   15.2271 C   0  0  0  0  0  0
   38.5321    6.6016   18.8165 C   0  0  0  0  0  0
   40.8392    8.0490   18.2329 C   0  0  0  0  0  0
   39.2425    7.2352   19.8385 C   0  0  0  0  0  0
   36.4155    4.8230   17.5886 C   0  0  0  0  0  0
   40.3975    7.9532   19.5465 C   0  0  0  0  0  0
   34.8444    4.1391   15.7698 H   0  0  0  0  0  0
   36.7759    4.3733   13.2158 H   0  0  0  0  0  0
   40.2288    6.7821   12.9696 H   0  0  0  0  0  0
   37.6519    6.0772   19.1283 H   0  0  0  0  0  0
   41.7329    8.6054   17.9914 H   0  0  0  0  0  0
   40.9516    8.4250   20.3398 H   0  0  0  0  0  0
  1 18  1  0  0  0
  2 12  1  0  0  0
  2 13  1  0  0  0
  3 14  2  0  0  0
  4 15  1  0  0  0
  4 21  1  0  0  0
  5 14  1  0  0  0
  5 15  1  0  0  0
  5 22  1  0  0  0
  6 13  2  0  0  0
  6 23  1  0  0  0
  7 19  3  0  0  0
  8  9  2  0  0  0
  8 10  1  0  0  0
  8 11  1  0  0  0
  9 13  1  0  0  0
  9 14  1  0  0  0
 10 12  1  0  0  0
 10 16  2  0  0  0
 11 15  2  0  0  0
 11 19  1  0  0  0
 12 17  2  0  0  0
 16 18  1  0  0  0
 16 24  1  0  0  0
 17 20  1  0  0  0
 17 25  1  0  0  0
 18 20  2  0  0  0
 20 26  1  0  0  0
M  END
> <s_m_entry_id>
7513

> <s_m_entry_name>
dock_pv.74

> <s_m_Source_Path>
/home/csk/Desktop/cluster/DUD-E-result/mapk2

> <s_m_Source_File>
dock_pv.maegz

> <i_m_Source_File_Index>
74

> <chembl_id>
CHEMBL1973711

> <chembl_pref_name>
None

> <i_lp_mmshare_version>
53161

> <i_f3d_flags>
0

> <r_lp_tautomer_probability>
1

> <s_lp_Force_Field>
OPLS_2005

> <r_lp_Energy>
41.546453

> <b_lp_Chiralities_Consistent>
1

> <s_lp_Variant>
CHEMBL2208_lig1532-1

> <s_i_glide_gridfile>
glide-grid_3m2w

> <i_i_glide_lignum>
2138

> <i_i_glide_rotatable_bonds>
1

> <r_i_docking_score>
-7.49984954695064

> <r_i_glide_ligand_efficiency>
-0.374992477347532

> <r_i_glide_ligand_efficiency_sa>
-1.01788618558627

> <r_i_glide_ligand_efficiency_ln>
-1.87696498000852

> <r_i_glide_gscore>
-7.49984954695064

> <r_i_glide_lipo>
-1.97867321546009

> <r_i_glide_hbond>
-0.604803454732612

> <r_i_glide_metal>
0

> <r_i_glide_rewards>
-2.0511923420361

> <r_i_glide_evdw>
-34.0963706970215

> <r_i_glide_ecoul>
-7.60984420776367

> <r_i_glide_erotb>
0

> <r_i_glide_esite>
-0.0188853687062137

> <r_i_glide_emodel>
-58.913279617414

> <r_i_glide_energy>
-41.7062149047852

> <r_i_glide_einternal>
1.62526142597198

> <i_i_glide_confnum>
1

> <i_i_glide_posenum>
1

> <r_i_glide_eff_state_penalty>
0

> <s_user_duplicate_titles>
CHEMBL2208_lig1532

> <s_m_subgroup_title>
dock_pv

> <s_m_subgroupid>
dock_pv

> <b_m_subgroup_collapsed>
1

$$$$
CHEMBL2208_lig327
                    3D
 Schrodinger Suite 2021-1.
 29 32  0  0  1  0            999 V2000
   37.7149    4.9994   13.5287 C   0  0  0  0  0  0
   38.8246    5.6253   13.0721 N   0  0  0  0  0  0
   39.5544    6.3375   13.9589 C   0  0  0  0  0  0
   39.3062    6.4976   15.2780 N   0  0  0  0  0  0
   37.4066    5.0720   14.8846 C   0  0  0  0  0  0
   38.2340    5.8479   15.7527 C   0  0  0  0  0  0
   37.6819    5.7619   17.0861 C   0  0  0  0  0  0
   36.5973    4.9050   16.9556 C   0  0  0  0  0  0
   36.4160    4.5169   15.6534 N   0  0  0  0  0  0
   40.6780    6.9770   13.4720 N   0  0  0  0  0  0
   38.1340    6.4253   18.3530 C   0  0  0  0  0  0
   39.3251    7.1599   18.4065 C   0  0  0  0  0  0
   39.7122    7.8586   19.5472 C   0  0  0  0  0  0
   37.3109    6.3553   19.4867 C   0  0  0  0  0  0
   37.6803    7.0398   20.6504 C   0  0  0  0  0  0
   38.8816    7.8087   20.6728 C   0  0  0  0  0  0
   39.0781    8.4274   21.8715 N   0  0  0  0  0  0
   38.0416    8.0041   22.6091 N   0  0  0  0  0  0
   37.1473    7.1947   21.9554 C   0  0  0  0  0  0
   37.1283    4.4248   12.8260 H   0  0  0  0  0  0
   35.8897    4.5528   17.6925 H   0  0  0  0  0  0
   35.6510    3.9229   15.3628 H   0  0  0  0  0  0
   41.2380    7.5095   14.1175 H   0  0  0  0  0  0
   40.9625    6.8251   12.5039 H   0  0  0  0  0  0
   39.9781    7.2158   17.5513 H   0  0  0  0  0  0
   40.6333    8.4207   19.5575 H   0  0  0  0  0  0
   36.3914    5.7918   19.4760 H   0  0  0  0  0  0
   37.9644    8.2607   23.5831 H   0  0  0  0  0  0
   36.2780    6.8103   22.4692 H   0  0  0  0  0  0
  1  2  2  0  0  0
  1  5  1  0  0  0
  1 20  1  0  0  0
  2  3  1  0  0  0
  3 10  1  0  0  0
  3  4  2  0  0  0
  4  6  1  0  0  0
  5  9  1  0  0  0
  5  6  2  0  0  0
  6  7  1  0  0  0
  7  8  2  0  0  0
  7 11  1  0  0  0
  8  9  1  0  0  0
  8 21  1  0  0  0
  9 22  1  0  0  0
 10 23  1  0  0  0
 10 24  1  0  0  0
 11 12  1  0  0  0
 11 14  2  0  0  0
 12 13  2  0  0  0
 12 25  1  0  0  0
 13 16  1  0  0  0
 13 26  1  0  0  0
 14 27  1  0  0  0
 14 15  1  0  0  0
 15 16  1  0  0  0
 15 19  2  0  0  0
 16 17  2  0  0  0
 17 18  1  0  0  0
 18 28  1  0  0  0
 18 19  1  0  0  0
 19 29  1  0  0  0
M  END
> <s_m_entry_id>
7515

> <s_m_entry_name>
dock_pv.76

> <s_m_Source_Path>
/home/csk/Desktop/cluster/DUD-E-result/mapk2

> <s_m_Source_File>
dock_pv.maegz

> <i_m_Source_File_Index>
76

> <chembl_id>
CHEMBL591071

> <chembl_pref_name>
None

> <i_lp_mmshare_version>
53161

> <i_f3d_flags>
0

> <r_lp_tautomer_probability>
0.0196078431372549

> <s_lp_Force_Field>
OPLS_2005

> <r_lp_Energy>
22.355528

> <b_lp_Chiralities_Consistent>
1

> <s_lp_Variant>
CHEMBL2208_lig327-2

> <s_i_glide_gridfile>
glide-grid_3m2w

> <i_i_glide_lignum>
480

> <i_i_glide_rotatable_bonds>
1

> <r_i_docking_score>
-7.4952579349609

> <r_i_glide_ligand_efficiency>
-0.394487259734784

> <r_i_glide_ligand_efficiency_sa>
-1.05265045324295

> <r_i_glide_ligand_efficiency_ln>
-1.90020886989227

> <r_i_glide_gscore>
-7.4952579349609

> <r_i_glide_lipo>
-1.14788651515725

> <r_i_glide_hbond>
-0.608

> <r_i_glide_metal>
0

> <r_i_glide_rewards>
-3.0564399256675

> <r_i_glide_evdw>
-29.6944618225098

> <r_i_glide_ecoul>
-8.86693382263184

> <r_i_glide_erotb>
0.195652773511984

> <r_i_glide_esite>
-0.0638211031278671

> <r_i_glide_emodel>
-55.0771811901844

> <r_i_glide_energy>
-38.5613956451416

> <r_i_glide_einternal>
1.0475789308548

> <i_i_glide_confnum>
2

> <i_i_glide_posenum>
281

> <r_i_glide_eff_state_penalty>
0

> <s_user_duplicate_titles>
CHEMBL2208_lig327,CHEMBL2208_lig327

> <s_m_subgroup_title>
dock_pv

> <s_m_subgroupid>
dock_pv

> <b_m_subgroup_collapsed>
1

$$$$
CHEMBL2208_lig356
                    3D
 Schrodinger Suite 2021-1.
 49 51  0  0  1  0            999 V2000
   36.2779    3.9374   15.3244 C   0  0  0  0  0  0
   35.3263    2.8512   14.8755 C   0  0  0  0  0  0
   34.9362    1.8480   15.7763 C   0  0  0  0  0  0
   34.0429    0.8496   15.3902 C   0  0  0  0  0  0
   33.5102    0.8506   14.1032 C   0  0  0  0  0  0
   33.8789    1.8424   13.1989 C   0  0  0  0  0  0
   34.7943    2.8250   13.5760 C   0  0  0  0  0  0
   36.2828    4.2822   16.5057 O   0  0  0  0  0  0
   37.0987    4.4249   14.3699 N   0  0  0  0  0  0
   33.3646    1.8450   11.9486 F   0  0  0  0  0  0
   33.6926   -0.1218   16.2628 F   0  0  0  0  0  0
   38.8284    5.7000   13.4808 N   0  0  0  0  0  0
   39.7098    6.6057   13.9317 N   0  0  0  0  0  0
   39.5331    6.8739   15.2602 C   0  0  0  0  0  0
   38.5255    6.0775   15.6731 C   0  0  0  0  0  0
   38.0888    5.3760   14.5269 C   0  0  0  0  0  0
   39.3568    7.2515   17.5444 N   0  0  0  0  0  0
   40.1241    7.7245   16.3500 C   0  0  0  0  0  0
   38.3186    6.2789   17.1474 C   0  0  0  0  0  0
   39.8461    9.2147   16.0522 C   0  0  0  0  0  0
   41.6381    7.4215   16.4357 C   0  0  0  0  0  0
   39.6031    7.6644   18.8295 C   0  0  0  0  0  0
   38.8419    7.1062   20.0956 C   0  0  0  0  0  0
   40.5419    8.4393   19.0463 O   0  0  0  0  0  0
   37.3311    6.7822   19.9309 C   0  0  0  0  0  0
   38.9289    8.1482   21.2527 C   0  0  0  0  0  0
   39.5882    5.8372   20.5652 C   0  0  0  0  0  0
   35.3235    1.8343   16.7861 H   0  0  0  0  0  0
   32.8104    0.0852   13.8073 H   0  0  0  0  0  0
   35.0766    3.5726   12.8487 H   0  0  0  0  0  0
   37.0723    3.9604   13.4731 H   0  0  0  0  0  0
   40.4120    7.0248   13.3362 H   0  0  0  0  0  0
   38.4357    5.3449   17.6984 H   0  0  0  0  0  0
   37.3222    6.6766   17.3371 H   0  0  0  0  0  0
   40.2680    9.5121   15.0911 H   0  0  0  0  0  0
   38.7764    9.4230   16.0142 H   0  0  0  0  0  0
   40.2793    9.8631   16.8130 H   0  0  0  0  0  0
   42.1274    7.6250   15.4844 H   0  0  0  0  0  0
   42.1480    8.0263   17.1839 H   0  0  0  0  0  0
   41.8208    6.3747   16.6716 H   0  0  0  0  0  0
   36.8600    6.6177   20.9007 H   0  0  0  0  0  0
   37.1383    5.8652   19.3767 H   0  0  0  0  0  0
   36.7830    7.6028   19.4721 H   0  0  0  0  0  0
   39.9557    8.4251   21.4958 H   0  0  0  0  0  0
   38.3903    9.0657   21.0070 H   0  0  0  0  0  0
   38.4974    7.7608   22.1775 H   0  0  0  0  0  0
   40.6580    6.0244   20.6720 H   0  0  0  0  0  0
   39.2288    5.4848   21.5338 H   0  0  0  0  0  0
   39.4754    5.0110   19.8602 H   0  0  0  0  0  0
  1  8  2  0  0  0
  1  9  1  0  0  0
  1  2  1  0  0  0
  2  7  2  0  0  0
  2  3  1  0  0  0
  3  4  2  0  0  0
  3 28  1  0  0  0
  4  5  1  0  0  0
  4 11  1  0  0  0
  5  6  2  0  0  0
  5 29  1  0  0  0
  6  7  1  0  0  0
  6 10  1  0  0  0
  7 30  1  0  0  0
  9 16  1  0  0  0
  9 31  1  0  0  0
 12 13  1  0  0  0
 12 16  2  0  0  0
 13 14  1  0  0  0
 13 32  1  0  0  0
 14 15  2  0  0  0
 14 18  1  0  0  0
 15 16  1  0  0  0
 15 19  1  0  0  0
 17 18  1  0  0  0
 17 19  1  0  0  0
 17 22  1  0  0  0
 18 20  1  0  0  0
 18 21  1  0  0  0
 19 33  1  0  0  0
 19 34  1  0  0  0
 20 35  1  0  0  0
 20 36  1  0  0  0
 20 37  1  0  0  0
 21 38  1  0  0  0
 21 39  1  0  0  0
 21 40  1  0  0  0
 22 23  1  0  0  0
 22 24  2  0  0  0
 23 25  1  0  0  0
 23 26  1  0  0  0
 23 27  1  0  0  0
 25 41  1  0  0  0
 25 42  1  0  0  0
 25 43  1  0  0  0
 26 44  1  0  0  0
 26 45  1  0  0  0
 26 46  1  0  0  0
 27 47  1  0  0  0
 27 48  1  0  0  0
 27 49  1  0  0  0
M  END
> <s_m_entry_id>
7516

> <s_m_entry_name>
dock_pv.77

> <s_m_Source_Path>
/home/csk/Desktop/cluster/DUD-E-result/mapk2

> <s_m_Source_File>
dock_pv.maegz

> <i_m_Source_File_Index>
77

> <chembl_id>
CHEMBL604712

> <chembl_pref_name>
None

> <i_lp_mmshare_version>
53161

> <i_f3d_flags>
0

> <r_lp_tautomer_probability>
0.5

> <s_lp_Force_Field>
OPLS_2005

> <r_lp_Energy>
58.274367

> <b_lp_Chiralities_Consistent>
1

> <s_lp_Variant>
CHEMBL2208_lig356-1

> <s_i_glide_gridfile>
glide-grid_3m2w

> <i_i_glide_lignum>
522

> <i_i_glide_rotatable_bonds>
5

> <r_i_docking_score>
-7.4918716388968

> <r_i_glide_ligand_efficiency>
-0.277476727366548

> <r_i_glide_ligand_efficiency_sa>
-0.832430181185126

> <r_i_glide_ligand_efficiency_ln>
-1.74398420437813

> <r_i_glide_gscore>
-7.4918716388968

> <r_i_glide_lipo>
-2.29248397866505

> <r_i_glide_hbond>
-0.223487005853391

> <r_i_glide_metal>
0

> <r_i_glide_rewards>
-2.56471260418309

> <r_i_glide_evdw>
-42.2245635986328

> <r_i_glide_ecoul>
-4.45715141296387

> <r_i_glide_erotb>
0.382562107163999

> <r_i_glide_esite>
-0.0139492654830483

> <r_i_glide_emodel>
-64.5293878627022

> <r_i_glide_energy>
-46.6817150115967

> <r_i_glide_einternal>
5.00259637832642

> <i_i_glide_confnum>
5

> <i_i_glide_posenum>
196

> <r_i_glide_eff_state_penalty>
0

> <s_user_duplicate_titles>
CHEMBL2208_lig356

> <s_m_subgroup_title>
dock_pv

> <s_m_subgroupid>
dock_pv

> <b_m_subgroup_collapsed>
1

$$$$
CHEMBL2208_lig1481
                    3D
 Schrodinger Suite 2021-1.
 49 52  0  0  1  0            999 V2000
   37.8568    5.1203   22.0774 O   0  0  0  0  0  0
   39.8322    6.2775   13.5914 N   0  0  0  0  0  0
   38.7036    5.6251   13.2586 N   0  0  0  0  0  0
   39.1718    8.4245   21.0703 N   0  0  0  0  0  0
   38.6768    5.2210   24.9166 N   0  0  0  0  0  0
   38.6884    6.0104   15.4809 C   0  0  0  0  0  0
   39.8792    6.5547   14.9430 C   0  0  0  0  0  0
   39.3751    6.7789   17.6760 C   0  0  0  0  0  0
   38.4433    6.1218   16.8609 C   0  0  0  0  0  0
   38.0091    5.4450   14.3553 C   0  0  0  0  0  0
   39.1217    6.9554   19.1353 C   0  0  0  0  0  0
   40.8210    7.2120   15.7361 C   0  0  0  0  0  0
   40.5389    7.3049   17.0990 C   0  0  0  0  0  0
   38.6139    5.9287   19.9504 C   0  0  0  0  0  0
   38.3626    6.1520   21.3116 C   0  0  0  0  0  0
   39.3754    8.1852   19.7537 C   0  0  0  0  0  0
   38.6791    7.4163   21.8272 C   0  0  0  0  0  0
   36.6840    4.7152   14.3246 C   0  0  0  0  0  0
   36.9577    5.4326   23.1510 C   0  0  0  0  0  0
   37.3686    4.7437   24.4749 C   0  0  2  0  0  0
   35.1295    4.1120   25.6459 C   0  0  0  0  0  0
   36.3681    5.0052   25.6344 C   0  0  0  0  0  0
   35.0566    3.0390   26.5407 C   0  0  0  0  0  0
   34.0471    4.3857   24.8071 C   0  0  0  0  0  0
   33.9150    2.2442   26.5952 C   0  0  0  0  0  0
   32.9062    3.5882   24.8537 C   0  0  0  0  0  0
   32.8437    2.5221   25.7490 C   0  0  0  0  0  0
   40.5155    6.5108   12.8807 H   0  0  0  0  0  0
   39.3869    4.9649   24.2280 H   0  0  0  0  0  0
   38.7226    6.2303   24.9639 H   0  0  0  0  0  0
   37.5350    5.7159   17.2827 H   0  0  0  0  0  0
   41.7252    7.6344   15.3240 H   0  0  0  0  0  0
   41.2585    7.8072   17.7292 H   0  0  0  0  0  0
   38.4070    4.9544   19.5331 H   0  0  0  0  0  0
   39.7433    9.0214   19.1786 H   0  0  0  0  0  0
   38.5823    7.6378   22.8794 H   0  0  0  0  0  0
   35.8791    5.3269   14.7324 H   0  0  0  0  0  0
   36.3837    4.4193   13.3191 H   0  0  0  0  0  0
   36.7218    3.8031   14.9205 H   0  0  0  0  0  0
   35.9891    5.0474   22.8350 H   0  0  0  0  0  0
   36.7943    6.4991   23.3110 H   0  0  0  0  0  0
   37.4559    3.6708   24.2818 H   0  0  0  0  0  0
   36.0525    6.0501   25.6355 H   0  0  0  0  0  0
   36.8652    4.8719   26.5983 H   0  0  0  0  0  0
   35.8784    2.8233   27.2074 H   0  0  0  0  0  0
   34.0776    5.2216   24.1268 H   0  0  0  0  0  0
   33.8566    1.4271   27.3005 H   0  0  0  0  0  0
   32.0689    3.8023   24.2061 H   0  0  0  0  0  0
   31.9510    1.9154   25.7944 H   0  0  0  0  0  0
  1 15  1  0  0  0
  1 19  1  0  0  0
  2  3  1  0  0  0
  2  7  1  0  0  0
  2 28  1  0  0  0
  3 10  2  0  0  0
  4 16  1  0  0  0
  4 17  2  0  0  0
  5 20  1  0  0  0
  5 29  1  0  0  0
  5 30  1  0  0  0
  6  7  1  0  0  0
  6  9  2  0  0  0
  6 10  1  0  0  0
  7 12  2  0  0  0
  8  9  1  0  0  0
  8 11  1  0  0  0
  8 13  2  0  0  0
  9 31  1  0  0  0
 10 18  1  0  0  0
 11 14  1  0  0  0
 11 16  2  0  0  0
 12 13  1  0  0  0
 12 32  1  0  0  0
 13 33  1  0  0  0
 14 15  2  0  0  0
 14 34  1  0  0  0
 15 17  1  0  0  0
 16 35  1  0  0  0
 17 36  1  0  0  0
 18 37  1  0  0  0
 18 38  1  0  0  0
 18 39  1  0  0  0
 19 20  1  0  0  0
 19 40  1  0  0  0
 19 41  1  0  0  0
 20 22  1  0  0  0
 20 42  1  0  0  0
 21 22  1  0  0  0
 21 23  2  0  0  0
 21 24  1  0  0  0
 22 43  1  0  0  0
 22 44  1  0  0  0
 23 25  1  0  0  0
 23 45  1  0  0  0
 24 26  2  0  0  0
 24 46  1  0  0  0
 25 27  2  0  0  0
 25 47  1  0  0  0
 26 27  1  0  0  0
 26 48  1  0  0  0
 27 49  1  0  0  0
M  END
> <s_m_entry_id>
7517

> <s_m_entry_name>
dock_pv.78

> <s_m_Source_Path>
/home/csk/Desktop/cluster/DUD-E-result/mapk2

> <s_m_Source_File>
dock_pv.maegz

> <i_m_Source_File_Index>
78

> <chembl_id>
CHEMBL2002726

> <chembl_pref_name>
None

> <i_lp_mmshare_version>
53161

> <i_f3d_flags>
0

> <r_lp_tautomer_probability>
0.980392156862745

> <s_lp_Force_Field>
OPLS_2005

> <r_lp_Energy>
23.887771

> <b_lp_Chiralities_Consistent>
1

> <s_lp_Variant>
CHEMBL2208_lig1481-1

> <s_i_glide_gridfile>
glide-grid_3m2w

> <i_i_glide_lignum>
2061

> <i_i_glide_rotatable_bonds>
6

> <r_i_docking_score>
-7.48726568491531

> <r_i_glide_ligand_efficiency>
-0.277306136478345

> <r_i_glide_ligand_efficiency_sa>
-0.831918408521078

> <r_i_glide_ligand_efficiency_ln>
-1.74291201422632

> <r_i_glide_gscore>
-7.48726568491531

> <r_i_glide_lipo>
-2.54019673922251

> <r_i_glide_hbond>
-0.67600300345172

> <r_i_glide_metal>
0

> <r_i_glide_rewards>
-1.57540314370718

> <r_i_glide_evdw>
-41.3630638122559

> <r_i_glide_ecoul>
-7.66237735748291

> <r_i_glide_erotb>
0.521846995701338

> <r_i_glide_esite>
0

> <r_i_glide_emodel>
-66.5299358966994

> <r_i_glide_energy>
-49.0254411697388

> <r_i_glide_einternal>
8.32700252532959

> <i_i_glide_confnum>
64

> <i_i_glide_posenum>
231

> <r_i_glide_eff_state_penalty>
0

> <s_user_duplicate_titles>
CHEMBL2208_lig1481,CHEMBL2208_lig850

> <s_m_subgroup_title>
dock_pv

> <s_m_subgroupid>
dock_pv

> <b_m_subgroup_collapsed>
1

$$$$
CHEMBL2208_lig308
                    3D
 Schrodinger Suite 2021-1.
 29 31  0  0  1  0            999 V2000
   38.4895    5.6621   14.2088 C   0  0  0  0  0  0
   39.5781    6.4250   13.8180 C   0  0  0  0  0  0
   40.2779    7.2038   14.7316 C   0  0  0  0  0  0
   38.0774    5.6251   15.5367 C   0  0  0  0  0  0
   40.6213    8.0209   17.4044 S   0  0  0  0  0  0
   38.7906    6.3546   16.5123 C   0  0  0  0  0  0
   39.8851    7.1552   16.0756 C   0  0  0  0  0  0
   39.5388    7.2622   18.5719 C   0  0  0  0  0  0
   38.6123    6.4249   17.9358 C   0  0  0  0  0  0
   37.6160    5.7005   18.5435 N   0  0  0  0  0  0
   39.7837    7.6307   19.9706 C   0  0  0  0  0  0
   37.8027    5.1317   19.8641 C   0  0  0  0  0  0
   39.0289    7.0841   20.9422 N   0  0  0  0  0  0
   37.8705    6.1935   20.9726 C   0  0  2  0  0  0
   37.8234    4.9347   13.2657 O   0  0  0  0  0  0
   40.6779    8.4249   20.2676 O   0  0  0  0  0  0
   37.7928    5.5244   22.3534 C   0  0  0  0  0  0
   39.8778    6.4250   12.7793 H   0  0  0  0  0  0
   41.1044    7.8196   14.4092 H   0  0  0  0  0  0
   37.2309    5.0197   15.8204 H   0  0  0  0  0  0
   37.1405    5.0613   17.9218 H   0  0  0  0  0  0
   38.7033    4.5149   19.8745 H   0  0  0  0  0  0
   36.9662    4.4571   20.0489 H   0  0  0  0  0  0
   39.3342    7.3922   21.8545 H   0  0  0  0  0  0
   36.9899    6.8322   20.8820 H   0  0  0  0  0  0
   37.2367    4.2759   13.6454 H   0  0  0  0  0  0
   36.9377    4.8490   22.4136 H   0  0  0  0  0  0
   38.6779    4.9201   22.5569 H   0  0  0  0  0  0
   37.6724    6.2566   23.1524 H   0  0  0  0  0  0
  1  2  2  0  0  0
  1  4  1  0  0  0
  1 15  1  0  0  0
  2  3  1  0  0  0
  2 18  1  0  0  0
  3  7  2  0  0  0
  3 19  1  0  0  0
  4  6  2  0  0  0
  4 20  1  0  0  0
  5  8  1  0  0  0
  5  7  1  0  0  0
  6  7  1  0  0  0
  6  9  1  0  0  0
  8  9  2  0  0  0
  8 11  1  0  0  0
  9 10  1  0  0  0
 10 12  1  0  0  0
 10 21  1  0  0  0
 11 13  1  0  0  0
 11 16  2  0  0  0
 12 14  1  0  0  0
 12 22  1  0  0  0
 12 23  1  0  0  0
 13 14  1  0  0  0
 13 24  1  0  0  0
 14 17  1  0  0  0
 14 25  1  0  0  0
 15 26  1  0  0  0
 17 27  1  0  0  0
 17 28  1  0  0  0
 17 29  1  0  0  0
M  END
> <s_m_entry_id>
7519

> <s_m_entry_name>
dock_pv.80

> <s_m_Source_Path>
/home/csk/Desktop/cluster/DUD-E-result/mapk2

> <s_m_Source_File>
dock_pv.maegz

> <i_m_Source_File_Index>
80

> <chembl_id>
CHEMBL559487

> <chembl_pref_name>
None

> <i_lp_mmshare_version>
53161

> <i_f3d_flags>
0

> <r_lp_tautomer_probability>
1

> <s_lp_Force_Field>
OPLS_2005

> <r_lp_Energy>
19.696035

> <b_lp_Chiralities_Consistent>
1

> <s_lp_Variant>
CHEMBL2208_lig308-1

> <s_i_glide_gridfile>
glide-grid_3m2w

> <i_i_glide_lignum>
447

> <i_i_glide_rotatable_bonds>
1

> <r_i_docking_score>
-7.48022684624041

> <r_i_glide_ligand_efficiency>
-0.440013343896495

> <r_i_glide_ligand_efficiency_sa>
-1.13139820973653

> <r_i_glide_ligand_efficiency_ln>
-1.9514246077222

> <r_i_glide_gscore>
-7.48022684624041

> <r_i_glide_lipo>
-2.27823075948811

> <r_i_glide_hbond>
-0.313808994774984

> <r_i_glide_metal>
0

> <r_i_glide_rewards>
-1.85779021212121

> <r_i_glide_evdw>
-33.4862022399902

> <r_i_glide_ecoul>
-8.54513835906982

> <r_i_glide_erotb>
0

> <r_i_glide_esite>
-0.0743160139961168

> <r_i_glide_emodel>
-60.562007879868

> <r_i_glide_energy>
-42.0313405990601

> <r_i_glide_einternal>
0.202217414975166

> <i_i_glide_confnum>
1

> <i_i_glide_posenum>
297

> <r_i_glide_eff_state_penalty>
0

> <s_user_duplicate_titles>
CHEMBL2208_lig308,555604

> <s_m_subgroup_title>
dock_pv

> <s_m_subgroupid>
dock_pv

> <b_m_subgroup_collapsed>
1

$$$$
CHEMBL2208_lig872
                    3D
 Schrodinger Suite 2021-1.
 43 46  0  0  1  0            999 V2000
   40.0792    6.6823   13.7631 N   0  0  0  0  0  0
   39.1012    6.9592   18.3501 N   0  0  0  0  0  0
   38.1190    5.3940   13.1934 N   0  0  0  0  0  0
   38.4795    6.8658   20.6637 N   0  0  0  0  0  0
   40.3956    8.0355   20.0698 N   0  0  0  0  0  0
   39.0761    4.0302   19.8772 N   0  0  0  0  0  0
   39.7675    6.9562   16.0016 C   0  0  0  0  0  0
   38.6721    6.1875   15.4623 C   0  0  0  0  0  0
   40.0083    7.3642   17.4200 C   0  0  0  0  0  0
   38.9040    6.0362   14.0610 C   0  0  0  0  0  0
   40.5724    7.2513   14.9085 C   0  0  0  0  0  0
   39.3405    7.2972   19.6468 C   0  0  0  0  0  0
   37.5070    5.5886   15.9767 C   0  0  0  0  0  0
   41.1353    8.1050   17.7832 C   0  0  0  0  0  0
   37.4219    5.8763   20.4398 C   0  0  1  0  0  0
   41.2867    8.4250   19.1266 C   0  0  0  0  0  0
   36.6819    4.8872   15.0982 C   0  0  0  0  0  0
   37.0174    4.8247   13.7479 C   0  0  0  0  0  0
   37.9330    4.4254   20.6747 C   0  0  1  0  0  0
   36.2567    6.2078   21.3942 C   0  0  0  0  0  0
   36.7571    3.4317   20.4948 C   0  0  0  0  0  0
   35.1110    5.1833   21.2657 C   0  0  0  0  0  0
   35.5995    3.7404   21.4545 C   0  0  0  0  0  0
   40.5266    6.7732   12.8588 H   0  0  0  0  0  0
   38.8041    6.9860   21.6133 H   0  0  0  0  0  0
   39.8569    4.6435   20.0790 H   0  0  0  0  0  0
   39.3542    3.1094   20.1971 H   0  0  0  0  0  0
   41.4780    7.8283   14.8523 H   0  0  0  0  0  0
   37.2663    5.6395   17.0271 H   0  0  0  0  0  0
   41.8787    8.4121   17.0722 H   0  0  0  0  0  0
   37.0710    5.9496   19.4089 H   0  0  0  0  0  0
   42.1451    8.9895   19.4573 H   0  0  0  0  0  0
   35.8050    4.3810   15.4666 H   0  0  0  0  0  0
   36.3832    4.2691   13.0716 H   0  0  0  0  0  0
   38.2584    4.3657   21.7150 H   0  0  0  0  0  0
   36.6078    6.2252   22.4281 H   0  0  0  0  0  0
   35.8767    7.2092   21.1887 H   0  0  0  0  0  0
   36.4024    3.4607   19.4632 H   0  0  0  0  0  0
   37.0779    2.4069   20.6715 H   0  0  0  0  0  0
   34.6738    5.2582   20.2729 H   0  0  0  0  0  0
   34.3220    5.4032   21.9835 H   0  0  0  0  0  0
   34.7803    3.0383   21.2904 H   0  0  0  0  0  0
   35.9258    3.5906   22.4852 H   0  0  0  0  0  0
  1 10  1  0  0  0
  1 11  1  0  0  0
  1 24  1  0  0  0
  2  9  2  0  0  0
  2 12  1  0  0  0
  3 10  2  0  0  0
  3 18  1  0  0  0
  4 12  1  0  0  0
  4 15  1  0  0  0
  4 25  1  0  0  0
  5 12  2  0  0  0
  5 16  1  0  0  0
  6 19  1  0  0  0
  6 26  1  0  0  0
  6 27  1  0  0  0
  7  8  1  0  0  0
  7  9  1  0  0  0
  7 11  2  0  0  0
  8 10  1  0  0  0
  8 13  2  0  0  0
  9 14  1  0  0  0
 11 28  1  0  0  0
 13 17  1  0  0  0
 13 29  1  0  0  0
 14 16  2  0  0  0
 14 30  1  0  0  0
 15 19  1  0  0  0
 15 20  1  0  0  0
 15 31  1  0  0  0
 16 32  1  0  0  0
 17 18  2  0  0  0
 17 33  1  0  0  0
 18 34  1  0  0  0
 19 21  1  0  0  0
 19 35  1  0  0  0
 20 22  1  0  0  0
 20 36  1  0  0  0
 20 37  1  0  0  0
 21 23  1  0  0  0
 21 38  1  0  0  0
 21 39  1  0  0  0
 22 23  1  0  0  0
 22 40  1  0  0  0
 22 41  1  0  0  0
 23 42  1  0  0  0
 23 43  1  0  0  0
M  END
> <s_m_entry_id>
7520

> <s_m_entry_name>
dock_pv.81

> <s_m_Source_Path>
/home/csk/Desktop/cluster/DUD-E-result/mapk2

> <s_m_Source_File>
dock_pv.maegz

> <i_m_Source_File_Index>
81

> <chembl_id>
CHEMBL1995813

> <chembl_pref_name>
None

> <i_lp_mmshare_version>
53161

> <i_f3d_flags>
0

> <r_lp_tautomer_probability>
0.999998420164496

> <s_lp_Force_Field>
OPLS_2005

> <r_lp_Energy>
9.37261

> <b_lp_Chiralities_Consistent>
1

> <s_lp_Variant>
CHEMBL2208_lig872-4

> <s_i_glide_gridfile>
glide-grid_3m2w

> <i_i_glide_lignum>
1113

> <i_i_glide_rotatable_bonds>
3

> <r_i_docking_score>
-7.45860796654084

> <r_i_glide_ligand_efficiency>
-0.32428730289308

> <r_i_glide_ligand_efficiency_sa>
-0.922229951718871

> <r_i_glide_ligand_efficiency_ln>
-1.80355903722744

> <r_i_glide_gscore>
-7.45860796654084

> <r_i_glide_lipo>
-1.77489605110593

> <r_i_glide_hbond>
-0.710564968863451

> <r_i_glide_metal>
0

> <r_i_glide_rewards>
-2.74462816228852

> <r_i_glide_evdw>
-39.5773773193359

> <r_i_glide_ecoul>
-5.365065574646

> <r_i_glide_erotb>
0.583625750748594

> <r_i_glide_esite>
-0.0285158328678436

> <r_i_glide_emodel>
-62.0185782526738

> <r_i_glide_energy>
-44.9424428939819

> <r_i_glide_einternal>
2.38932919502258

> <i_i_glide_confnum>
2

> <i_i_glide_posenum>
392

> <r_i_glide_eff_state_penalty>
0

> <s_user_duplicate_titles>
CHEMBL2208_lig872

> <s_m_subgroup_title>
dock_pv

> <s_m_subgroupid>
dock_pv

> <b_m_subgroup_collapsed>
1

$$$$
CHEMBL2208_lig1116
                    3D
 Schrodinger Suite 2021-1.
 45 47  0  0  1  0            999 V2000
   32.3425    3.0378   22.3599 Cl  0  0  0  0  0  0
   39.2547    8.2486   21.7583 O   0  0  0  0  0  0
   38.2780    8.3916   24.3642 O   0  0  0  0  0  0
   38.2781    6.2193   22.1556 N   0  0  0  0  0  0
   38.2780    5.5263   12.9118 N   0  0  0  0  0  0
   38.5982    6.9473   19.8837 C   0  0  0  0  0  0
   38.4535    6.4205   17.1233 C   0  0  0  0  0  0
   38.7242    7.2110   21.3624 C   0  0  0  0  0  0
   38.3938    6.1127   15.6639 C   0  0  0  0  0  0
   39.4450    7.6120   18.9901 C   0  0  0  0  0  0
   37.6608    6.0344   19.3836 C   0  0  0  0  0  0
   39.3681    7.3552   17.6267 C   0  0  0  0  0  0
   37.5995    5.7703   18.0235 C   0  0  0  0  0  0
   38.4127    6.0248   23.6042 C   0  0  2  0  0  0
   36.5263    4.2165   23.5572 C   0  0  0  0  0  0
   37.9487    4.5892   23.9741 C   0  0  0  0  0  0
   37.2272    5.5919   15.0779 C   0  0  0  0  0  0
   39.5071    6.3145   14.8301 C   0  0  0  0  0  0
   35.4624    4.4250   24.4378 C   0  0  0  0  0  0
   36.2937    3.6250   22.3106 C   0  0  0  0  0  0
   37.7290    7.0943   24.5006 C   0  0  0  0  0  0
   33.9453    3.4794   22.8210 C   0  0  0  0  0  0
   37.2200    5.2873   13.7203 C   0  0  0  0  0  0
   39.4066    6.0250   13.4720 C   0  0  0  0  0  0
   34.1707    4.0580   24.0683 C   0  0  0  0  0  0
   35.0037    3.2532   21.9439 C   0  0  0  0  0  0
   39.2530    8.2927   24.2721 H   0  0  0  0  0  0
   37.9089    5.4139   21.6774 H   0  0  0  0  0  0
   40.1739    8.3259   19.3457 H   0  0  0  0  0  0
   36.9774    5.5083   20.0346 H   0  0  0  0  0  0
   40.0310    7.8966   16.9692 H   0  0  0  0  0  0
   36.8858    5.0337   17.6871 H   0  0  0  0  0  0
   39.4780    6.0250   23.8400 H   0  0  0  0  0  0
   38.0633    4.4250   25.0466 H   0  0  0  0  0  0
   38.6239    3.8618   23.5176 H   0  0  0  0  0  0
   36.3328    5.4051   15.6535 H   0  0  0  0  0  0
   40.4442    6.6869   15.2146 H   0  0  0  0  0  0
   35.6323    4.8742   25.4052 H   0  0  0  0  0  0
   37.1135    3.4250   21.6356 H   0  0  0  0  0  0
   36.6678    7.1569   24.2720 H   0  0  0  0  0  0
   37.8320    6.8206   25.5511 H   0  0  0  0  0  0
   36.3555    4.8251   13.2663 H   0  0  0  0  0  0
   40.2464    6.1831   12.8093 H   0  0  0  0  0  0
   33.3472    4.2285   24.7459 H   0  0  0  0  0  0
   34.8290    2.7763   20.9900 H   0  0  0  0  0  0
  1 22  1  0  0  0
  2  8  2  0  0  0
  3 21  1  0  0  0
  3 27  1  0  0  0
  4  8  1  0  0  0
  4 14  1  0  0  0
  4 28  1  0  0  0
  5 23  2  0  0  0
  5 24  1  0  0  0
  6  8  1  0  0  0
  6 10  2  0  0  0
  6 11  1  0  0  0
  7  9  1  0  0  0
  7 12  2  0  0  0
  7 13  1  0  0  0
  9 17  2  0  0  0
  9 18  1  0  0  0
 10 12  1  0  0  0
 10 29  1  0  0  0
 11 13  2  0  0  0
 11 30  1  0  0  0
 12 31  1  0  0  0
 13 32  1  0  0  0
 14 16  1  0  0  0
 14 21  1  0  0  0
 14 33  1  0  0  0
 15 16  1  0  0  0
 15 19  2  0  0  0
 15 20  1  0  0  0
 16 34  1  0  0  0
 16 35  1  0  0  0
 17 23  1  0  0  0
 17 36  1  0  0  0
 18 24  2  0  0  0
 18 37  1  0  0  0
 19 25  1  0  0  0
 19 38  1  0  0  0
 20 26  2  0  0  0
 20 39  1  0  0  0
 21 40  1  0  0  0
 21 41  1  0  0  0
 22 25  2  0  0  0
 22 26  1  0  0  0
 23 42  1  0  0  0
 24 43  1  0  0  0
 25 44  1  0  0  0
 26 45  1  0  0  0
M  END
> <s_m_entry_id>
7521

> <s_m_entry_name>
dock_pv.82

> <s_m_Source_Path>
/home/csk/Desktop/cluster/DUD-E-result/mapk2

> <s_m_Source_File>
dock_pv.maegz

> <i_m_Source_File_Index>
82

> <chembl_id>
CHEMBL1996931

> <chembl_pref_name>
None

> <i_lp_mmshare_version>
53161

> <i_f3d_flags>
0

> <r_lp_tautomer_probability>
1

> <s_lp_Force_Field>
OPLS_2005

> <r_lp_Energy>
17.153471

> <b_lp_Chiralities_Consistent>
1

> <s_lp_Variant>
CHEMBL2208_lig1116-1

> <s_i_glide_gridfile>
glide-grid_3m2w

> <i_i_glide_lignum>
1486

> <i_i_glide_rotatable_bonds>
8

> <r_i_docking_score>
-7.44591337493837

> <r_i_glide_ligand_efficiency>
-0.286381283651476

> <r_i_glide_ligand_efficiency_sa>
-0.84840342596156

> <r_i_glide_ligand_efficiency_ln>
-1.74864832406973

> <r_i_glide_gscore>
-7.44591337493837

> <r_i_glide_lipo>
-2.24044827778995

> <r_i_glide_hbond>
-0.304

> <r_i_glide_metal>
0

> <r_i_glide_rewards>
-1.78173368537604

> <r_i_glide_evdw>
-35.0500831604004

> <r_i_glide_ecoul>
-14.1938095092773

> <r_i_glide_erotb>
0.858364241424846

> <r_i_glide_esite>
-0.0965200687856113

> <r_i_glide_emodel>
-70.6473737235908

> <r_i_glide_energy>
-49.2438926696777

> <r_i_glide_einternal>
2.34151029586792

> <i_i_glide_confnum>
55

> <i_i_glide_posenum>
253

> <r_i_glide_eff_state_penalty>
0

> <s_user_duplicate_titles>
CHEMBL2208_lig1116

> <s_m_subgroup_title>
dock_pv

> <s_m_subgroupid>
dock_pv

> <b_m_subgroup_collapsed>
1

$$$$
CHEMBL2208_lig111
                    3D
 Schrodinger Suite 2021-1.
 39 42  0  0  1  0            999 V2000
   37.3355    5.6654   20.9342 C   0  0  0  0  0  0
   36.3542    4.7637   20.5268 C   0  0  0  0  0  0
   36.0643    4.5185   19.1851 C   0  0  0  0  0  0
   38.0768    6.3743   19.9756 C   0  0  0  0  0  0
   37.8215    6.1657   18.6118 C   0  0  0  0  0  0
   36.8052    5.2330   18.2408 C   0  0  0  0  0  0
   36.7556    5.2266   16.8656 N   0  0  0  0  0  0
   38.3545    6.7153   17.3943 C   0  0  0  0  0  0
   37.7158    6.0665   16.3488 C   0  0  0  0  0  0
   37.9532    6.4085   14.8719 C   0  0  1  0  0  0
   39.1348    7.3064   14.6715 N   0  0  1  0  0  0
   39.1811    8.3695   15.6987 C   0  0  0  0  0  0
   39.4258    7.7778   17.1187 C   0  0  2  0  0  0
   37.9083    5.2434   13.8375 C   0  0  0  0  0  0
   37.3755    4.0813   14.3068 O   0  0  0  0  0  0
   38.2749    5.3787   12.6726 O   0  0  0  0  0  0
   37.5035    5.7886   22.2971 O   0  0  0  0  0  0
   38.5619    6.5949   22.8006 C   0  0  0  0  0  0
   40.8438    7.1920   17.1175 C   0  0  0  0  0  0
   40.9788    6.1370   15.9946 C   0  0  0  0  0  0
   40.4668    6.6591   14.6325 C   0  0  0  0  0  0
   35.8050    4.2228   21.2837 H   0  0  0  0  0  0
   35.2995    3.8099   18.8967 H   0  0  0  0  0  0
   38.8379    7.0762   20.2723 H   0  0  0  0  0  0
   36.1258    4.6954   16.2778 H   0  0  0  0  0  0
   37.0795    6.9491   14.5168 H   0  0  0  0  0  0
   38.2788    8.9733   15.6832 H   0  0  0  0  0  0
   39.9763    9.0731   15.4429 H   0  0  0  0  0  0
   39.3674    8.5909   17.8445 H   0  0  0  0  0  0
   37.4726    3.3714   13.6522 H   0  0  0  0  0  0
   38.6124    6.4915   23.8854 H   0  0  0  0  0  0
   39.5266    6.2899   22.3978 H   0  0  0  0  0  0
   38.4018    7.6516   22.5779 H   0  0  0  0  0  0
   41.0764    6.8221   18.1115 H   0  0  0  0  0  0
   41.5626    7.9876   16.9059 H   0  0  0  0  0  0
   40.4434    5.2273   16.2527 H   0  0  0  0  0  0
   42.0191    5.8361   15.8736 H   0  0  0  0  0  0
   40.4867    5.8560   13.8973 H   0  0  0  0  0  0
   41.1616    7.3983   14.2371 H   0  0  0  0  0  0
  1 17  1  0  0  0
  1  2  2  0  0  0
  1  4  1  0  0  0
  2  3  1  0  0  0
  2 22  1  0  0  0
  3  6  2  0  0  0
  3 23  1  0  0  0
  4  5  2  0  0  0
  4 24  1  0  0  0
  5  6  1  0  0  0
  5  8  1  0  0  0
  6  7  1  0  0  0
  7  9  1  0  0  0
  7 25  1  0  0  0
  8 13  1  0  0  0
  8  9  2  0  0  0
  9 10  1  0  0  0
 10 11  1  0  0  0
 10 14  1  0  0  0
 10 26  1  0  0  0
 11 12  1  0  0  0
 11 21  1  0  0  0
 12 13  1  0  0  0
 12 27  1  0  0  0
 12 28  1  0  0  0
 13 19  1  0  0  0
 13 29  1  0  0  0
 14 15  1  0  0  0
 14 16  2  0  0  0
 15 30  1  0  0  0
 17 18  1  0  0  0
 18 31  1  0  0  0
 18 32  1  0  0  0
 18 33  1  0  0  0
 19 20  1  0  0  0
 19 34  1  0  0  0
 19 35  1  0  0  0
 20 21  1  0  0  0
 20 36  1  0  0  0
 20 37  1  0  0  0
 21 38  1  0  0  0
 21 39  1  0  0  0
M  END
> <s_m_entry_id>
7522

> <s_m_entry_name>
dock_pv.83

> <s_m_Source_Path>
/home/csk/Desktop/cluster/DUD-E-result/mapk2

> <s_m_Source_File>
dock_pv.maegz

> <i_m_Source_File_Index>
83

> <chembl_id>
CHEMBL394124

> <chembl_pref_name>
None

> <i_lp_mmshare_version>
53161

> <i_f3d_flags>
0

> <r_lp_tautomer_probability>
1

> <s_lp_Force_Field>
OPLS_2005

> <r_lp_Energy>
37.115474

> <b_lp_Chiralities_Consistent>
1

> <s_lp_Variant>
CHEMBL2208_lig111-2

> <s_i_glide_gridfile>
glide-grid_3m2w

> <i_i_glide_lignum>
131

> <i_i_glide_rotatable_bonds>
3

> <r_i_docking_score>
-7.43209135289339

> <r_i_glide_ligand_efficiency>
-0.353909112042542

> <r_i_glide_ligand_efficiency_sa>
-0.976408404464846

> <r_i_glide_ligand_efficiency_ln>
-1.83756956904825

> <r_i_glide_gscore>
-7.43209135289339

> <r_i_glide_lipo>
-2.21879910190793

> <r_i_glide_hbond>
-0.304

> <r_i_glide_metal>
0

> <r_i_glide_rewards>
-2.31434209993457

> <r_i_glide_evdw>
-25.8488368988037

> <r_i_glide_ecoul>
-10.1065530776978

> <r_i_glide_erotb>
0.221488968310036

> <r_i_glide_esite>
-0.00801431276608021

> <r_i_glide_emodel>
-52.4690749793025

> <r_i_glide_energy>
-35.9553899765015

> <r_i_glide_einternal>
0.956874132156372

> <i_i_glide_confnum>
3

> <i_i_glide_posenum>
400

> <r_i_glide_eff_state_penalty>
0

> <s_user_duplicate_titles>
CHEMBL2208_lig111

> <s_m_subgroup_title>
dock_pv

> <s_m_subgroupid>
dock_pv

> <b_m_subgroup_collapsed>
1

$$$$
CHEMBL2208_lig1407
                    3D
 Schrodinger Suite 2021-1.
 29 31  0  0  1  0            999 V2000
   40.6723    7.6244   18.9243 Cl  0  0  0  0  0  0
   36.6076    5.2437   21.8948 S   0  0  0  0  0  0
   38.4741    5.3131   13.3642 O   0  0  0  0  0  0
   37.7222    5.6286   16.0787 N   0  0  0  0  0  0
   40.1790    6.7049   13.6483 N   0  0  0  0  0  0
   39.8136    6.8061   16.4683 C   0  0  0  0  0  0
   38.3726    6.2209   18.3536 C   0  0  0  0  0  0
   38.8752    6.1814   15.6266 C   0  0  0  0  0  0
   39.5466    6.8490   17.8468 C   0  0  0  0  0  0
   37.4747    5.6244   17.4154 C   0  0  0  0  0  0
   39.1164    6.0258   14.1324 C   0  0  0  0  0  0
   38.0700    6.1239   19.7396 C   0  0  0  0  0  0
   41.0910    7.3581   15.8462 C   0  0  0  0  0  0
   36.3261    4.9340   17.8840 C   0  0  0  0  0  0
   36.9480    5.4166   20.1696 C   0  0  0  0  0  0
   36.0869    4.8249   19.2500 C   0  0  0  0  0  0
   40.8452    7.7845   14.3846 C   0  0  0  0  0  0
   38.1976    4.8672   22.6825 C   0  0  0  0  0  0
   40.4453    6.5350   12.6866 H   0  0  0  0  0  0
   38.7371    6.5680   20.4630 H   0  0  0  0  0  0
   41.8741    6.5991   15.8847 H   0  0  0  0  0  0
   41.4771    8.2079   16.4073 H   0  0  0  0  0  0
   35.6689    4.4501   17.1782 H   0  0  0  0  0  0
   35.2240    4.2727   19.5981 H   0  0  0  0  0  0
   40.2595    8.7048   14.3417 H   0  0  0  0  0  0
   41.7930    8.0255   13.9054 H   0  0  0  0  0  0
   38.0525    4.6065   23.7295 H   0  0  0  0  0  0
   38.6769    4.0273   22.1812 H   0  0  0  0  0  0
   38.8691    5.7234   22.6395 H   0  0  0  0  0  0
  1  9  1  0  0  0
  2 15  1  0  0  0
  2 18  1  0  0  0
  3 11  2  0  0  0
  4  8  2  0  0  0
  4 10  1  0  0  0
  5 11  1  0  0  0
  5 17  1  0  0  0
  5 19  1  0  0  0
  6  8  1  0  0  0
  6  9  2  0  0  0
  6 13  1  0  0  0
  7  9  1  0  0  0
  7 10  1  0  0  0
  7 12  2  0  0  0
  8 11  1  0  0  0
 10 14  2  0  0  0
 12 15  1  0  0  0
 12 20  1  0  0  0
 13 17  1  0  0  0
 13 21  1  0  0  0
 13 22  1  0  0  0
 14 16  1  0  0  0
 14 23  1  0  0  0
 15 16  2  0  0  0
 16 24  1  0  0  0
 17 25  1  0  0  0
 17 26  1  0  0  0
 18 27  1  0  0  0
 18 28  1  0  0  0
 18 29  1  0  0  0
M  END
> <s_m_entry_id>
7523

> <s_m_entry_name>
dock_pv.84

> <s_m_Source_Path>
/home/csk/Desktop/cluster/DUD-E-result/mapk2

> <s_m_Source_File>
dock_pv.maegz

> <i_m_Source_File_Index>
84

> <chembl_id>
CHEMBL1985074

> <chembl_pref_name>
None

> <i_lp_mmshare_version>
53161

> <i_f3d_flags>
0

> <r_lp_tautomer_probability>
1

> <s_lp_Force_Field>
OPLS_2005

> <r_lp_Energy>
19.621299

> <b_lp_Chiralities_Consistent>
1

> <s_lp_Variant>
CHEMBL2208_lig1407-1

> <s_i_glide_gridfile>
glide-grid_3m2w

> <i_i_glide_lignum>
1946

> <i_i_glide_rotatable_bonds>
1

> <r_i_docking_score>
-7.42894849466484

> <r_i_glide_ligand_efficiency>
-0.412719360814714

> <r_i_glide_ligand_efficiency_sa>
-1.08163071203645

> <r_i_glide_ligand_efficiency_ln>
-1.90957290381994

> <r_i_glide_gscore>
-7.42894849466484

> <r_i_glide_lipo>
-1.68448228717319

> <r_i_glide_hbond>
-0.494232507041702

> <r_i_glide_metal>
0

> <r_i_glide_rewards>
-2.85800190227795

> <r_i_glide_evdw>
-32.2574081420898

> <r_i_glide_ecoul>
-5.1957426071167

> <r_i_glide_erotb>
0

> <r_i_glide_esite>
0

> <r_i_glide_emodel>
-54.4341277910999

> <r_i_glide_energy>
-37.4531507492065

> <r_i_glide_einternal>
0.0381869040429592

> <i_i_glide_confnum>
1

> <i_i_glide_posenum>
380

> <r_i_glide_eff_state_penalty>
0

> <s_user_duplicate_titles>
CHEMBL2208_lig1407

> <s_m_subgroup_title>
dock_pv

> <s_m_subgroupid>
dock_pv

> <b_m_subgroup_collapsed>
1

$$$$
CHEMBL2208_lig875
                    3D
 Schrodinger Suite 2021-1.
 28 30  0  0  1  0            999 V2000
   41.0779    8.1179   18.3752 C   0  0  0  0  0  0
   40.1123    7.8492   19.3468 C   0  0  0  0  0  0
   38.9745    7.1214   19.0180 C   0  0  0  0  0  0
   40.8752    7.6747   17.0709 C   0  0  0  0  0  0
   39.7151    6.9759   16.7081 C   0  0  0  0  0  0
   38.7523    6.6784   17.7071 C   0  0  0  0  0  0
   37.5721    5.9698   17.3432 N   0  0  0  0  0  0
   39.5310    6.5777   15.2655 C   0  0  0  0  0  0
   38.2738    5.8801   15.0208 C   0  0  0  0  0  0
   37.4116    5.6249   16.0092 C   0  0  0  0  0  0
   36.3141    4.9536   15.5117 N   0  0  0  0  0  0
   36.5325    4.8021   14.1190 O   0  0  0  0  0  0
   37.7028    5.3636   13.8035 C   0  0  0  0  0  0
   40.3647    6.8375   14.3969 O   0  0  0  0  0  0
   38.1714    5.4297   12.6720 O   0  0  0  0  0  0
   40.2744    8.4250   20.9614 Cl  0  0  0  0  0  0
   36.5656    5.5791   18.3451 C   0  0  0  0  0  0
   36.9937    4.4010   19.2366 C   0  0  0  0  0  0
   42.2178    8.8251   18.6723 O   0  0  0  0  0  0
   38.2617    6.9264   19.8041 H   0  0  0  0  0  0
   41.6301    7.8863   16.3274 H   0  0  0  0  0  0
   35.9846    4.0666   15.8601 H   0  0  0  0  0  0
   36.3410    6.4430   18.9716 H   0  0  0  0  0  0
   35.6110    5.3344   17.8783 H   0  0  0  0  0  0
   36.2585    4.2303   20.0225 H   0  0  0  0  0  0
   37.0722    3.4747   18.6716 H   0  0  0  0  0  0
   37.9526    4.5749   19.7238 H   0  0  0  0  0  0
   42.6548    9.1694   17.8891 H   0  0  0  0  0  0
  1  4  1  0  0  0
  1  2  2  0  0  0
  1 19  1  0  0  0
  2  3  1  0  0  0
  2 16  1  0  0  0
  3  6  2  0  0  0
  3 20  1  0  0  0
  4  5  2  0  0  0
  4 21  1  0  0  0
  5  6  1  0  0  0
  5  8  1  0  0  0
  6  7  1  0  0  0
  7 17  1  0  0  0
  7 10  1  0  0  0
  8 14  2  0  0  0
  8  9  1  0  0  0
  9 10  2  0  0  0
  9 13  1  0  0  0
 10 11  1  0  0  0
 11 12  1  0  0  0
 11 22  1  0  0  0
 12 13  1  0  0  0
 13 15  2  0  0  0
 17 18  1  0  0  0
 17 23  1  0  0  0
 17 24  1  0  0  0
 18 25  1  0  0  0
 18 26  1  0  0  0
 18 27  1  0  0  0
 19 28  1  0  0  0
M  END
> <s_m_entry_id>
7524

> <s_m_entry_name>
dock_pv.85

> <s_m_Source_Path>
/home/csk/Desktop/cluster/DUD-E-result/mapk2

> <s_m_Source_File>
dock_pv.maegz

> <i_m_Source_File_Index>
85

> <chembl_id>
CHEMBL523823

> <chembl_pref_name>
None

> <i_lp_mmshare_version>
53161

> <i_f3d_flags>
0

> <r_lp_tautomer_probability>
1

> <s_lp_Force_Field>
OPLS_2005

> <r_lp_Energy>
15.887928

> <b_lp_Chiralities_Consistent>
1

> <s_lp_Variant>
CHEMBL2208_lig875-1

> <s_i_glide_gridfile>
glide-grid_3m2w

> <i_i_glide_lignum>
1120

> <i_i_glide_rotatable_bonds>
2

> <r_i_docking_score>
-7.42639044377921

> <r_i_glide_ligand_efficiency>
-0.390862654935748

> <r_i_glide_ligand_efficiency_sa>
-1.04297855183072

> <r_i_glide_ligand_efficiency_ln>
-1.88274948173963

> <r_i_glide_gscore>
-7.42639044377921

> <r_i_glide_lipo>
-1.86851455721318

> <r_i_glide_hbond>
-0.397061504567934

> <r_i_glide_metal>
0

> <r_i_glide_rewards>
-2.52629973726677

> <r_i_glide_evdw>
-32.943920135498

> <r_i_glide_ecoul>
-6.33774185180664

> <r_i_glide_erotb>
0

> <r_i_glide_esite>
-0.0366573601854213

> <r_i_glide_emodel>
-56.7348631810446

> <r_i_glide_energy>
-39.2816619873047

> <r_i_glide_einternal>
0.259737730026245

> <i_i_glide_confnum>
1

> <i_i_glide_posenum>
368

> <r_i_glide_eff_state_penalty>
0

> <s_user_duplicate_titles>
CHEMBL2208_lig875

> <s_m_subgroup_title>
dock_pv

> <s_m_subgroupid>
dock_pv

> <b_m_subgroup_collapsed>
1

$$$$
CHEMBL2208_lig207
                    3D
 Schrodinger Suite 2021-1.
 48 51  0  0  1  0            999 V2000
   39.2724    6.2216   13.9541 C   0  0  0  0  0  0
   38.1738    5.6225   14.5893 C   0  0  0  0  0  0
   38.0006    5.7617   15.9749 C   0  0  0  0  0  0
   40.2047    6.9860   14.6498 C   0  0  0  0  0  0
   37.1861    4.8283   13.7645 C   0  0  0  0  0  0
   37.2678    4.8498   12.5332 O   0  0  0  0  0  0
   36.2784    4.0948   14.4536 N   0  0  0  0  0  0
   35.2862    3.2934   13.9142 C   0  0  0  0  0  0
   40.0597    7.1193   16.0351 C   0  0  0  0  0  0
   38.9655    6.4813   16.6793 C   0  0  0  0  0  0
   40.7868    7.8043   17.0526 C   0  0  0  0  0  0
   40.2107    7.5061   18.2666 C   0  0  0  0  0  0
   39.0891    6.7322   18.0318 N   0  0  0  0  0  0
   38.1965    6.2957   19.0984 C   0  0  0  0  0  0
   39.0794    6.0826   20.3602 C   0  0  1  0  0  0
   39.8776    7.3134   20.5690 N   0  0  0  0  0  0
   40.5598    7.9624   19.5908 C   0  0  0  0  0  0
   41.3904    8.8211   19.8720 O   0  0  0  0  0  0
   34.9171    3.2249   12.6570 N   0  0  0  0  0  0
   33.8783    2.4249   12.4985 C   0  0  0  0  0  0
   33.4140    1.7890   13.6457 C   0  0  0  0  0  0
   34.3794    2.2934   15.0012 S   0  0  0  0  0  0
   38.2590    5.6596   21.5961 C   0  0  0  0  0  0
   37.4922    4.4394   21.3241 N   0  0  2  0  0  0
   36.6571    3.9819   22.4266 C   0  0  0  0  0  0
   35.8435    2.8097   21.8733 C   0  0  0  0  0  0
   35.7245    5.0744   22.9764 C   0  0  0  0  0  0
   39.4162    6.1076   12.8882 H   0  0  0  0  0  0
   37.1675    5.3223   16.5048 H   0  0  0  0  0  0
   41.0252    7.4597   14.1302 H   0  0  0  0  0  0
   36.3502    4.0781   15.4571 H   0  0  0  0  0  0
   41.6609    8.4234   16.9461 H   0  0  0  0  0  0
   37.6854    5.3755   18.8113 H   0  0  0  0  0  0
   37.4453    7.0652   19.2772 H   0  0  0  0  0  0
   39.7933    5.2748   20.1700 H   0  0  0  0  0  0
   40.1537    7.5249   21.5183 H   0  0  0  0  0  0
   33.4676    2.3017   11.5074 H   0  0  0  0  0  0
   32.5927    1.0956   13.7593 H   0  0  0  0  0  0
   37.5933    6.4845   21.8553 H   0  0  0  0  0  0
   38.9308    5.4976   22.4406 H   0  0  0  0  0  0
   38.1291    3.6809   21.1034 H   0  0  0  0  0  0
   37.3074    3.6249   23.2290 H   0  0  0  0  0  0
   35.2291    2.3533   22.6498 H   0  0  0  0  0  0
   35.1732    3.1217   21.0717 H   0  0  0  0  0  0
   36.4876    2.0254   21.4721 H   0  0  0  0  0  0
   35.0085    4.6588   23.6858 H   0  0  0  0  0  0
   36.2788    5.8483   23.5089 H   0  0  0  0  0  0
   35.1528    5.5516   22.1795 H   0  0  0  0  0  0
  1  2  2  0  0  0
  1  4  1  0  0  0
  1 28  1  0  0  0
  2  3  1  0  0  0
  2  5  1  0  0  0
  3 10  2  0  0  0
  3 29  1  0  0  0
  4  9  2  0  0  0
  4 30  1  0  0  0
  5  6  2  0  0  0
  5  7  1  0  0  0
  7  8  1  0  0  0
  7 31  1  0  0  0
  8 19  2  0  0  0
  8 22  1  0  0  0
  9 10  1  0  0  0
  9 11  1  0  0  0
 10 13  1  0  0  0
 11 12  2  0  0  0
 11 32  1  0  0  0
 12 17  1  0  0  0
 12 13  1  0  0  0
 13 14  1  0  0  0
 14 15  1  0  0  0
 14 33  1  0  0  0
 14 34  1  0  0  0
 15 16  1  0  0  0
 15 23  1  0  0  0
 15 35  1  0  0  0
 16 17  1  0  0  0
 16 36  1  0  0  0
 17 18  2  0  0  0
 19 20  1  0  0  0
 20 21  2  0  0  0
 20 37  1  0  0  0
 21 22  1  0  0  0
 21 38  1  0  0  0
 23 24  1  0  0  0
 23 39  1  0  0  0
 23 40  1  0  0  0
 24 25  1  0  0  0
 24 41  1  0  0  0
 25 26  1  0  0  0
 25 27  1  0  0  0
 25 42  1  0  0  0
 26 43  1  0  0  0
 26 44  1  0  0  0
 26 45  1  0  0  0
 27 46  1  0  0  0
 27 47  1  0  0  0
 27 48  1  0  0  0
M  END
> <s_m_entry_id>
7525

> <s_m_entry_name>
dock_pv.86

> <s_m_Source_Path>
/home/csk/Desktop/cluster/DUD-E-result/mapk2

> <s_m_Source_File>
dock_pv.maegz

> <i_m_Source_File_Index>
86

> <chembl_id>
CHEMBL272148

> <chembl_pref_name>
None

> <i_lp_mmshare_version>
53161

> <i_f3d_flags>
0

> <r_lp_tautomer_probability>
0.999000488399163

> <s_lp_Force_Field>
OPLS_2005

> <r_lp_Energy>
26.074691

> <b_lp_Chiralities_Consistent>
1

> <s_lp_Variant>
CHEMBL2208_lig207-2

> <s_i_glide_gridfile>
glide-grid_3m2w

> <i_i_glide_lignum>
326

> <i_i_glide_rotatable_bonds>
6

> <r_i_docking_score>
-7.42389684190451

> <r_i_glide_ligand_efficiency>
-0.27495914229276

> <r_i_glide_ligand_efficiency_sa>
-0.824877425972059

> <r_i_glide_ligand_efficiency_ln>
-1.72816079229044

> <r_i_glide_gscore>
-7.42389684190451

> <r_i_glide_lipo>
-2.69609447526753

> <r_i_glide_hbond>
-0.586748184452131

> <r_i_glide_metal>
0

> <r_i_glide_rewards>
-1.124362878439

> <r_i_glide_evdw>
-37.861930847168

> <r_i_glide_ecoul>
-11.1891918182373

> <r_i_glide_erotb>
0.66075207515154

> <r_i_glide_esite>
-0.105968063803401

> <r_i_glide_emodel>
-69.4193950459014

> <r_i_glide_energy>
-49.0511226654053

> <r_i_glide_einternal>
2.49706077575684

> <i_i_glide_confnum>
29

> <i_i_glide_posenum>
42

> <r_i_glide_eff_state_penalty>
0

> <s_user_duplicate_titles>
CHEMBL2208_lig207

> <s_m_subgroup_title>
dock_pv

> <s_m_subgroupid>
dock_pv

> <b_m_subgroup_collapsed>
1

$$$$
CHEMBL2208_lig160
                    3D
 Schrodinger Suite 2021-1.
 31 33  0  0  1  0            999 V2000
   38.2910    6.6090   19.2788 C   0  0  2  0  0  0
   39.2798    6.1899   13.9119 C   0  0  0  0  0  0
   38.1510    5.6584   14.5518 C   0  0  0  0  0  0
   37.9885    5.8427   15.9340 C   0  0  0  0  0  0
   40.2377    6.9487   14.5790 C   0  0  0  0  0  0
   40.0468    7.1393   15.9475 C   0  0  0  0  0  0
   38.9400    6.5813   16.6499 C   0  0  0  0  0  0
   40.7880    7.8366   16.8728 N   0  0  0  0  0  0
   40.2169    7.7527   18.1183 C   0  0  0  0  0  0
   39.0929    6.9429   18.0295 C   0  0  0  0  0  0
   38.4916    7.7955   20.2682 C   0  0  0  0  0  0
   39.9221    8.1622   20.3753 N   0  0  0  0  0  0
   40.7671    8.3181   19.3237 C   0  0  0  0  0  0
   41.8777    8.8251   19.4720 O   0  0  0  0  0  0
   38.7003    5.2547   19.8857 C   0  0  0  0  0  0
   37.1263    4.9124   13.7278 C   0  0  0  0  0  0
   36.0915    4.3517   14.3566 N   0  0  0  0  0  0
   37.2374    4.8254   12.5071 O   0  0  0  0  0  0
   37.2302    6.5581   19.0277 H   0  0  0  0  0  0
   39.4220    6.0315   12.8514 H   0  0  0  0  0  0
   37.1406    5.4361   16.4652 H   0  0  0  0  0  0
   41.0769    7.3731   14.0475 H   0  0  0  0  0  0
   41.6354    8.3626   16.7058 H   0  0  0  0  0  0
   38.1054    7.5463   21.2585 H   0  0  0  0  0  0
   37.9357    8.6719   19.9320 H   0  0  0  0  0  0
   40.3247    8.2071   21.3010 H   0  0  0  0  0  0
   38.5065    4.4358   19.1942 H   0  0  0  0  0  0
   39.7619    5.2305   20.1369 H   0  0  0  0  0  0
   38.1461    5.0444   20.8008 H   0  0  0  0  0  0
   35.4195    3.8341   13.8120 H   0  0  0  0  0  0
   35.9661    4.4402   15.3521 H   0  0  0  0  0  0
  1 10  1  0  0  0
  1 11  1  0  0  0
  1 15  1  0  0  0
  1 19  1  0  0  0
  2  3  2  0  0  0
  2  5  1  0  0  0
  2 20  1  0  0  0
  3  4  1  0  0  0
  3 16  1  0  0  0
  4  7  2  0  0  0
  4 21  1  0  0  0
  5  6  2  0  0  0
  5 22  1  0  0  0
  6  7  1  0  0  0
  6  8  1  0  0  0
  7 10  1  0  0  0
  8  9  1  0  0  0
  8 23  1  0  0  0
  9 10  2  0  0  0
  9 13  1  0  0  0
 11 12  1  0  0  0
 11 24  1  0  0  0
 11 25  1  0  0  0
 12 13  1  0  0  0
 12 26  1  0  0  0
 13 14  2  0  0  0
 15 27  1  0  0  0
 15 28  1  0  0  0
 15 29  1  0  0  0
 16 17  1  0  0  0
 16 18  2  0  0  0
 17 30  1  0  0  0
 17 31  1  0  0  0
M  END
> <s_m_entry_id>
7526

> <s_m_entry_name>
dock_pv.87

> <s_m_Source_Path>
/home/csk/Desktop/cluster/DUD-E-result/mapk2

> <s_m_Source_File>
dock_pv.maegz

> <i_m_Source_File_Index>
87

> <chembl_id>
CHEMBL246892

> <chembl_pref_name>
None

> <i_lp_mmshare_version>
53161

> <i_f3d_flags>
0

> <r_lp_tautomer_probability>
1

> <s_lp_Force_Field>
OPLS_2005

> <r_lp_Energy>
19.058453

> <b_lp_Chiralities_Consistent>
1

> <s_lp_Variant>
CHEMBL2208_lig160-1

> <s_i_glide_gridfile>
glide-grid_3m2w

> <i_i_glide_lignum>
241

> <i_i_glide_rotatable_bonds>
1

> <r_i_docking_score>
-7.42044333102347

> <r_i_glide_ligand_efficiency>
-0.412246851723526

> <r_i_glide_ligand_efficiency_sa>
-1.08039238790323

> <r_i_glide_ligand_efficiency_ln>
-1.90738669536207

> <r_i_glide_gscore>
-7.42044333102347

> <r_i_glide_lipo>
-2.14367597253401

> <r_i_glide_hbond>
-0.450529020495375

> <r_i_glide_metal>
0

> <r_i_glide_rewards>
-1.94065291632197

> <r_i_glide_evdw>
-33.4342956542969

> <r_i_glide_ecoul>
-7.36053562164307

> <r_i_glide_erotb>
0

> <r_i_glide_esite>
-0.109790295710819

> <r_i_glide_emodel>
-58.9848345946109

> <r_i_glide_energy>
-40.7948312759399

> <r_i_glide_einternal>
1.89032652997412e-05

> <i_i_glide_confnum>
1

> <i_i_glide_posenum>
178

> <r_i_glide_eff_state_penalty>
0

> <s_user_duplicate_titles>
CHEMBL2208_lig160

> <s_m_subgroup_title>
dock_pv

> <s_m_subgroupid>
dock_pv

> <b_m_subgroup_collapsed>
1

$$$$
CHEMBL2208_lig1338
                    3D
 Schrodinger Suite 2021-1.
 45 49  0  0  1  0            999 V2000
   38.1062    6.1704   17.2415 C   0  0  0  0  0  0
   37.2151    5.3047   15.1326 C   0  0  0  0  0  0
   39.2628    6.6162   16.5867 C   0  0  0  0  0  0
   39.3920    6.4264   15.2106 C   0  0  0  0  0  0
   38.3720    5.7483   14.4776 C   0  0  0  0  0  0
   39.8778    6.2385   13.0720 N   0  0  0  0  0  0
   40.3551    6.7683   14.2385 C   0  0  0  0  0  0
   37.9714    6.4249   18.7182 C   0  0  0  0  0  0
   38.7371    7.3461   19.2819 N   0  0  0  0  0  0
   37.0948    5.8283   19.6474 C   0  0  0  0  0  0
   37.3296    6.4832   20.8403 N   0  0  0  0  0  0
   38.3457    7.4147   20.5689 C   0  0  0  0  0  0
   38.8151    8.2575   21.4992 N   0  0  0  0  0  0
   38.2778    8.1553   22.7426 C   0  0  0  0  0  0
   37.2860    7.2427   23.0901 C   0  0  0  0  0  0
   36.7911    6.4006   22.0983 C   0  0  0  0  0  0
   36.3265    3.4262   19.7738 C   0  0  0  0  0  0
   35.9286    3.0782   21.2255 C   0  0  0  0  0  0
   34.4266    3.3363   21.5001 C   0  0  0  0  0  0
   33.5182    2.6068   20.4827 C   0  0  0  0  0  0
   33.9356    2.8469   19.0144 C   0  0  0  0  0  0
   35.4491    2.6151   18.7919 C   0  0  0  0  0  0
   38.6837    5.6248   13.1519 N   0  0  0  0  0  0
   36.1368    4.8505   19.5159 N   0  0  0  0  0  0
   37.0959    5.5384   16.5035 C   0  0  0  0  0  0
   36.4258    4.8025   14.5920 H   0  0  0  0  0  0
   40.0500    7.1177   17.1301 H   0  0  0  0  0  0
   41.2907    7.3058   14.2557 H   0  0  0  0  0  0
   38.6907    8.8170   23.4916 H   0  0  0  0  0  0
   36.8969    7.2018   24.0963 H   0  0  0  0  0  0
   35.9946    5.6943   22.2659 H   0  0  0  0  0  0
   37.3786    3.1864   19.6074 H   0  0  0  0  0  0
   36.1483    2.0251   21.4051 H   0  0  0  0  0  0
   36.5581    3.6084   21.9378 H   0  0  0  0  0  0
   34.1780    3.0178   22.5121 H   0  0  0  0  0  0
   34.2200    4.4057   21.4622 H   0  0  0  0  0  0
   33.5404    1.5365   20.6881 H   0  0  0  0  0  0
   32.4803    2.9102   20.6283 H   0  0  0  0  0  0
   33.3611    2.1934   18.3571 H   0  0  0  0  0  0
   33.6740    3.8641   18.7208 H   0  0  0  0  0  0
   35.7158    2.8532   17.7606 H   0  0  0  0  0  0
   35.6703    1.5537   18.9162 H   0  0  0  0  0  0
   40.3749    6.3229   12.1887 H   0  0  0  0  0  0
   35.4068    4.9748   18.8258 H   0  0  0  0  0  0
   36.1891    5.2146   16.9871 H   0  0  0  0  0  0
  1 25  1  0  0  0
  1  8  1  0  0  0
  1  3  2  0  0  0
  2  5  1  0  0  0
  2 26  1  0  0  0
  2 25  2  0  0  0
  3 27  1  0  0  0
  3  4  1  0  0  0
  4  5  1  0  0  0
  4  7  2  0  0  0
  5 23  2  0  0  0
  6 43  1  0  0  0
  6 23  1  0  0  0
  6  7  1  0  0  0
  7 28  1  0  0  0
  8  9  1  0  0  0
  8 10  2  0  0  0
  9 12  2  0  0  0
 10 11  1  0  0  0
 10 24  1  0  0  0
 11 12  1  0  0  0
 11 16  1  0  0  0
 12 13  1  0  0  0
 13 14  2  0  0  0
 14 15  1  0  0  0
 14 29  1  0  0  0
 15 16  2  0  0  0
 15 30  1  0  0  0
 16 31  1  0  0  0
 17 18  1  0  0  0
 17 22  1  0  0  0
 17 24  1  0  0  0
 17 32  1  0  0  0
 18 19  1  0  0  0
 18 33  1  0  0  0
 18 34  1  0  0  0
 19 20  1  0  0  0
 19 35  1  0  0  0
 19 36  1  0  0  0
 20 21  1  0  0  0
 20 37  1  0  0  0
 20 38  1  0  0  0
 21 22  1  0  0  0
 21 39  1  0  0  0
 21 40  1  0  0  0
 22 41  1  0  0  0
 22 42  1  0  0  0
 24 44  1  0  0  0
 25 45  1  0  0  0
M  END
> <s_m_entry_id>
7527

> <s_m_entry_name>
dock_pv.88

> <s_m_Source_Path>
/home/csk/Desktop/cluster/DUD-E-result/mapk2

> <s_m_Source_File>
dock_pv.maegz

> <i_m_Source_File_Index>
88

> <chembl_id>
CHEMBL1682552

> <chembl_pref_name>
None

> <i_lp_mmshare_version>
53161

> <i_f3d_flags>
0

> <r_lp_tautomer_probability>
0.0196078431372549

> <s_lp_Force_Field>
OPLS_2005

> <r_lp_Energy>
38.8572

> <b_lp_Chiralities_Consistent>
1

> <s_lp_Variant>
CHEMBL2208_lig1338-2

> <s_i_glide_gridfile>
glide-grid_3m2w

> <i_i_glide_lignum>
1817

> <i_i_glide_rotatable_bonds>
3

> <r_i_docking_score>
-7.4011534902024

> <r_i_glide_ligand_efficiency>
-0.296046139608096

> <r_i_glide_ligand_efficiency_sa>
-0.865644162614715

> <r_i_glide_ligand_efficiency_ln>
-1.75429517185034

> <r_i_glide_gscore>
-7.4011534902024

> <r_i_glide_lipo>
-2.03635193356164

> <r_i_glide_hbond>
-0.581285190263945

> <r_i_glide_metal>
0

> <r_i_glide_rewards>
-2.38489275630953

> <r_i_glide_evdw>
-39.1964149475098

> <r_i_glide_ecoul>
-6.17082691192627

> <r_i_glide_erotb>
0.511370091182575

> <r_i_glide_esite>
-0.0245489170854376

> <r_i_glide_emodel>
-65.5454190864711

> <r_i_glide_energy>
-45.367241859436

> <r_i_glide_einternal>
1.16205334663391

> <i_i_glide_confnum>
28

> <i_i_glide_posenum>
90

> <r_i_glide_eff_state_penalty>
0

> <s_user_duplicate_titles>
CHEMBL2208_lig1338,CHEMBL2208_lig1338

> <s_m_subgroup_title>
dock_pv

> <s_m_subgroupid>
dock_pv

> <b_m_subgroup_collapsed>
1

$$$$
CHEMBL2208_lig966
                    3D
 Schrodinger Suite 2021-1.
 43 45  0  0  1  0            999 V2000
   39.4791    7.6584   18.4340 O   0  0  0  0  0  0
   37.9899    6.0261   17.8138 N   0  0  0  0  0  0
   39.9728    6.6344   13.4719 N   0  0  0  0  0  0
   37.9974    5.2750   13.6160 N   0  0  0  0  0  0
   35.0799    4.8239   24.0598 N   0  0  0  0  0  0
   39.0424    6.4449   15.5312 C   0  0  0  0  0  0
   38.0732    5.9086   16.4193 C   0  0  0  0  0  0
   38.9334    6.0566   14.1567 C   0  0  0  0  0  0
   40.1891    7.3145   15.5941 C   0  0  0  0  0  0
   38.6447    6.8000   18.7050 C   0  0  0  0  0  0
   37.0756    5.1014   15.8596 C   0  0  0  0  0  0
   38.2626    6.5824   20.1841 C   0  0  2  0  0  0
   40.6780    7.4419   14.3166 C   0  0  0  0  0  0
   37.0706    4.8241   14.4942 C   0  0  0  0  0  0
   38.7712    5.1897   20.6390 C   0  0  0  0  0  0
   36.7152    6.6410   20.3267 C   0  0  0  0  0  0
   36.8818    5.1031   22.3866 C   0  0  2  0  0  0
   38.4017    4.9978   22.1226 C   0  0  0  0  0  0
   36.3270    6.4289   21.8004 C   0  0  0  0  0  0
   36.5186    4.8355   23.8766 C   0  0  1  0  0  0
   37.1112    5.8314   24.8911 C   0  0  0  0  0  0
   37.2849    5.4319   18.2199 H   0  0  0  0  0  0
   40.1958    6.5530   12.4876 H   0  0  0  0  0  0
   34.8671    4.6364   25.0285 H   0  0  0  0  0  0
   34.7212    5.7634   23.8723 H   0  0  0  0  0  0
   40.6174    7.8245   16.4403 H   0  0  0  0  0  0
   36.3027    4.6653   16.4772 H   0  0  0  0  0  0
   38.7236    7.4033   20.7369 H   0  0  0  0  0  0
   41.4985    8.0237   13.9327 H   0  0  0  0  0  0
   36.3024    4.1886   14.0755 H   0  0  0  0  0  0
   39.8612    5.1235   20.5881 H   0  0  0  0  0  0
   38.2964    4.3691   20.0970 H   0  0  0  0  0  0
   36.2177    5.8322   19.7873 H   0  0  0  0  0  0
   36.3206    7.6178   20.0385 H   0  0  0  0  0  0
   36.4315    4.3037   21.7939 H   0  0  0  0  0  0
   38.9465    5.7231   22.7287 H   0  0  0  0  0  0
   38.7457    4.0237   22.4648 H   0  0  0  0  0  0
   35.2423    6.4249   21.8722 H   0  0  0  0  0  0
   36.6707    7.2755   22.3967 H   0  0  0  0  0  0
   36.8759    3.8377   24.1356 H   0  0  0  0  0  0
   38.2008    5.8197   24.8717 H   0  0  0  0  0  0
   36.8142    5.5856   25.9113 H   0  0  0  0  0  0
   36.7905    6.8532   24.6927 H   0  0  0  0  0  0
  1 10  2  0  0  0
  2  7  1  0  0  0
  2 10  1  0  0  0
  2 22  1  0  0  0
  3  8  1  0  0  0
  3 13  1  0  0  0
  3 23  1  0  0  0
  4  8  1  0  0  0
  4 14  2  0  0  0
  5 20  1  0  0  0
  5 24  1  0  0  0
  5 25  1  0  0  0
  6  7  1  0  0  0
  6  8  2  0  0  0
  6  9  1  0  0  0
  7 11  2  0  0  0
  9 13  2  0  0  0
  9 26  1  0  0  0
 10 12  1  0  0  0
 11 14  1  0  0  0
 11 27  1  0  0  0
 12 15  1  0  0  0
 12 16  1  0  0  0
 12 28  1  0  0  0
 13 29  1  0  0  0
 14 30  1  0  0  0
 15 18  1  0  0  0
 15 31  1  0  0  0
 15 32  1  0  0  0
 16 19  1  0  0  0
 16 33  1  0  0  0
 16 34  1  0  0  0
 17 18  1  0  0  0
 17 19  1  0  0  0
 17 20  1  0  0  0
 17 35  1  0  0  0
 18 36  1  0  0  0
 18 37  1  0  0  0
 19 38  1  0  0  0
 19 39  1  0  0  0
 20 21  1  0  0  0
 20 40  1  0  0  0
 21 41  1  0  0  0
 21 42  1  0  0  0
 21 43  1  0  0  0
M  END
> <s_m_entry_id>
7528

> <s_m_entry_name>
dock_pv.89

> <s_m_Source_Path>
/home/csk/Desktop/cluster/DUD-E-result/mapk2

> <s_m_Source_File>
dock_pv.maegz

> <i_m_Source_File_Index>
89

> <chembl_id>
CHEMBL2002992

> <chembl_pref_name>
None

> <i_lp_mmshare_version>
53161

> <i_f3d_flags>
0

> <r_lp_tautomer_probability>
0.999998432528457

> <s_lp_Force_Field>
OPLS_2005

> <r_lp_Energy>
23.065195

> <b_lp_Chiralities_Consistent>
1

> <s_lp_Variant>
CHEMBL2208_lig966-2

> <s_i_glide_gridfile>
glide-grid_3m2w

> <i_i_glide_lignum>
1250

> <i_i_glide_rotatable_bonds>
4

> <r_i_docking_score>
-7.39802548790102

> <r_i_glide_ligand_efficiency>
-0.352286927995287

> <r_i_glide_ligand_efficiency_sa>
-0.971932921682874

> <r_i_glide_ligand_efficiency_ln>
-1.82914685276544

> <r_i_glide_gscore>
-7.39802548790102

> <r_i_glide_lipo>
-1.85005389955012

> <r_i_glide_hbond>
-0.592264995806616

> <r_i_glide_metal>
0

> <r_i_glide_rewards>
-2.77132436171939

> <r_i_glide_evdw>
-31.2887725830078

> <r_i_glide_ecoul>
-8.56148815155029

> <r_i_glide_erotb>
0.664279621058043

> <r_i_glide_esite>
0

> <r_i_glide_emodel>
-50.9770839957095

> <r_i_glide_energy>
-39.8502607345581

> <r_i_glide_einternal>
14.2004108428955

> <i_i_glide_confnum>
8

> <i_i_glide_posenum>
360

> <r_i_glide_eff_state_penalty>
0

> <s_user_duplicate_titles>
CHEMBL2208_lig966

> <s_m_subgroup_title>
dock_pv

> <s_m_subgroupid>
dock_pv

> <b_m_subgroup_collapsed>
1

$$$$
CHEMBL2208_lig905
                    3D
 Schrodinger Suite 2021-1.
 29 31  0  0  1  0            999 V2000
   40.6424    8.3823   19.3364 O   0  0  0  0  0  0
   37.8875    5.2249   13.4122 O   0  0  0  0  0  0
   40.8964    8.0240   17.1019 N   0  0  0  0  0  0
   37.1106    7.3621   20.9838 N   0  0  0  0  0  0
   38.6771    6.8611   22.4896 N   0  0  0  0  0  0
   39.1425    6.7571   16.5655 C   0  0  0  0  0  0
   39.1026    7.0355   17.9975 C   0  0  0  0  0  0
   40.2647    7.3749   16.0699 C   0  0  0  0  0  0
   40.2667    7.8726   18.2795 C   0  0  0  0  0  0
   38.3125    6.0249   15.7117 C   0  0  0  0  0  0
   38.1888    6.6344   18.9119 C   0  0  0  0  0  0
   40.6071    7.2924   14.7244 C   0  0  0  0  0  0
   38.6380    5.9133   14.3451 C   0  0  0  0  0  0
   38.1505    6.8354   20.3471 C   0  0  0  0  0  0
   39.7951    6.5431   13.8725 C   0  0  0  0  0  0
   39.1350    6.4809   21.2621 C   0  0  0  0  0  0
   37.4377    7.3870   22.2552 C   0  0  0  0  0  0
   36.7277    4.5204   13.8464 C   0  0  0  0  0  0
   41.7215    8.5933   16.9907 H   0  0  0  0  0  0
   39.1706    6.7823   23.3751 H   0  0  0  0  0  0
   37.4313    5.5458   16.1100 H   0  0  0  0  0  0
   37.3458    6.0590   18.5582 H   0  0  0  0  0  0
   41.4782    7.7931   14.3311 H   0  0  0  0  0  0
   40.0536    6.4675   12.8262 H   0  0  0  0  0  0
   40.1039    6.0142   21.1473 H   0  0  0  0  0  0
   36.8353    7.7542   23.0732 H   0  0  0  0  0  0
   36.2699    4.0251   12.9906 H   0  0  0  0  0  0
   36.9768    3.7506   14.5791 H   0  0  0  0  0  0
   35.9834    5.1942   14.2737 H   0  0  0  0  0  0
  1  9  2  0  0  0
  2 13  1  0  0  0
  2 18  1  0  0  0
  3  8  1  0  0  0
  3  9  1  0  0  0
  3 19  1  0  0  0
  4 14  1  0  0  0
  4 17  2  0  0  0
  5 16  1  0  0  0
  5 17  1  0  0  0
  5 20  1  0  0  0
  6  7  1  0  0  0
  6  8  1  0  0  0
  6 10  2  0  0  0
  7  9  1  0  0  0
  7 11  2  3  0  0
  8 12  2  0  0  0
 10 13  1  0  0  0
 10 21  1  0  0  0
 11 14  1  0  0  0
 11 22  1  0  0  0
 12 15  1  0  0  0
 12 23  1  0  0  0
 13 15  2  0  0  0
 14 16  2  0  0  0
 15 24  1  0  0  0
 16 25  1  0  0  0
 17 26  1  0  0  0
 18 27  1  0  0  0
 18 28  1  0  0  0
 18 29  1  0  0  0
M  END
> <s_m_entry_id>
7530

> <s_m_entry_name>
dock_pv.91

> <s_m_Source_Path>
/home/csk/Desktop/cluster/DUD-E-result/mapk2

> <s_m_Source_File>
dock_pv.maegz

> <i_m_Source_File_Index>
91

> <chembl_id>
CHEMBL2002649

> <chembl_pref_name>
None

> <i_lp_mmshare_version>
53161

> <i_f3d_flags>
0

> <r_lp_tautomer_probability>
1

> <s_lp_Force_Field>
OPLS_2005

> <r_lp_Energy>
36.825409

> <b_lp_Chiralities_Consistent>
1

> <s_lp_Variant>
CHEMBL2208_lig905-1

> <s_i_glide_gridfile>
glide-grid_3m2w

> <i_i_glide_lignum>
1158

> <i_i_glide_rotatable_bonds>
2

> <r_i_docking_score>
-7.39356400924189

> <r_i_glide_ligand_efficiency>
-0.410753556068994

> <r_i_glide_ligand_efficiency_sa>
-1.07647884617138

> <r_i_glide_ligand_efficiency_ln>
-1.90047750429902

> <r_i_glide_gscore>
-7.39356400924189

> <r_i_glide_lipo>
-2.05317855360939

> <r_i_glide_hbond>
-0.119333750289356

> <r_i_glide_metal>
0

> <r_i_glide_rewards>
-2.24218029952653

> <r_i_glide_evdw>
-33.4381980895996

> <r_i_glide_ecoul>
-8.19380950927734

> <r_i_glide_erotb>
0

> <r_i_glide_esite>
-0.0778900749450333

> <r_i_glide_emodel>
-57.9136951374263

> <r_i_glide_energy>
-41.632007598877

> <r_i_glide_einternal>
5.96953916549683

> <i_i_glide_confnum>
1

> <i_i_glide_posenum>
347

> <r_i_glide_eff_state_penalty>
0

> <s_user_duplicate_titles>
CHEMBL2208_lig905,CHEMBL2208_lig905

> <s_m_subgroup_title>
dock_pv

> <s_m_subgroupid>
dock_pv

> <b_m_subgroup_collapsed>
1

$$$$
CHEMBL2208_lig51
                    3D
 Schrodinger Suite 2021-1.
 31 33  0  0  1  0            999 V2000
   38.2263    6.0266   15.2569 C   0  0  0  0  0  0
   37.2788    5.4110   16.1047 C   0  0  0  0  0  0
   37.3233    5.6194   17.4934 C   0  0  0  0  0  0
   38.2550    6.5362   17.9950 C   0  0  0  0  0  0
   38.2765    6.8998   19.3219 O   0  0  0  0  0  0
   39.2026    6.8794   15.8093 C   0  0  0  0  0  0
   37.7765    6.0371   20.2745 C   0  0  0  0  0  0
   39.2018    7.1358   17.1753 C   0  0  0  0  0  0
   38.2342    6.1920   21.5881 C   0  0  0  0  0  0
   36.8786    5.0146   19.9289 C   0  0  0  0  0  0
   36.4162    4.8769   18.4828 C   0  0  0  0  0  0
   38.1793    5.7998   13.8130 C   0  0  0  0  0  0
   38.1373    5.6248   12.6725 N   0  0  0  0  0  0
   37.7963    5.3004   22.5740 C   0  0  0  0  0  0
   36.4134    4.1720   20.9429 C   0  0  0  0  0  0
   36.2781    4.5702   15.5933 N   0  0  0  0  0  0
   40.1845    7.5178   15.0415 N   0  0  0  0  0  0
   36.8722    4.3084   22.2525 C   0  0  0  0  0  0
   39.0789    7.2297   21.9056 O   0  0  0  0  0  0
   38.2780    5.3680   23.8560 O   0  0  0  0  0  0
   39.9204    7.8145   17.6097 H   0  0  0  0  0  0
   35.3920    5.2245   18.3817 H   0  0  0  0  0  0
   36.4040    3.8158   18.2274 H   0  0  0  0  0  0
   35.7134    3.3816   20.7109 H   0  0  0  0  0  0
   35.4041    4.5348   16.1110 H   0  0  0  0  0  0
   36.2485    4.4260   14.5944 H   0  0  0  0  0  0
   40.8417    8.1419   15.4866 H   0  0  0  0  0  0
   40.2359    7.3362   14.0489 H   0  0  0  0  0  0
   36.5278    3.6262   23.0160 H   0  0  0  0  0  0
   39.3625    7.2209   22.8293 H   0  0  0  0  0  0
   39.2438    5.2915   23.8727 H   0  0  0  0  0  0
  1  2  2  0  0  0
  1  6  1  0  0  0
  1 12  1  0  0  0
  2  3  1  0  0  0
  2 16  1  0  0  0
  3 11  1  0  0  0
  3  4  2  0  0  0
  4  8  1  0  0  0
  4  5  1  0  0  0
  5  7  1  0  0  0
  6  8  2  0  0  0
  6 17  1  0  0  0
  7  9  2  0  0  0
  7 10  1  0  0  0
  8 21  1  0  0  0
  9 14  1  0  0  0
  9 19  1  0  0  0
 10 11  1  0  0  0
 10 15  2  0  0  0
 11 22  1  0  0  0
 11 23  1  0  0  0
 12 13  3  0  0  0
 14 20  1  0  0  0
 14 18  2  0  0  0
 15 18  1  0  0  0
 15 24  1  0  0  0
 16 25  1  0  0  0
 16 26  1  0  0  0
 17 27  1  0  0  0
 17 28  1  0  0  0
 18 29  1  0  0  0
 19 30  1  0  0  0
 20 31  1  0  0  0
M  END
> <s_m_entry_id>
7531

> <s_m_entry_name>
dock_pv.92

> <s_m_Source_Path>
/home/csk/Desktop/cluster/DUD-E-result/mapk2

> <s_m_Source_File>
dock_pv.maegz

> <i_m_Source_File_Index>
92

> <chembl_id>
CHEMBL3706779

> <chembl_pref_name>
None

> <i_lp_mmshare_version>
53161

> <i_f3d_flags>
0

> <r_lp_tautomer_probability>
0.999999999957461

> <s_lp_Force_Field>
OPLS_2005

> <r_lp_Energy>
23.246401

> <b_lp_Chiralities_Consistent>
1

> <s_lp_Variant>
CHEMBL2208_lig51-1

> <s_i_glide_gridfile>
glide-grid_3m2w

> <i_i_glide_lignum>
57

> <i_i_glide_rotatable_bonds>
2

> <r_i_docking_score>
-7.39314325591102

> <r_i_glide_ligand_efficiency>
-0.369657162795551

> <r_i_glide_ligand_efficiency_sa>
-1.00340391379076

> <r_i_glide_ligand_efficiency_ln>
-1.85025991477032

> <r_i_glide_gscore>
-7.39314325591102

> <r_i_glide_lipo>
-1.42017350521034

> <r_i_glide_hbond>
-0.629171675895872

> <r_i_glide_metal>
0

> <r_i_glide_rewards>
-2.03280178434491

> <r_i_glide_evdw>
-29.401985168457

> <r_i_glide_ecoul>
-12.0397348403931

> <r_i_glide_erotb>
0

> <r_i_glide_esite>
-0.0349368059780891

> <r_i_glide_emodel>
-60.1480121923876

> <r_i_glide_energy>
-41.4417200088501

> <r_i_glide_einternal>
1.94001412391663

> <i_i_glide_confnum>
1

> <i_i_glide_posenum>
205

> <r_i_glide_eff_state_penalty>
0

> <s_user_duplicate_titles>
CHEMBL2208_lig51

> <s_m_subgroup_title>
dock_pv

> <s_m_subgroupid>
dock_pv

> <b_m_subgroup_collapsed>
1

$$$$
CHEMBL2208_lig1562
                    3D
 Schrodinger Suite 2021-1.
 36 40  0  0  1  0            999 V2000
   37.5562    6.0659   22.3053 N   0  0  0  0  0  0
   39.5571    7.2204   18.5530 N   0  0  0  0  0  0
   36.6939    5.8295   21.2896 N   0  0  0  0  0  0
   39.8670    8.4337   19.0255 N   0  0  0  0  0  0
   35.6772    5.0217   21.7435 N   0  0  0  0  0  0
   39.6100    8.4184   20.3829 N   0  0  0  0  0  0
   39.4266    6.0249   13.1622 N   0  0  0  0  0  0
   38.2784    5.3244   13.0720 N   0  0  0  0  0  0
   37.0724    5.4959   23.4712 C   0  0  0  0  0  0
   39.5978    6.9334   17.1745 C   0  0  0  0  0  0
   39.1558    7.2227   20.7162 C   0  0  0  0  0  0
   35.8871    4.8249   23.0760 C   0  0  0  0  0  0
   38.6088    5.9190   15.2256 C   0  0  0  0  0  0
   38.7422    6.9164   22.1486 C   0  0  0  0  0  0
   39.1525    6.4155   19.5861 C   0  0  0  0  0  0
   39.6663    6.4516   14.4506 C   0  0  0  0  0  0
   38.5785    6.1585   16.6065 C   0  0  0  0  0  0
   40.6261    7.4543   16.3809 C   0  0  0  0  0  0
   37.5136    5.4986   24.7995 C   0  0  0  0  0  0
   40.6779    7.2377   15.0043 C   0  0  0  0  0  0
   35.1211    4.1271   24.0193 C   0  0  0  0  0  0
   37.7928    5.2302   14.2811 C   0  0  0  0  0  0
   36.7104    4.8267   25.7256 C   0  0  0  0  0  0
   35.5455    4.1531   25.3488 C   0  0  0  0  0  0
   39.9902    6.2208   12.3432 H   0  0  0  0  0  0
   38.5429    7.8326   22.7061 H   0  0  0  0  0  0
   39.5618    6.4248   22.6730 H   0  0  0  0  0  0
   38.8640    5.3872   19.4284 H   0  0  0  0  0  0
   37.7707    5.7667   17.2091 H   0  0  0  0  0  0
   41.4009    8.0531   16.8381 H   0  0  0  0  0  0
   38.4222    6.0046   25.0969 H   0  0  0  0  0  0
   41.4594    7.6732   14.4009 H   0  0  0  0  0  0
   34.2195    3.6095   23.7295 H   0  0  0  0  0  0
   36.8782    4.6864   14.4693 H   0  0  0  0  0  0
   37.0066    4.8113   26.7638 H   0  0  0  0  0  0
   34.9687    3.6355   26.1021 H   0  0  0  0  0  0
  1  3  1  0  0  0
  1  9  1  0  0  0
  1 14  1  0  0  0
  2  4  1  0  0  0
  2 10  1  0  0  0
  2 15  1  0  0  0
  3  5  2  0  0  0
  4  6  2  0  0  0
  5 12  1  0  0  0
  6 11  1  0  0  0
  7  8  1  0  0  0
  7 16  1  0  0  0
  7 25  1  0  0  0
  8 22  2  0  0  0
  9 12  1  0  0  0
  9 19  2  0  0  0
 10 17  1  0  0  0
 10 18  2  0  0  0
 11 14  1  0  0  0
 11 15  2  0  0  0
 12 21  2  0  0  0
 13 16  1  0  0  0
 13 17  2  0  0  0
 13 22  1  0  0  0
 14 26  1  0  0  0
 14 27  1  0  0  0
 15 28  1  0  0  0
 16 20  2  0  0  0
 17 29  1  0  0  0
 18 20  1  0  0  0
 18 30  1  0  0  0
 19 23  1  0  0  0
 19 31  1  0  0  0
 20 32  1  0  0  0
 21 24  1  0  0  0
 21 33  1  0  0  0
 22 34  1  0  0  0
 23 24  2  0  0  0
 23 35  1  0  0  0
 24 36  1  0  0  0
M  END
> <s_m_entry_id>
7532

> <s_m_entry_name>
dock_pv.93

> <s_m_Source_Path>
/home/csk/Desktop/cluster/DUD-E-result/mapk2

> <s_m_Source_File>
dock_pv.maegz

> <i_m_Source_File_Index>
93

> <chembl_id>
CHEMBL1966069

> <chembl_pref_name>
None

> <i_lp_mmshare_version>
53161

> <i_f3d_flags>
0

> <r_lp_tautomer_probability>
1

> <s_lp_Force_Field>
OPLS_2005

> <r_lp_Energy>
13.587688

> <b_lp_Chiralities_Consistent>
1

> <s_lp_Variant>
CHEMBL2208_lig1562-1

> <s_i_glide_gridfile>
glide-grid_3m2w

> <i_i_glide_lignum>
2181

> <i_i_glide_rotatable_bonds>
3

> <r_i_docking_score>
-7.39298474989943

> <r_i_glide_ligand_efficiency>
-0.30804103124581

> <r_i_glide_ligand_efficiency_sa>
-0.88854408896136

> <r_i_glide_ligand_efficiency_ln>
-1.7694804926158

> <r_i_glide_gscore>
-7.39298474989943

> <r_i_glide_lipo>
-2.33664943199281

> <r_i_glide_hbond>
-0.527623717848196

> <r_i_glide_metal>
0

> <r_i_glide_rewards>
-2.10519247602118

> <r_i_glide_evdw>
-42.2036094665527

> <r_i_glide_ecoul>
-5.33866119384766

> <r_i_glide_erotb>
0.558127239613655

> <r_i_glide_esite>
-0.0706667112461208

> <r_i_glide_emodel>
-67.1970823059738

> <r_i_glide_energy>
-47.5422706604004

> <r_i_glide_einternal>
3.3023829460144

> <i_i_glide_confnum>
8

> <i_i_glide_posenum>
326

> <r_i_glide_eff_state_penalty>
0

> <s_user_duplicate_titles>
CHEMBL2208_lig1562

> <s_m_subgroup_title>
dock_pv

> <s_m_subgroupid>
dock_pv

> <b_m_subgroup_collapsed>
1

$$$$
CHEMBL2208_lig170
                    3D
 Schrodinger Suite 2021-1.
 41 44  0  0  1  0            999 V2000
   37.1841    5.4013   23.7715 C   0  0  0  0  0  0
   38.2531    5.9976   24.4494 C   0  0  0  0  0  0
   38.2783    6.0227   25.8405 C   0  0  0  0  0  0
   37.2370    5.4418   26.5583 C   0  0  0  0  0  0
   36.1788    4.8247   25.8927 C   0  0  0  0  0  0
   36.1569    4.7939   24.4989 C   0  0  0  0  0  0
   39.9355    7.5334   16.2488 C   0  0  1  0  0  0
   36.4098    5.0124   19.5887 C   0  0  0  0  0  0
   37.4077    5.9006   20.0159 C   0  0  0  0  0  0
   38.2543    6.4933   19.0669 C   0  0  0  0  0  0
   36.2091    4.7025   18.2437 C   0  0  0  0  0  0
   37.0529    5.3129   17.3133 C   0  0  0  0  0  0
   38.0936    6.1985   17.7045 C   0  0  0  0  0  0
   37.1031    5.2223   15.9382 N   0  0  0  0  0  0
   38.1732    5.9286   15.4411 C   0  0  0  0  0  0
   38.7710    6.5976   16.5039 C   0  0  0  0  0  0
   40.6780    6.9764   15.0006 C   0  0  0  0  0  0
   39.7476    6.6510   13.8964 N   0  0  0  0  0  0
   38.5534    6.0232   14.0435 C   0  0  0  0  0  0
   37.9403    5.6240   13.0565 O   0  0  0  0  0  0
   39.4685    8.9908   16.0962 C   0  0  0  0  0  0
   37.5731    6.2525   21.4788 C   0  0  0  0  0  0
   37.1149    5.3406   22.3696 N   0  0  0  0  0  0
   38.0965    7.3246   21.7937 O   0  0  0  0  0  0
   37.2614    5.4695   27.9094 F   0  0  0  0  0  0
   39.0773    6.4249   23.8999 H   0  0  0  0  0  0
   39.1095    6.4874   26.3499 H   0  0  0  0  0  0
   35.3804    4.3677   26.4579 H   0  0  0  0  0  0
   35.3328    4.3116   23.9902 H   0  0  0  0  0  0
   40.6260    7.4877   17.0913 H   0  0  0  0  0  0
   35.7401    4.5502   20.2996 H   0  0  0  0  0  0
   39.0324    7.1760   19.3783 H   0  0  0  0  0  0
   35.4223    4.0285   17.9379 H   0  0  0  0  0  0
   36.4920    4.6837   15.3387 H   0  0  0  0  0  0
   41.2122    6.0637   15.2700 H   0  0  0  0  0  0
   41.4245    7.6857   14.6456 H   0  0  0  0  0  0
   40.0462    6.8300   12.9484 H   0  0  0  0  0  0
   39.0742    9.3744   17.0376 H   0  0  0  0  0  0
   40.2779    9.6521   15.7981 H   0  0  0  0  0  0
   38.6865    9.0880   15.3423 H   0  0  0  0  0  0
   36.6485    4.5284   21.9975 H   0  0  0  0  0  0
  1  6  1  0  0  0
  1  2  2  0  0  0
  1 23  1  0  0  0
  2  3  1  0  0  0
  2 26  1  0  0  0
  3  4  2  0  0  0
  3 27  1  0  0  0
  4  5  1  0  0  0
  4 25  1  0  0  0
  5  6  2  0  0  0
  5 28  1  0  0  0
  6 29  1  0  0  0
  7 16  1  0  0  0
  7 17  1  0  0  0
  7 21  1  0  0  0
  7 30  1  0  0  0
  8  9  2  0  0  0
  8 11  1  0  0  0
  8 31  1  0  0  0
  9 10  1  0  0  0
  9 22  1  0  0  0
 10 13  2  0  0  0
 10 32  1  0  0  0
 11 12  2  0  0  0
 11 33  1  0  0  0
 12 14  1  0  0  0
 12 13  1  0  0  0
 13 16  1  0  0  0
 14 15  1  0  0  0
 14 34  1  0  0  0
 15 16  2  0  0  0
 15 19  1  0  0  0
 17 18  1  0  0  0
 17 35  1  0  0  0
 17 36  1  0  0  0
 18 19  1  0  0  0
 18 37  1  0  0  0
 19 20  2  0  0  0
 21 38  1  0  0  0
 21 39  1  0  0  0
 21 40  1  0  0  0
 22 23  1  0  0  0
 22 24  2  0  0  0
 23 41  1  0  0  0
M  END
> <s_m_entry_id>
7533

> <s_m_entry_name>
dock_pv.94

> <s_m_Source_Path>
/home/csk/Desktop/cluster/DUD-E-result/mapk2

> <s_m_Source_File>
dock_pv.maegz

> <i_m_Source_File_Index>
94

> <chembl_id>
CHEMBL395593

> <chembl_pref_name>
None

> <i_lp_mmshare_version>
53161

> <i_f3d_flags>
0

> <r_lp_tautomer_probability>
1

> <s_lp_Force_Field>
OPLS_2005

> <r_lp_Energy>
30.665552

> <b_lp_Chiralities_Consistent>
1

> <s_lp_Variant>
CHEMBL2208_lig170-2

> <s_i_glide_gridfile>
glide-grid_3m2w

> <i_i_glide_lignum>
261

> <i_i_glide_rotatable_bonds>
3

> <r_i_docking_score>
-7.39194972725046

> <r_i_glide_ligand_efficiency>
-0.295677989090018

> <r_i_glide_ligand_efficiency_sa>
-0.864567683970679

> <r_i_glide_ligand_efficiency_ln>
-1.75211360421621

> <r_i_glide_gscore>
-7.39194972725046

> <r_i_glide_lipo>
-2.23232652387173

> <r_i_glide_hbond>
-0.150832894707715

> <r_i_glide_metal>
0

> <r_i_glide_rewards>
-2.60048621120874

> <r_i_glide_evdw>
-41.1437683105469

> <r_i_glide_ecoul>
-5.50329780578613

> <r_i_glide_erotb>
0.498176077279357

> <r_i_glide_esite>
-0.0237970883463652

> <r_i_glide_emodel>
-65.9845664950856

> <r_i_glide_energy>
-46.647066116333

> <r_i_glide_einternal>
3.24304556846619

> <i_i_glide_confnum>
10

> <i_i_glide_posenum>
361

> <r_i_glide_eff_state_penalty>
0

> <s_user_duplicate_titles>
CHEMBL2208_lig170

> <s_m_subgroup_title>
dock_pv

> <s_m_subgroupid>
dock_pv

> <b_m_subgroup_collapsed>
1

$$$$
CHEMBL2208_lig1172
                    3D
 Schrodinger Suite 2021-1.
 52 55  0  0  1  0            999 V2000
   36.3755    6.0461   21.5999 O   0  0  0  0  0  0
   39.8779    6.2773   13.4713 N   0  0  0  0  0  0
   38.7676    5.6251   13.0792 N   0  0  0  0  0  0
   39.0595    8.4250   20.9883 N   0  0  0  0  0  0
   34.1607    2.4296   20.4735 N   0  0  0  0  0  0
   38.6153    6.0604   15.2839 C   0  0  0  0  0  0
   39.8478    6.5705   14.8176 C   0  0  0  0  0  0
   39.1518    6.8845   17.5062 C   0  0  0  0  0  0
   38.2668    6.2324   16.6308 C   0  0  0  0  0  0
   38.0152    5.4494   14.1376 C   0  0  0  0  0  0
   38.7813    7.1235   18.9430 C   0  0  0  0  0  0
   40.7477    7.2221   15.6592 C   0  0  0  0  0  0
   40.3783    7.3422   16.9980 C   0  0  0  0  0  0
   37.7760    6.3806   19.5886 C   0  0  0  0  0  0
   37.3892    6.6757   20.9070 C   0  0  0  0  0  0
   39.3819    8.1408   19.7033 C   0  0  0  0  0  0
   38.0738    7.6965   21.5644 C   0  0  0  0  0  0
   36.7222    4.6674   14.0510 C   0  0  0  0  0  0
   35.6584    4.9809   20.9865 C   0  0  0  0  0  0
   34.7186    4.3109   22.0185 C   0  0  2  0  0  0
   35.4939    3.4956   23.0855 C   0  0  0  0  0  0
   36.2424    4.3392   24.1091 C   0  0  0  0  0  0
   33.6167    3.4658   21.3362 C   0  0  0  0  0  0
   37.6021    4.6162   23.9350 C   0  0  0  0  0  0
   35.5683    4.8252   25.2331 C   0  0  0  0  0  0
   38.2770    5.3977   24.8683 C   0  0  0  0  0  0
   36.2458    5.6036   26.1693 C   0  0  0  0  0  0
   37.5969    5.8892   25.9798 C   0  0  0  0  0  0
   40.6024    6.5002   12.7972 H   0  0  0  0  0  0
   34.6785    1.7381   21.0151 H   0  0  0  0  0  0
   33.4141    1.9064   20.0405 H   0  0  0  0  0  0
   37.3074    5.8715   16.9661 H   0  0  0  0  0  0
   41.6857    7.6243   15.3023 H   0  0  0  0  0  0
   41.0847    7.8304   17.6495 H   0  0  0  0  0  0
   37.2821    5.5817   19.0604 H   0  0  0  0  0  0
   40.1352    8.7880   19.2841 H   0  0  0  0  0  0
   37.8260    7.9420   22.5867 H   0  0  0  0  0  0
   35.8859    5.2158   14.4872 H   0  0  0  0  0  0
   36.4444    4.4243   13.0238 H   0  0  0  0  0  0
   36.8008    3.7118   14.5784 H   0  0  0  0  0  0
   36.3404    4.2335   20.5762 H   0  0  0  0  0  0
   35.0778    5.3855   20.1579 H   0  0  0  0  0  0
   34.1884    5.1091   22.5415 H   0  0  0  0  0  0
   36.1969    2.8249   22.5904 H   0  0  0  0  0  0
   34.8171    2.8372   23.6307 H   0  0  0  0  0  0
   32.9717    3.0053   22.0866 H   0  0  0  0  0  0
   32.9745    4.1112   20.7357 H   0  0  0  0  0  0
   38.1324    4.2439   23.0696 H   0  0  0  0  0  0
   34.5198    4.6098   25.3760 H   0  0  0  0  0  0
   39.3236    5.6255   24.7215 H   0  0  0  0  0  0
   35.7242    5.9868   27.0344 H   0  0  0  0  0  0
   38.1293    6.5020   26.6939 H   0  0  0  0  0  0
  1 15  1  0  0  0
  1 19  1  0  0  0
  2  3  1  0  0  0
  2  7  1  0  0  0
  2 29  1  0  0  0
  3 10  2  0  0  0
  4 16  1  0  0  0
  4 17  2  0  0  0
  5 23  1  0  0  0
  5 30  1  0  0  0
  5 31  1  0  0  0
  6  7  1  0  0  0
  6  9  2  0  0  0
  6 10  1  0  0  0
  7 12  2  0  0  0
  8  9  1  0  0  0
  8 11  1  0  0  0
  8 13  2  0  0  0
  9 32  1  0  0  0
 10 18  1  0  0  0
 11 14  1  0  0  0
 11 16  2  0  0  0
 12 13  1  0  0  0
 12 33  1  0  0  0
 13 34  1  0  0  0
 14 15  2  0  0  0
 14 35  1  0  0  0
 15 17  1  0  0  0
 16 36  1  0  0  0
 17 37  1  0  0  0
 18 38  1  0  0  0
 18 39  1  0  0  0
 18 40  1  0  0  0
 19 20  1  0  0  0
 19 41  1  0  0  0
 19 42  1  0  0  0
 20 21  1  0  0  0
 20 23  1  0  0  0
 20 43  1  0  0  0
 21 22  1  0  0  0
 21 44  1  0  0  0
 21 45  1  0  0  0
 22 24  2  0  0  0
 22 25  1  0  0  0
 23 46  1  0  0  0
 23 47  1  0  0  0
 24 26  1  0  0  0
 24 48  1  0  0  0
 25 27  2  0  0  0
 25 49  1  0  0  0
 26 28  2  0  0  0
 26 50  1  0  0  0
 27 28  1  0  0  0
 27 51  1  0  0  0
 28 52  1  0  0  0
M  END
> <s_m_entry_id>
7534

> <s_m_entry_name>
dock_pv.95

> <s_m_Source_Path>
/home/csk/Desktop/cluster/DUD-E-result/mapk2

> <s_m_Source_File>
dock_pv.maegz

> <i_m_Source_File_Index>
95

> <chembl_id>
CHEMBL2000271

> <chembl_pref_name>
None

> <i_lp_mmshare_version>
53161

> <i_f3d_flags>
0

> <r_lp_tautomer_probability>
0.980392156862745

> <s_lp_Force_Field>
OPLS_2005

> <r_lp_Energy>
23.354917

> <b_lp_Chiralities_Consistent>
1

> <s_lp_Variant>
CHEMBL2208_lig1172-1

> <s_i_glide_gridfile>
glide-grid_3m2w

> <i_i_glide_lignum>
1577

> <i_i_glide_rotatable_bonds>
7

> <r_i_docking_score>
-7.38751176955534

> <r_i_glide_ligand_efficiency>
-0.263839706055548

> <r_i_glide_ligand_efficiency_sa>
-0.801172740861303

> <r_i_glide_ligand_efficiency_ln>
-1.70525462318412

> <r_i_glide_gscore>
-7.38751176955534

> <r_i_glide_lipo>
-2.47261658953927

> <r_i_glide_hbond>
-0.669564750278138

> <r_i_glide_metal>
0

> <r_i_glide_rewards>
-1.74640559838218

> <r_i_glide_evdw>
-43.9739189147949

> <r_i_glide_ecoul>
-5.2500958442688

> <r_i_glide_erotb>
0.487285491024317

> <r_i_glide_esite>
0

> <r_i_glide_emodel>
-70.278671600048

> <r_i_glide_energy>
-49.2240147590637

> <r_i_glide_einternal>
2.88762235641479

> <i_i_glide_confnum>
99

> <i_i_glide_posenum>
359

> <r_i_glide_eff_state_penalty>
0

> <s_user_duplicate_titles>
CHEMBL2208_lig1172

> <s_m_subgroup_title>
dock_pv

> <s_m_subgroupid>
dock_pv

> <b_m_subgroup_collapsed>
1

$$$$
CHEMBL2208_lig112
                    3D
 Schrodinger Suite 2021-1.
 36 39  0  0  1  0            999 V2000
   37.3671    5.5512   20.9023 C   0  0  0  0  0  0
   36.2845    4.7721   20.4990 C   0  0  0  0  0  0
   35.9494    4.5847   19.1577 C   0  0  0  0  0  0
   38.1752    6.1824   19.9414 C   0  0  0  0  0  0
   37.8733    6.0280   18.5794 C   0  0  0  0  0  0
   36.7528    5.2264   18.2129 C   0  0  0  0  0  0
   36.6779    5.2562   16.8387 N   0  0  0  0  0  0
   38.4404    6.5317   17.3584 C   0  0  0  0  0  0
   37.6865    6.0239   16.3164 C   0  0  0  0  0  0
   37.9358    6.3908   14.8372 C   0  0  1  0  0  0
   39.1661    7.2283   14.7068 N   0  0  1  0  0  0
   39.2305    8.2453   15.7708 C   0  0  0  0  0  0
   39.6290    7.4314   17.0217 C   0  0  2  0  0  0
   37.8334    5.2252   13.8186 C   0  0  0  0  0  0
   37.1674    4.1258   14.2733 O   0  0  0  0  0  0
   38.2779    5.3068   12.6754 O   0  0  0  0  0  0
   37.5596    5.6462   22.2645 O   0  0  0  0  0  0
   38.6777    6.3716   22.7598 C   0  0  0  0  0  0
   40.7716    6.6038   16.4388 C   0  0  0  0  0  0
   40.4262    6.5089   14.9381 C   0  0  0  0  0  0
   35.6834    4.2917   21.2608 H   0  0  0  0  0  0
   35.1004    3.9800   18.8722 H   0  0  0  0  0  0
   39.0186    6.7883   20.2328 H   0  0  0  0  0  0
   35.9808    4.8105   16.2561 H   0  0  0  0  0  0
   37.0976    6.9829   14.4767 H   0  0  0  0  0  0
   38.3009    8.7931   15.9092 H   0  0  0  0  0  0
   39.9951    8.9868   15.5307 H   0  0  0  0  0  0
   39.9025    8.0456   17.8800 H   0  0  0  0  0  0
   37.2398    3.4082   13.6258 H   0  0  0  0  0  0
   38.7542    6.2191   23.8374 H   0  0  0  0  0  0
   39.6083    6.0251   22.3078 H   0  0  0  0  0  0
   38.5737    7.4414   22.5738 H   0  0  0  0  0  0
   40.8213    5.6266   16.9129 H   0  0  0  0  0  0
   41.7228    7.1160   16.5818 H   0  0  0  0  0  0
   40.4032    5.4773   14.5823 H   0  0  0  0  0  0
   41.1933    7.0085   14.3504 H   0  0  0  0  0  0
  1  4  1  0  0  0
  1 17  1  0  0  0
  1  2  2  0  0  0
  2  3  1  0  0  0
  2 21  1  0  0  0
  3  6  2  0  0  0
  3 22  1  0  0  0
  4  5  2  0  0  0
  4 23  1  0  0  0
  5  6  1  0  0  0
  5  8  1  0  0  0
  6  7  1  0  0  0
  7  9  1  0  0  0
  7 24  1  0  0  0
  8 13  1  0  0  0
  8  9  2  0  0  0
  9 10  1  0  0  0
 10 11  1  0  0  0
 10 14  1  0  0  0
 10 25  1  0  0  0
 11 12  1  0  0  0
 11 20  1  0  0  0
 12 13  1  0  0  0
 12 26  1  0  0  0
 12 27  1  0  0  0
 13 19  1  0  0  0
 13 28  1  0  0  0
 14 15  1  0  0  0
 14 16  2  0  0  0
 15 29  1  0  0  0
 17 18  1  0  0  0
 18 30  1  0  0  0
 18 31  1  0  0  0
 18 32  1  0  0  0
 19 20  1  0  0  0
 19 33  1  0  0  0
 19 34  1  0  0  0
 20 35  1  0  0  0
 20 36  1  0  0  0
M  END
> <s_m_entry_id>
7535

> <s_m_entry_name>
dock_pv.96

> <s_m_Source_Path>
/home/csk/Desktop/cluster/DUD-E-result/mapk2

> <s_m_Source_File>
dock_pv.maegz

> <i_m_Source_File_Index>
96

> <chembl_id>
CHEMBL392876

> <chembl_pref_name>
None

> <i_lp_mmshare_version>
53161

> <i_f3d_flags>
0

> <r_lp_tautomer_probability>
1

> <s_lp_Force_Field>
OPLS_2005

> <r_lp_Energy>
47.803585

> <b_lp_Chiralities_Consistent>
1

> <s_lp_Variant>
CHEMBL2208_lig112-2

> <s_i_glide_gridfile>
glide-grid_3m2w

> <i_i_glide_lignum>
135

> <i_i_glide_rotatable_bonds>
3

> <r_i_docking_score>
-7.38179701066964

> <r_i_glide_ligand_efficiency>
-0.369089850533482

> <r_i_glide_ligand_efficiency_sa>
-1.00186399139403

> <r_i_glide_ligand_efficiency_ln>
-1.84742032381061

> <r_i_glide_gscore>
-7.38179701066964

> <r_i_glide_lipo>
-2.08145216037497

> <r_i_glide_hbond>
-0.339924802917496

> <r_i_glide_metal>
0

> <r_i_glide_rewards>
-2.40068978224455

> <r_i_glide_evdw>
-25.9939994812012

> <r_i_glide_ecoul>
-9.9141788482666

> <r_i_glide_erotb>
0.241672804358751

> <r_i_glide_esite>
-0.014576268191323

> <r_i_glide_emodel>
-51.1502941829015

> <r_i_glide_energy>
-35.9081783294678

> <r_i_glide_einternal>
1.38208997249603

> <i_i_glide_confnum>
1

> <i_i_glide_posenum>
369

> <r_i_glide_eff_state_penalty>
0

> <s_user_duplicate_titles>
CHEMBL2208_lig112,412439

> <s_m_subgroup_title>
dock_pv

> <s_m_subgroupid>
dock_pv

> <b_m_subgroup_collapsed>
1

$$$$
CHEMBL2208_lig885
                    3D
 Schrodinger Suite 2021-1.
 42 44  0  0  1  0            999 V2000
   39.9372    6.5340   14.7216 S   0  0  0  0  0  0
   38.4021    5.6214   12.7113 O   0  0  0  0  0  0
   37.1947    4.7092   24.6087 O   0  0  0  0  0  0
   37.5607    5.5398   14.9278 N   0  0  0  0  0  0
   39.2340    6.9292   18.6931 N   0  0  0  0  0  0
   40.9021    8.3305   19.7202 N   0  0  0  0  0  0
   39.3105    7.2981   21.0631 N   0  0  0  0  0  0
   39.0963    6.5760   16.2735 C   0  0  0  0  0  0
   37.8769    5.9939   16.1874 C   0  0  0  0  0  0
   39.7613    7.1943   17.4621 C   0  0  0  0  0  0
   38.4913    5.8107   13.9242 C   0  0  0  0  0  0
   39.8135    7.5230   19.7742 C   0  0  0  0  0  0
   40.8808    8.0248   17.3322 C   0  0  0  0  0  0
   36.3239    4.8362   14.5548 C   0  0  0  0  0  0
   36.8390    5.8468   17.2976 C   0  0  0  0  0  0
   41.4292    8.5640   18.4917 C   0  0  0  0  0  0
   38.2094    6.5661   21.5386 C   0  0  0  0  0  0
   38.2775    6.0240   22.8245 C   0  0  0  0  0  0
   37.2184    5.2654   23.3458 C   0  0  0  0  0  0
   37.0434    6.3888   20.7898 C   0  0  0  0  0  0
   36.2553    3.3904   15.0677 C   0  0  0  0  0  0
   36.0902    5.0558   22.5528 C   0  0  0  0  0  0
   35.9936    5.6196   21.2828 C   0  0  0  0  0  0
   38.3186    4.8707   25.4658 C   0  0  0  0  0  0
   39.8919    7.6648   21.8018 H   0  0  0  0  0  0
   41.3145    8.2514   16.3702 H   0  0  0  0  0  0
   36.1999    4.8121   13.4710 H   0  0  0  0  0  0
   35.4779    5.4066   14.9228 H   0  0  0  0  0  0
   37.2249    5.1967   18.0813 H   0  0  0  0  0  0
   36.6268    6.8252   17.7177 H   0  0  0  0  0  0
   35.8785    5.4427   16.9970 H   0  0  0  0  0  0
   42.2903    9.2158   18.4430 H   0  0  0  0  0  0
   39.1696    6.1832   23.4092 H   0  0  0  0  0  0
   36.9450    6.8577   19.8286 H   0  0  0  0  0  0
   35.3287    2.9143   14.7460 H   0  0  0  0  0  0
   36.2784    3.3334   16.1556 H   0  0  0  0  0  0
   37.0766    2.7964   14.6721 H   0  0  0  0  0  0
   35.2702    4.4699   22.9394 H   0  0  0  0  0  0
   35.1056    5.4679   20.6901 H   0  0  0  0  0  0
   38.0950    4.4321   26.4375 H   0  0  0  0  0  0
   39.1926    4.3516   25.0730 H   0  0  0  0  0  0
   38.5643    5.9229   25.6268 H   0  0  0  0  0  0
  1  8  1  0  0  0
  1 11  1  0  0  0
  2 11  2  0  0  0
  3 19  1  0  0  0
  3 24  1  0  0  0
  4  9  1  0  0  0
  4 11  1  0  0  0
  4 14  1  0  0  0
  5 10  1  0  0  0
  5 12  2  0  0  0
  6 12  1  0  0  0
  6 16  2  0  0  0
  7 12  1  0  0  0
  7 17  1  0  0  0
  7 25  1  0  0  0
  8  9  2  0  0  0
  8 10  1  0  0  0
  9 15  1  0  0  0
 10 13  2  0  0  0
 13 16  1  0  0  0
 13 26  1  0  0  0
 14 21  1  0  0  0
 14 27  1  0  0  0
 14 28  1  0  0  0
 15 29  1  0  0  0
 15 30  1  0  0  0
 15 31  1  0  0  0
 16 32  1  0  0  0
 17 18  1  0  0  0
 17 20  2  0  0  0
 18 19  2  0  0  0
 18 33  1  0  0  0
 19 22  1  0  0  0
 20 23  1  0  0  0
 20 34  1  0  0  0
 21 35  1  0  0  0
 21 36  1  0  0  0
 21 37  1  0  0  0
 22 23  2  0  0  0
 22 38  1  0  0  0
 23 39  1  0  0  0
 24 40  1  0  0  0
 24 41  1  0  0  0
 24 42  1  0  0  0
M  END
> <s_m_entry_id>
7536

> <s_m_entry_name>
dock_pv.97

> <s_m_Source_Path>
/home/csk/Desktop/cluster/DUD-E-result/mapk2

> <s_m_Source_File>
dock_pv.maegz

> <i_m_Source_File_Index>
97

> <chembl_id>
CHEMBL1986263

> <chembl_pref_name>
None

> <i_lp_mmshare_version>
53161

> <i_f3d_flags>
0

> <r_lp_tautomer_probability>
0.999999987636

> <s_lp_Force_Field>
OPLS_2005

> <r_lp_Energy>
16.526991

> <b_lp_Chiralities_Consistent>
1

> <s_lp_Variant>
CHEMBL2208_lig885-1

> <s_i_glide_gridfile>
glide-grid_3m2w

> <i_i_glide_lignum>
1134

> <i_i_glide_rotatable_bonds>
5

> <r_i_docking_score>
-7.37804632777619

> <r_i_glide_ligand_efficiency>
-0.307418596990674

> <r_i_glide_ligand_efficiency_sa>
-0.886748677889235

> <r_i_glide_ligand_efficiency_ln>
-1.76590504272219

> <r_i_glide_gscore>
-7.37804632777619

> <r_i_glide_lipo>
-2.4838545333215

> <r_i_glide_hbond>
-0.383564172096356

> <r_i_glide_metal>
0

> <r_i_glide_rewards>
-2.025579818696

> <r_i_glide_evdw>
-43.676025390625

> <r_i_glide_ecoul>
-4.72156476974487

> <r_i_glide_erotb>
0.485178468823439

> <r_i_glide_esite>
-0.0781902874927832

> <r_i_glide_emodel>
-67.9644796058727

> <r_i_glide_energy>
-48.3975901603699

> <r_i_glide_einternal>
6.20238065719604

> <i_i_glide_confnum>
11

> <i_i_glide_posenum>
139

> <r_i_glide_eff_state_penalty>
0

> <s_user_duplicate_titles>
CHEMBL2208_lig885

> <s_m_subgroup_title>
dock_pv

> <s_m_subgroupid>
dock_pv

> <b_m_subgroup_collapsed>
1

$$$$
CHEMBL2208_lig1172
                    3D
 Schrodinger Suite 2021-1.
 52 55  0  0  1  0            999 V2000
   37.3978    5.3846   21.6155 O   0  0  0  0  0  0
   39.8781    6.2518   13.3787 N   0  0  0  0  0  0
   38.7292    5.6249   13.0707 N   0  0  0  0  0  0
   39.3959    8.4247   20.8809 N   0  0  0  0  0  0
   34.6780    2.5527   23.1633 N   0  0  0  0  0  0
   38.7277    6.0789   15.2657 C   0  0  0  0  0  0
   39.9343    6.5705   14.7169 C   0  0  0  0  0  0
   39.4397    6.8730   17.4349 C   0  0  0  0  0  0
   38.4801    6.2441   16.6320 C   0  0  0  0  0  0
   38.0308    5.4954   14.1674 C   0  0  0  0  0  0
   39.1860    7.0562   18.8881 C   0  0  0  0  0  0
   40.8921    7.2254   15.4904 C   0  0  0  0  0  0
   40.6223    7.3471   16.8515 C   0  0  0  0  0  0
   38.4594    6.1156   19.6319 C   0  0  0  0  0  0
   38.1666    6.3353   20.9768 C   0  0  0  0  0  0
   39.6329    8.1945   19.5690 C   0  0  0  0  0  0
   38.6665    7.5103   21.5616 C   0  0  0  0  0  0
   36.6861    4.8058   14.1598 C   0  0  0  0  0  0
   36.9810    5.6333   22.9526 C   0  0  0  0  0  0
   36.3682    4.3620   23.5867 C   0  0  1  0  0  0
   35.9078    4.5843   25.0619 C   0  0  0  0  0  0
   36.8575    5.3465   25.9938 C   0  0  0  0  0  0
   35.2136    3.8237   22.7001 C   0  0  0  0  0  0
   36.3106    6.2022   26.9557 C   0  0  0  0  0  0
   38.2491    5.2263   25.8895 C   0  0  0  0  0  0
   37.1411    6.9649   27.7716 C   0  0  0  0  0  0
   39.0780    6.0252   26.6720 C   0  0  0  0  0  0
   38.5218    6.8883   27.6119 C   0  0  0  0  0  0
   40.5664    6.4437   12.6575 H   0  0  0  0  0  0
   33.9023    2.2800   22.5759 H   0  0  0  0  0  0
   35.3712    1.8285   23.0178 H   0  0  0  0  0  0
   37.5522    5.8824   17.0512 H   0  0  0  0  0  0
   41.8023    7.6250   15.0714 H   0  0  0  0  0  0
   41.3655    7.8329   17.4655 H   0  0  0  0  0  0
   38.0964    5.2112   19.1677 H   0  0  0  0  0  0
   40.1797    8.9669   19.0511 H   0  0  0  0  0  0
   38.5050    7.7520   22.6011 H   0  0  0  0  0  0
   36.6490    3.9981   14.8931 H   0  0  0  0  0  0
   35.8783    5.4972   14.4029 H   0  0  0  0  0  0
   36.4474    4.3626   13.1907 H   0  0  0  0  0  0
   36.2790    6.4637   22.9664 H   0  0  0  0  0  0
   37.8508    5.9418   23.5250 H   0  0  0  0  0  0
   37.1642    3.6171   23.5932 H   0  0  0  0  0  0
   35.6865    3.6239   25.5299 H   0  0  0  0  0  0
   34.9620    5.1295   25.0323 H   0  0  0  0  0  0
   34.4026    4.5537   22.6629 H   0  0  0  0  0  0
   35.5556    3.6832   21.6731 H   0  0  0  0  0  0
   35.2391    6.2898   27.0628 H   0  0  0  0  0  0
   38.6959    4.5625   25.1629 H   0  0  0  0  0  0
   36.7127    7.6246   28.5096 H   0  0  0  0  0  0
   40.1500    5.9913   26.5401 H   0  0  0  0  0  0
   39.1741    7.5063   28.2124 H   0  0  0  0  0  0
  1 15  1  0  0  0
  1 19  1  0  0  0
  2  3  1  0  0  0
  2  7  1  0  0  0
  2 29  1  0  0  0
  3 10  2  0  0  0
  4 16  1  0  0  0
  4 17  2  0  0  0
  5 23  1  0  0  0
  5 30  1  0  0  0
  5 31  1  0  0  0
  6  7  1  0  0  0
  6  9  2  0  0  0
  6 10  1  0  0  0
  7 12  2  0  0  0
  8  9  1  0  0  0
  8 11  1  0  0  0
  8 13  2  0  0  0
  9 32  1  0  0  0
 10 18  1  0  0  0
 11 14  1  0  0  0
 11 16  2  0  0  0
 12 13  1  0  0  0
 12 33  1  0  0  0
 13 34  1  0  0  0
 14 15  2  0  0  0
 14 35  1  0  0  0
 15 17  1  0  0  0
 16 36  1  0  0  0
 17 37  1  0  0  0
 18 38  1  0  0  0
 18 39  1  0  0  0
 18 40  1  0  0  0
 19 20  1  0  0  0
 19 41  1  0  0  0
 19 42  1  0  0  0
 20 21  1  0  0  0
 20 23  1  0  0  0
 20 43  1  0  0  0
 21 22  1  0  0  0
 21 44  1  0  0  0
 21 45  1  0  0  0
 22 24  2  0  0  0
 22 25  1  0  0  0
 23 46  1  0  0  0
 23 47  1  0  0  0
 24 26  1  0  0  0
 24 48  1  0  0  0
 25 27  2  0  0  0
 25 49  1  0  0  0
 26 28  2  0  0  0
 26 50  1  0  0  0
 27 28  1  0  0  0
 27 51  1  0  0  0
 28 52  1  0  0  0
M  END
> <s_m_entry_id>
7538

> <s_m_entry_name>
dock_pv.99

> <s_m_Source_Path>
/home/csk/Desktop/cluster/DUD-E-result/mapk2

> <s_m_Source_File>
dock_pv.maegz

> <i_m_Source_File_Index>
99

> <chembl_id>
CHEMBL2000271

> <chembl_pref_name>
None

> <i_lp_mmshare_version>
53161

> <i_f3d_flags>
0

> <r_lp_tautomer_probability>
0.980392156862745

> <s_lp_Force_Field>
OPLS_2005

> <r_lp_Energy>
22.05967

> <b_lp_Chiralities_Consistent>
1

> <s_lp_Variant>
CHEMBL2208_lig1172-2

> <s_i_glide_gridfile>
glide-grid_3m2w

> <i_i_glide_lignum>
1578

> <i_i_glide_rotatable_bonds>
7

> <r_i_docking_score>
-7.37759890326478

> <r_i_glide_ligand_efficiency>
-0.263485675116599

> <r_i_glide_ligand_efficiency_sa>
-0.800097694417583

> <r_i_glide_ligand_efficiency_ln>
-1.70296644258985

> <r_i_glide_gscore>
-7.37759890326478

> <r_i_glide_lipo>
-2.51386175529844

> <r_i_glide_hbond>
-0.608

> <r_i_glide_metal>
0

> <r_i_glide_rewards>
-1.6831980769179

> <r_i_glide_evdw>
-45.248348236084

> <r_i_glide_ecoul>
-5.31604766845703

> <r_i_glide_erotb>
0.487285491024317

> <r_i_glide_esite>
0

> <r_i_glide_emodel>
-71.0532163390385

> <r_i_glide_energy>
-50.564395904541

> <r_i_glide_einternal>
5.2473669052124

> <i_i_glide_confnum>
62

> <i_i_glide_posenum>
348

> <r_i_glide_eff_state_penalty>
0

> <s_user_duplicate_titles>
CHEMBL2208_lig1172

> <s_m_subgroup_title>
dock_pv

> <s_m_subgroupid>
dock_pv

> <b_m_subgroup_collapsed>
1

$$$$
CHEMBL2208_lig317
                    3D
 Schrodinger Suite 2021-1.
 47 49  0  0  1  0            999 V2000
   36.9033    5.6208   15.5291 C   0  0  0  0  0  0
   37.5254    5.6231   14.3420 N   0  0  0  0  0  0
   38.8197    6.0244   14.3060 C   0  0  0  0  0  0
   37.3689    5.9960   16.7314 N   0  0  0  0  0  0
   38.6541    6.4249   16.6583 C   0  0  0  0  0  0
   39.4253    6.4637   15.5054 C   0  0  0  0  0  0
   40.6549    6.9430   15.7507 N   0  0  0  0  0  0
   40.6432    7.1967   17.0336 C   0  0  0  0  0  0
   39.4695    6.9182   17.6430 N   0  0  0  0  0  0
   39.4645    6.0252   13.0737 N   0  0  0  0  0  0
   39.2312    6.9955   19.1450 C   0  0  2  0  0  0
   37.9050    6.7605   19.5162 O   0  0  0  0  0  0
   37.7876    7.0900   20.8973 C   0  0  1  0  0  0
   38.4820    8.4505   20.8938 C   0  0  2  0  0  0
   39.5319    8.3643   19.7695 C   0  0  1  0  0  0
   40.8993    8.4212   20.1322 O   0  0  0  0  0  0
   38.9557    8.8275   22.1785 O   0  0  0  0  0  0
   36.3202    7.1395   21.3816 C   0  0  0  0  0  0
   35.6475    5.8905   21.3200 O   0  0  0  0  0  0
   36.0029    4.6361   22.3046 P   0  0  2  0  0  0
   35.2477    3.4374   21.5648 O   0  0  0  0  0  0
   35.0430    4.8267   23.5960 O   0  0  0  0  0  0
   37.4375    4.4015   22.6108 O   0  0  0  0  0  0
   33.6509    3.0934   21.1757 P   0  0  1  0  0  0
   33.6762    2.8008   19.5107 O   0  0  0  0  0  0
   33.4456    1.6228   21.9932 O   0  0  0  0  0  0
   32.6779    4.1780   21.5838 O   0  0  0  0  0  0
   34.6485    2.0253   18.4937 P   0  0  0  0  0  0
   35.2440    3.2268   17.5843 O   0  0  0  0  0  0
   34.0181    0.9099   17.7372 O   0  0  0  0  0  0
   35.8780    1.6250   19.4646 O   0  0  0  0  0  0
   35.8794    5.2759   15.5133 H   0  0  0  0  0  0
   41.4772    7.5877   17.5985 H   0  0  0  0  0  0
   40.3822    6.4447   13.0104 H   0  0  0  0  0  0
   38.8624    6.0018   12.2698 H   0  0  0  0  0  0
   39.8201    6.1789   19.5761 H   0  0  0  0  0  0
   38.3657    6.3834   21.4935 H   0  0  0  0  0  0
   37.7552    9.2060   20.5872 H   0  0  0  0  0  0
   39.3205    9.1331   19.0217 H   0  0  0  0  0  0
   41.1044    7.6474   20.6666 H   0  0  0  0  0  0
   39.4724    8.1194   22.5833 H   0  0  0  0  0  0
   35.7560    7.8474   20.7731 H   0  0  0  0  0  0
   36.2789    7.5055   22.4072 H   0  0  0  0  0  0
   34.6881    5.7431   23.7031 H   0  0  0  0  0  0
   34.0774    0.8686   21.8663 H   0  0  0  0  0  0
   34.5733    3.7964   17.1496 H   0  0  0  0  0  0
   35.6915    0.8858   20.0940 H   0  0  0  0  0  0
  1  2  2  0  0  0
  1  4  1  0  0  0
  1 32  1  0  0  0
  2  3  1  0  0  0
  3  6  2  0  0  0
  3 10  1  0  0  0
  4  5  2  0  0  0
  5  6  1  0  0  0
  5  9  1  0  0  0
  6  7  1  0  0  0
  7  8  2  0  0  0
  8  9  1  0  0  0
  8 33  1  0  0  0
  9 11  1  0  0  0
 10 34  1  0  0  0
 10 35  1  0  0  0
 11 12  1  0  0  0
 11 15  1  0  0  0
 11 36  1  0  0  0
 12 13  1  0  0  0
 13 14  1  0  0  0
 13 18  1  0  0  0
 13 37  1  0  0  0
 14 15  1  0  0  0
 14 17  1  0  0  0
 14 38  1  0  0  0
 15 16  1  0  0  0
 15 39  1  0  0  0
 16 40  1  0  0  0
 17 41  1  0  0  0
 18 19  1  0  0  0
 18 42  1  0  0  0
 18 43  1  0  0  0
 19 20  1  0  0  0
 20 21  1  0  0  0
 20 22  1  0  0  0
 20 23  2  0  0  0
 21 24  1  0  0  0
 22 44  1  0  0  0
 24 25  1  0  0  0
 24 26  1  0  0  0
 24 27  2  0  0  0
 25 28  1  0  0  0
 26 45  1  0  0  0
 28 29  1  0  0  0
 28 30  2  0  0  0
 28 31  1  0  0  0
 29 46  1  0  0  0
 31 47  1  0  0  0
M  END
> <s_m_entry_id>
7539

> <s_m_entry_name>
dock_pv.100

> <s_m_Source_Path>
/home/csk/Desktop/cluster/DUD-E-result/mapk2

> <s_m_Source_File>
dock_pv.maegz

> <i_m_Source_File_Index>
100

> <chembl_id>
CHEMBL14249

> <chembl_pref_name>
ADENOSINE TRIPHOSPHATE

> <i_lp_mmshare_version>
53161

> <i_f3d_flags>
0

> <r_lp_tautomer_probability>
0.999997216410988

> <s_lp_Force_Field>
OPLS_2005

> <r_lp_Energy>
28.179279

> <b_lp_Chiralities_Consistent>
1

> <s_lp_Variant>
CHEMBL2208_lig317-3

> <s_i_glide_gridfile>
glide-grid_3m2w

> <i_i_glide_lignum>
459

> <i_i_glide_rotatable_bonds>
14

> <r_i_docking_score>
-7.3749087069767

> <r_i_glide_ligand_efficiency>
-0.237900280870216

> <r_i_glide_ligand_efficiency_sa>
-0.747335338668728

> <r_i_glide_ligand_efficiency_ln>
-1.66326792723188

> <r_i_glide_gscore>
-7.3749087069767

> <r_i_glide_lipo>
-0.747389471969386

> <r_i_glide_hbond>
-0.0665923588054984

> <r_i_glide_metal>
0

> <r_i_glide_rewards>
-1.06510193870912

> <r_i_glide_evdw>
-43.5862693786621

> <r_i_glide_ecoul>
-26.0371112823486

> <r_i_glide_erotb>
0.636465534809362

> <r_i_glide_esite>
-0.047410311016652

> <r_i_glide_emodel>
-96.999970633434

> <r_i_glide_energy>
-69.6233806610107

> <r_i_glide_einternal>
14.462028503418

> <i_i_glide_confnum>
252

> <i_i_glide_posenum>
300

> <r_i_glide_eff_state_penalty>
0

> <s_user_duplicate_titles>
CHEMBL2208_lig317

> <s_m_subgroup_title>
dock_pv

> <s_m_subgroupid>
dock_pv

> <b_m_subgroup_collapsed>
1

$$$$
CHEMBL2208_lig481
                    3D
 Schrodinger Suite 2021-1.
 41 45  0  0  1  0            999 V2000
   37.8780    5.2504   13.0722 N   0  0  0  0  0  0
   36.9482    4.8346   13.9722 C   0  0  0  0  0  0
   37.0181    5.1748   15.3271 C   0  0  0  0  0  0
   38.9038    6.0198   13.5084 C   0  0  0  0  0  0
   39.0770    6.4216   14.8486 C   0  0  0  0  0  0
   38.1007    5.9721   15.7775 C   0  0  0  0  0  0
   40.2845    7.5736   16.6461 C   0  0  0  0  0  0
   40.1537    7.2235   15.2989 C   0  0  0  0  0  0
   39.3419    7.1192   17.5855 C   0  0  0  0  0  0
   38.2580    6.3213   17.1380 C   0  0  0  0  0  0
   37.4741    5.9622   18.2151 N   0  0  0  0  0  0
   35.8968    3.9492   13.4329 C   0  0  0  0  0  0
   35.0094    3.2163   14.1374 C   0  0  0  0  0  0
   33.9903    2.3113   13.5670 C   0  0  0  0  0  0
   33.5534    2.4235   12.2394 C   0  0  0  0  0  0
   32.6147    1.5305   11.7307 C   0  0  0  0  0  0
   32.1060    0.5247   12.5479 C   0  0  0  0  0  0
   32.5275    0.4054   13.8698 C   0  0  0  0  0  0
   33.4689    1.2977   14.3768 C   0  0  0  0  0  0
   39.1588    7.2573   19.0036 C   0  0  0  0  0  0
   38.0489    6.4949   19.3386 C   0  0  0  0  0  0
   37.5954    6.3896   20.7825 C   0  0  0  0  0  0
   38.6941    6.7956   21.6276 O   0  0  0  0  0  0
   39.2400    8.0258   21.1606 N   0  0  0  0  0  0
   39.9635    7.9199   20.0074 C   0  0  0  0  0  0
   41.0776    8.4250   19.8720 O   0  0  0  0  0  0
   36.2775    4.8334   16.0338 H   0  0  0  0  0  0
   39.6235    6.3286   12.7626 H   0  0  0  0  0  0
   41.1160    8.1862   16.9630 H   0  0  0  0  0  0
   40.8883    7.5675   14.5844 H   0  0  0  0  0  0
   36.6465    5.3837   18.2321 H   0  0  0  0  0  0
   35.8773    3.8774   12.3554 H   0  0  0  0  0  0
   35.0177    3.2764   15.2158 H   0  0  0  0  0  0
   33.9355    3.1981   11.5920 H   0  0  0  0  0  0
   32.2846    1.6172   10.7061 H   0  0  0  0  0  0
   31.3753   -0.1662   12.1537 H   0  0  0  0  0  0
   32.1260   -0.3741   14.5004 H   0  0  0  0  0  0
   33.7935    1.1948   15.4027 H   0  0  0  0  0  0
   36.7218    7.0127   20.9802 H   0  0  0  0  0  0
   37.3271    5.3651   21.0421 H   0  0  0  0  0  0
   39.6815    8.4150   21.9819 H   0  0  0  0  0  0
  1  2  2  0  0  0
  1  4  1  0  0  0
  2  3  1  0  0  0
  2 12  1  0  0  0
  3  6  2  0  0  0
  3 27  1  0  0  0
  4  5  2  0  0  0
  4 28  1  0  0  0
  5  6  1  0  0  0
  5  8  1  0  0  0
  6 10  1  0  0  0
  7  9  1  0  0  0
  7  8  2  0  0  0
  7 29  1  0  0  0
  8 30  1  0  0  0
  9 10  2  0  0  0
  9 20  1  0  0  0
 10 11  1  0  0  0
 11 21  1  0  0  0
 11 31  1  0  0  0
 12 13  2  0  0  0
 12 32  1  0  0  0
 13 14  1  0  0  0
 13 33  1  0  0  0
 14 15  2  0  0  0
 14 19  1  0  0  0
 15 16  1  0  0  0
 15 34  1  0  0  0
 16 17  2  0  0  0
 16 35  1  0  0  0
 17 18  1  0  0  0
 17 36  1  0  0  0
 18 19  2  0  0  0
 18 37  1  0  0  0
 19 38  1  0  0  0
 20 21  2  0  0  0
 20 25  1  0  0  0
 21 22  1  0  0  0
 22 23  1  0  0  0
 22 39  1  0  0  0
 22 40  1  0  0  0
 23 24  1  0  0  0
 24 25  1  0  0  0
 24 41  1  0  0  0
 25 26  2  0  0  0
M  END
> <s_m_entry_id>
7540

> <s_m_entry_name>
dock_pv.101

> <s_m_Source_Path>
/home/csk/Desktop/cluster/DUD-E-result/mapk2

> <s_m_Source_File>
dock_pv.maegz

> <i_m_Source_File_Index>
101

> <chembl_id>
CHEMBL1801315

> <chembl_pref_name>
None

> <i_lp_mmshare_version>
53161

> <i_f3d_flags>
0

> <r_lp_tautomer_probability>
1

> <s_lp_Force_Field>
OPLS_2005

> <r_lp_Energy>
39.206779

> <b_lp_Chiralities_Consistent>
1

> <s_lp_Variant>
CHEMBL2208_lig481-1

> <s_i_glide_gridfile>
glide-grid_3m2w

> <i_i_glide_lignum>
651

> <i_i_glide_rotatable_bonds>
2

> <r_i_docking_score>
-7.37476444538553

> <r_i_glide_ligand_efficiency>
-0.283644786360982

> <r_i_glide_ligand_efficiency_sa>
-0.840296563506069

> <r_i_glide_ligand_efficiency_ln>
-1.73193923142292

> <r_i_glide_gscore>
-7.37476444538553

> <r_i_glide_lipo>
-2.94755307655043

> <r_i_glide_hbond>
-0.384447930935971

> <r_i_glide_metal>
0

> <r_i_glide_rewards>
-1.55116646329292

> <r_i_glide_evdw>
-41.5985794067383

> <r_i_glide_ecoul>
-4.20919036865234

> <r_i_glide_erotb>
0.325225348251082

> <r_i_glide_esite>
-0.105514797222531

> <r_i_glide_emodel>
-65.4618140581049

> <r_i_glide_energy>
-45.8077697753906

> <r_i_glide_einternal>
1.92361223697662

> <i_i_glide_confnum>
4

> <i_i_glide_posenum>
148

> <r_i_glide_eff_state_penalty>
0

> <s_user_duplicate_titles>
CHEMBL2208_lig481

> <s_m_subgroup_title>
dock_pv

> <s_m_subgroupid>
dock_pv

> <b_m_subgroup_collapsed>
1

$$$$
CHEMBL2208_lig1181
                    3D
 Schrodinger Suite 2021-1.
 41 43  0  0  1  0            999 V2000
   37.9287    7.0377   26.8962 S   0  0  0  0  0  0
   37.4798    5.4153   22.1920 O   0  0  0  0  0  0
   38.2778    5.6254   27.0740 O   0  0  0  0  0  0
   36.6918    7.5745   27.4720 O   0  0  0  0  0  0
   39.3756    8.4250   21.1203 N   0  0  0  0  0  0
   38.5555    5.6249   12.8427 N   0  0  0  0  0  0
   37.8780    7.3492   25.1793 N   0  0  2  0  0  0
   39.1303    6.7452   17.7604 C   0  0  0  0  0  0
   38.9616    6.9880   19.2155 C   0  0  0  0  0  0
   38.2408    5.9589   15.6251 C   0  0  0  0  0  0
   39.4483    6.3687   14.9847 C   0  0  0  0  0  0
   38.1067    6.1506   17.0173 C   0  0  0  0  0  0
   40.3079    7.1340   17.1110 C   0  0  0  0  0  0
   38.2743    6.0953   20.0537 C   0  0  0  0  0  0
   40.4809    6.9539   15.7445 C   0  0  0  0  0  0
   38.1521    6.3475   21.4232 C   0  0  0  0  0  0
   39.4840    8.1429   19.8052 C   0  0  0  0  0  0
   37.2158    5.3704   14.8417 C   0  0  0  0  0  0
   39.5393    6.1644   13.5945 C   0  0  0  0  0  0
   38.7252    7.5329   21.9012 C   0  0  0  0  0  0
   37.4276    5.2248   13.4721 C   0  0  0  0  0  0
   37.6275    5.3876   23.6174 C   0  0  0  0  0  0
   36.9340    6.5444   24.3712 C   0  0  0  0  0  0
   39.3712    8.0888   27.4761 C   0  0  0  0  0  0
   38.8269    7.2805   24.7843 H   0  0  0  0  0  0
   37.1846    5.8490   17.4937 H   0  0  0  0  0  0
   41.1128    7.5838   17.6731 H   0  0  0  0  0  0
   37.8570    5.1819   19.6568 H   0  0  0  0  0  0
   41.3946    7.2681   15.2608 H   0  0  0  0  0  0
   39.9998    8.8833   19.2127 H   0  0  0  0  0  0
   36.2959    5.0396   15.3041 H   0  0  0  0  0  0
   40.4367    6.4603   13.0708 H   0  0  0  0  0  0
   38.7008    7.8101   22.9356 H   0  0  0  0  0  0
   36.6788    4.7589   12.8491 H   0  0  0  0  0  0
   38.6787    5.3031   23.8862 H   0  0  0  0  0  0
   37.1857    4.4492   23.9535 H   0  0  0  0  0  0
   36.0803    6.1952   24.9549 H   0  0  0  0  0  0
   36.5113    7.2185   23.6288 H   0  0  0  0  0  0
   39.4415    8.0195   28.5596 H   0  0  0  0  0  0
   39.2051    9.1193   27.1677 H   0  0  0  0  0  0
   40.2828    7.7062   27.0163 H   0  0  0  0  0  0
  1  3  2  0  0  0
  1  4  2  0  0  0
  1  7  1  0  0  0
  1 24  1  0  0  0
  2 16  1  0  0  0
  2 22  1  0  0  0
  5 17  2  0  0  0
  5 20  1  0  0  0
  6 19  2  0  0  0
  6 21  1  0  0  0
  7 23  1  0  0  0
  7 25  1  0  0  0
  8  9  1  0  0  0
  8 12  1  0  0  0
  8 13  2  0  0  0
  9 14  2  0  0  0
  9 17  1  0  0  0
 10 11  1  0  0  0
 10 12  2  0  0  0
 10 18  1  0  0  0
 11 15  2  0  0  0
 11 19  1  0  0  0
 12 26  1  0  0  0
 13 15  1  0  0  0
 13 27  1  0  0  0
 14 16  1  0  0  0
 14 28  1  0  0  0
 15 29  1  0  0  0
 16 20  2  0  0  0
 17 30  1  0  0  0
 18 21  2  0  0  0
 18 31  1  0  0  0
 19 32  1  0  0  0
 20 33  1  0  0  0
 21 34  1  0  0  0
 22 23  1  0  0  0
 22 35  1  0  0  0
 22 36  1  0  0  0
 23 37  1  0  0  0
 23 38  1  0  0  0
 24 39  1  0  0  0
 24 40  1  0  0  0
 24 41  1  0  0  0
M  END
> <s_m_entry_id>
7541

> <s_m_entry_name>
dock_pv.102

> <s_m_Source_Path>
/home/csk/Desktop/cluster/DUD-E-result/mapk2

> <s_m_Source_File>
dock_pv.maegz

> <i_m_Source_File_Index>
102

> <chembl_id>
CHEMBL1964804

> <chembl_pref_name>
None

> <i_lp_mmshare_version>
53161

> <i_f3d_flags>
0

> <r_lp_tautomer_probability>
1

> <s_lp_Force_Field>
OPLS_2005

> <r_lp_Energy>
18.467482

> <b_lp_Chiralities_Consistent>
1

> <s_lp_Variant>
CHEMBL2208_lig1181-1

> <s_i_glide_gridfile>
glide-grid_3m2w

> <i_i_glide_lignum>
1593

> <i_i_glide_rotatable_bonds>
6

> <r_i_docking_score>
-7.37339926001666

> <r_i_glide_ligand_efficiency>
-0.307224969167361

> <r_i_glide_ligand_efficiency_sa>
-0.88619015859988

> <r_i_glide_ligand_efficiency_ln>
-1.76479278616729

> <r_i_glide_gscore>
-7.37339926001666

> <r_i_glide_lipo>
-2.27239789447316

> <r_i_glide_hbond>
-0.444692696684726

> <r_i_glide_metal>
0

> <r_i_glide_rewards>
-1.94008536857979

> <r_i_glide_evdw>
-39.2849960327148

> <r_i_glide_ecoul>
-9.79338550567627

> <r_i_glide_erotb>
0.804521141251023

> <r_i_glide_esite>
-0.0874868140428311

> <r_i_glide_emodel>
-68.9198291243051

> <r_i_glide_energy>
-49.0783815383911

> <r_i_glide_einternal>
8.28939437866211

> <i_i_glide_confnum>
179

> <i_i_glide_posenum>
389

> <r_i_glide_eff_state_penalty>
0

> <s_user_duplicate_titles>
CHEMBL2208_lig1181

> <s_m_subgroup_title>
dock_pv

> <s_m_subgroupid>
dock_pv

> <b_m_subgroup_collapsed>
1

$$$$
CHEMBL2208_lig1218
                    3D
 Schrodinger Suite 2021-1.
 36 38  0  0  1  0            999 V2000
   37.1864    5.4329   21.9738 O   0  0  0  0  0  0
   39.7098    6.2732   13.5726 N   0  0  0  0  0  0
   38.5775    5.6216   13.2492 N   0  0  0  0  0  0
   39.0770    8.4216   21.0818 N   0  0  0  0  0  0
   34.3251    4.8246   22.2724 N   0  0  0  0  0  0
   38.5735    6.0277   15.4638 C   0  0  0  0  0  0
   39.7645    6.5589   14.9221 C   0  0  0  0  0  0
   39.2510    6.8271   17.6480 C   0  0  0  0  0  0
   38.3176    6.1716   16.8345 C   0  0  0  0  0  0
   37.9009    5.4306   14.3569 C   0  0  0  0  0  0
   38.9744    7.0121   19.1018 C   0  0  0  0  0  0
   40.7075    7.2160   15.7111 C   0  0  0  0  0  0
   40.4258    7.3268   17.0730 C   0  0  0  0  0  0
   38.2809    6.0464   19.8458 C   0  0  0  0  0  0
   37.9434    6.2806   21.1895 C   0  0  0  0  0  0
   39.3514    8.1809   19.7764 C   0  0  0  0  0  0
   38.3863    7.4735   21.7631 C   0  0  0  0  0  0
   36.5940    4.6723   14.3646 C   0  0  0  0  0  0
   36.5469    4.3094   21.3661 C   0  0  0  0  0  0
   35.3930    3.8369   22.2612 C   0  0  0  0  0  0
   40.3897    6.5046   12.8579 H   0  0  0  0  0  0
   33.5816    4.5035   22.8756 H   0  0  0  0  0  0
   34.6775    5.6779   22.7087 H   0  0  0  0  0  0
   37.3997    5.7858   17.2519 H   0  0  0  0  0  0
   41.6135    7.6250   15.2994 H   0  0  0  0  0  0
   41.1522    7.8281   17.6938 H   0  0  0  0  0  0
   37.9958    5.1221   19.3683 H   0  0  0  0  0  0
   39.8651    8.9705   19.2536 H   0  0  0  0  0  0
   38.1755    7.6863   22.8010 H   0  0  0  0  0  0
   36.2475    4.4709   15.3773 H   0  0  0  0  0  0
   35.8012    5.2272   13.8723 H   0  0  0  0  0  0
   36.6769    3.7045   13.8730 H   0  0  0  0  0  0
   37.2769    3.5092   21.2395 H   0  0  0  0  0  0
   36.1391    4.5494   20.3816 H   0  0  0  0  0  0
   35.7504    3.6677   23.2783 H   0  0  0  0  0  0
   34.9975    2.8887   21.8943 H   0  0  0  0  0  0
  1 15  1  0  0  0
  1 19  1  0  0  0
  2  3  1  0  0  0
  2  7  1  0  0  0
  2 21  1  0  0  0
  3 10  2  0  0  0
  4 16  1  0  0  0
  4 17  2  0  0  0
  5 20  1  0  0  0
  5 22  1  0  0  0
  5 23  1  0  0  0
  6  7  1  0  0  0
  6  9  2  0  0  0
  6 10  1  0  0  0
  7 12  2  0  0  0
  8  9  1  0  0  0
  8 11  1  0  0  0
  8 13  2  0  0  0
  9 24  1  0  0  0
 10 18  1  0  0  0
 11 14  1  0  0  0
 11 16  2  0  0  0
 12 13  1  0  0  0
 12 25  1  0  0  0
 13 26  1  0  0  0
 14 15  2  0  0  0
 14 27  1  0  0  0
 15 17  1  0  0  0
 16 28  1  0  0  0
 17 29  1  0  0  0
 18 30  1  0  0  0
 18 31  1  0  0  0
 18 32  1  0  0  0
 19 20  1  0  0  0
 19 33  1  0  0  0
 19 34  1  0  0  0
 20 35  1  0  0  0
 20 36  1  0  0  0
M  END
> <s_m_entry_id>
7542

> <s_m_entry_name>
dock_pv.103

> <s_m_Source_Path>
/home/csk/Desktop/cluster/DUD-E-result/mapk2

> <s_m_Source_File>
dock_pv.maegz

> <i_m_Source_File_Index>
103

> <chembl_id>
CHEMBL1967887

> <chembl_pref_name>
None

> <i_lp_mmshare_version>
53161

> <i_f3d_flags>
0

> <r_lp_tautomer_probability>
0.980392156862745

> <s_lp_Force_Field>
OPLS_2005

> <r_lp_Energy>
17.495831

> <b_lp_Chiralities_Consistent>
1

> <s_lp_Variant>
CHEMBL2208_lig1218-1

> <s_i_glide_gridfile>
glide-grid_3m2w

> <i_i_glide_lignum>
1644

> <i_i_glide_rotatable_bonds>
4

> <r_i_docking_score>
-7.37019265897273

> <r_i_glide_ligand_efficiency>
-0.368509632948636

> <r_i_glide_ligand_efficiency_sa>
-1.00028903856184

> <r_i_glide_ligand_efficiency_ln>
-1.84451613731801

> <r_i_glide_gscore>
-7.37019265897273

> <r_i_glide_lipo>
-2.16556286844052

> <r_i_glide_hbond>
-0.714130818798006

> <r_i_glide_metal>
0

> <r_i_glide_rewards>
-2.37895608906879

> <r_i_glide_evdw>
-34.2466468811035

> <r_i_glide_ecoul>
-6.13223314285278

> <r_i_glide_erotb>
0.520624432817676

> <r_i_glide_esite>
0

> <r_i_glide_emodel>
-58.0069500757506

> <r_i_glide_energy>
-40.3788800239563

> <r_i_glide_einternal>
1.02133858203888

> <i_i_glide_confnum>
4

> <i_i_glide_posenum>
116

> <r_i_glide_eff_state_penalty>
0

> <s_user_duplicate_titles>
CHEMBL2208_lig1218,CHEMBL2208_lig1218

> <s_m_subgroup_title>
dock_pv

> <s_m_subgroupid>
dock_pv

> <b_m_subgroup_collapsed>
1

$$$$
CHEMBL2208_lig317
                    3D
 Schrodinger Suite 2021-1.
 47 49  0  0  1  0            999 V2000
   36.8227    5.2562   16.0510 C   0  0  0  0  0  0
   37.0910    5.2232   14.7407 N   0  0  0  0  0  0
   38.3176    5.6409   14.3433 C   0  0  0  0  0  0
   37.5900    5.6698   17.0664 N   0  0  0  0  0  0
   38.8132    6.0574   16.6337 C   0  0  0  0  0  0
   39.2423    6.0767   15.3196 C   0  0  0  0  0  0
   40.5032    6.5312   15.2262 N   0  0  0  0  0  0
   40.8474    6.7710   16.4666 C   0  0  0  0  0  0
   39.8839    6.4796   17.3654 N   0  0  0  0  0  0
   38.5860    5.6250   12.9844 N   0  0  0  0  0  0
   39.9136    6.6604   18.8674 C   0  0  2  0  0  0
   39.2103    5.6810   19.5447 O   0  0  0  0  0  0
   38.9819    6.1300   20.8661 C   0  0  1  0  0  0
   38.7140    7.6301   20.6776 C   0  0  2  0  0  0
   39.4419    8.0130   19.3779 C   0  0  1  0  0  0
   40.6007    8.8250   19.4727 O   0  0  0  0  0  0
   39.0782    8.4161   21.8025 O   0  0  0  0  0  0
   37.7957    5.3258   21.3953 C   0  0  0  0  0  0
   37.3549    5.8826   22.6222 O   0  0  0  0  0  0
   36.9357    4.9021   23.8487 P   0  0  1  0  0  0
   35.9178    3.8525   23.1510 O   0  0  0  0  0  0
   38.2780    4.0250   24.0595 O   0  0  0  0  0  0
   36.4321    5.5790   25.0725 O   0  0  0  0  0  0
   34.6780    3.8447   21.9846 P   0  0  2  0  0  0
   33.3413    2.9919   22.5870 O   0  0  0  0  0  0
   35.2846    2.8239   20.7605 O   0  0  0  0  0  0
   34.3258    5.2238   21.4719 O   0  0  0  0  0  0
   32.8963    1.4923   22.9800 P   0  0  0  0  0  0
   32.6780    0.7643   21.5499 O   0  0  0  0  0  0
   31.7676    1.3904   23.9403 O   0  0  0  0  0  0
   34.2782    0.8238   23.4774 O   0  0  0  0  0  0
   35.8780    4.8424   16.3458 H   0  0  0  0  0  0
   41.8030    7.1618   16.7860 H   0  0  0  0  0  0
   39.3876    6.1560   12.6704 H   0  0  0  0  0  0
   37.7878    5.4624   12.3890 H   0  0  0  0  0  0
   40.9483    6.5188   19.1727 H   0  0  0  0  0  0
   39.8768    5.9548   21.4687 H   0  0  0  0  0  0
   37.6442    7.7661   20.5029 H   0  0  0  0  0  0
   38.7148    8.4284   18.6776 H   0  0  0  0  0  0
   40.8422    9.1064   18.5860 H   0  0  0  0  0  0
   38.8012    7.9682   22.6090 H   0  0  0  0  0  0
   38.0873    4.2766   21.4907 H   0  0  0  0  0  0
   36.9730    5.3513   20.6782 H   0  0  0  0  0  0
   39.1419    4.4595   23.8718 H   0  0  0  0  0  0
   35.5484    1.8960   20.9316 H   0  0  0  0  0  0
   33.5175    0.4249   21.1536 H   0  0  0  0  0  0
   34.7561    0.3159   22.7735 H   0  0  0  0  0  0
  1  2  2  0  0  0
  1  4  1  0  0  0
  1 32  1  0  0  0
  2  3  1  0  0  0
  3  6  2  0  0  0
  3 10  1  0  0  0
  4  5  2  0  0  0
  5  6  1  0  0  0
  5  9  1  0  0  0
  6  7  1  0  0  0
  7  8  2  0  0  0
  8  9  1  0  0  0
  8 33  1  0  0  0
  9 11  1  0  0  0
 10 34  1  0  0  0
 10 35  1  0  0  0
 11 12  1  0  0  0
 11 15  1  0  0  0
 11 36  1  0  0  0
 12 13  1  0  0  0
 13 14  1  0  0  0
 13 18  1  0  0  0
 13 37  1  0  0  0
 14 15  1  0  0  0
 14 17  1  0  0  0
 14 38  1  0  0  0
 15 16  1  0  0  0
 15 39  1  0  0  0
 16 40  1  0  0  0
 17 41  1  0  0  0
 18 19  1  0  0  0
 18 42  1  0  0  0
 18 43  1  0  0  0
 19 20  1  0  0  0
 20 21  1  0  0  0
 20 22  1  0  0  0
 20 23  2  0  0  0
 21 24  1  0  0  0
 22 44  1  0  0  0
 24 25  1  0  0  0
 24 26  1  0  0  0
 24 27  2  0  0  0
 25 28  1  0  0  0
 26 45  1  0  0  0
 28 29  1  0  0  0
 28 30  2  0  0  0
 28 31  1  0  0  0
 29 46  1  0  0  0
 31 47  1  0  0  0
M  END
> <s_m_entry_id>
7543

> <s_m_entry_name>
dock_pv.104

> <s_m_Source_Path>
/home/csk/Desktop/cluster/DUD-E-result/mapk2

> <s_m_Source_File>
dock_pv.maegz

> <i_m_Source_File_Index>
104

> <chembl_id>
CHEMBL14249

> <chembl_pref_name>
ADENOSINE TRIPHOSPHATE

> <i_lp_mmshare_version>
53161

> <i_f3d_flags>
0

> <r_lp_tautomer_probability>
0.999997216410988

> <s_lp_Force_Field>
OPLS_2005

> <r_lp_Energy>
22.910816

> <b_lp_Chiralities_Consistent>
1

> <s_lp_Variant>
CHEMBL2208_lig317-2

> <s_i_glide_gridfile>
glide-grid_3m2w

> <i_i_glide_lignum>
458

> <i_i_glide_rotatable_bonds>
14

> <r_i_docking_score>
-7.36641403430735

> <r_i_glide_ligand_efficiency>
-0.237626259171205

> <r_i_glide_ligand_efficiency_sa>
-0.746474532206104

> <r_i_glide_ligand_efficiency_ln>
-1.66135211821449

> <r_i_glide_gscore>
-7.36641403430735

> <r_i_glide_lipo>
-0.705630581965091

> <r_i_glide_hbond>
-0.32

> <r_i_glide_metal>
0

> <r_i_glide_rewards>
-0.980591125458209

> <r_i_glide_evdw>
-38.1957244873047

> <r_i_glide_ecoul>
-30.0710334777832

> <r_i_glide_erotb>
0.636465534809362

> <r_i_glide_esite>
-0.08687163732818

> <r_i_glide_emodel>
-95.5154273910078

> <r_i_glide_energy>
-68.2667579650879

> <r_i_glide_einternal>
15.3285913467407

> <i_i_glide_confnum>
242

> <i_i_glide_posenum>
210

> <r_i_glide_eff_state_penalty>
0

> <s_user_duplicate_titles>
CHEMBL2208_lig317

> <s_m_subgroup_title>
dock_pv

> <s_m_subgroupid>
dock_pv

> <b_m_subgroup_collapsed>
1

$$$$
CHEMBL2208_lig1288
                    3D
 Schrodinger Suite 2021-1.
 29 31  0  0  1  0            999 V2000
   36.2889    6.0252   16.8112 Cl  0  0  0  0  0  0
   38.4663    9.0887   22.2273 O   0  0  0  0  0  0
   40.4872    6.7749   14.1438 N   0  0  0  0  0  0
   38.7374    5.6250   12.9693 N   0  0  0  0  0  0
   38.6706    6.9039   22.6715 N   0  0  0  0  0  0
   38.6114    6.3129   15.3260 C   0  0  0  0  0  0
   39.5782    6.9261   16.2082 C   0  0  0  0  0  0
   39.2517    6.1861   14.0594 C   0  0  0  0  0  0
   39.4461    7.1782   17.6621 C   0  0  0  0  0  0
   37.2785    5.8384   15.4063 C   0  0  0  0  0  0
   40.6781    7.2295   15.4238 C   0  0  0  0  0  0
   36.7243    5.2395   14.2750 C   0  0  0  0  0  0
   38.9439    6.1691   18.4783 C   0  0  0  0  0  0
   39.7589    8.4174   18.2097 C   0  0  0  0  0  0
   37.4775    5.1534   13.1072 C   0  0  0  0  0  0
   38.9781    7.6463   20.3837 C   0  0  0  0  0  0
   38.7147    6.3883   19.8299 C   0  0  0  0  0  0
   39.5065    8.6478   19.5580 C   0  0  0  0  0  0
   38.6775    7.9411   21.8327 C   0  0  0  0  0  0
   41.1689    6.8674   13.4023 H   0  0  0  0  0  0
   39.0109    5.9992   22.3792 H   0  0  0  0  0  0
   38.5740    7.0920   23.6576 H   0  0  0  0  0  0
   41.6113    7.7076   15.6877 H   0  0  0  0  0  0
   35.7149    4.8525   14.3094 H   0  0  0  0  0  0
   38.6897    5.2245   18.0439 H   0  0  0  0  0  0
   40.1397    9.2111   17.5837 H   0  0  0  0  0  0
   37.0602    4.6776   12.2304 H   0  0  0  0  0  0
   38.3008    5.5829   20.4211 H   0  0  0  0  0  0
   39.7103    9.6249   19.9454 H   0  0  0  0  0  0
  1 10  1  0  0  0
  2 19  2  0  0  0
  3  8  1  0  0  0
  3 11  1  0  0  0
  3 20  1  0  0  0
  4  8  2  0  0  0
  4 15  1  0  0  0
  5 19  1  0  0  0
  5 21  1  0  0  0
  5 22  1  0  0  0
  6  7  1  0  0  0
  6  8  1  0  0  0
  6 10  2  0  0  0
  7  9  1  0  0  0
  7 11  2  0  0  0
  9 13  2  0  0  0
  9 14  1  0  0  0
 10 12  1  0  0  0
 11 23  1  0  0  0
 12 15  2  0  0  0
 12 24  1  0  0  0
 13 17  1  0  0  0
 13 25  1  0  0  0
 14 18  2  0  0  0
 14 26  1  0  0  0
 15 27  1  0  0  0
 16 17  2  0  0  0
 16 18  1  0  0  0
 16 19  1  0  0  0
 17 28  1  0  0  0
 18 29  1  0  0  0
M  END
> <s_m_entry_id>
7544

> <s_m_entry_name>
dock_pv.105

> <s_m_Source_Path>
/home/csk/Desktop/cluster/DUD-E-result/mapk2

> <s_m_Source_File>
dock_pv.maegz

> <i_m_Source_File_Index>
105

> <chembl_id>
CHEMBL1982711

> <chembl_pref_name>
None

> <i_lp_mmshare_version>
53161

> <i_f3d_flags>
0

> <r_lp_tautomer_probability>
0.999998432528457

> <s_lp_Force_Field>
OPLS_2005

> <r_lp_Energy>
12.042337

> <b_lp_Chiralities_Consistent>
1

> <s_lp_Variant>
CHEMBL2208_lig1288-1

> <s_i_glide_gridfile>
glide-grid_3m2w

> <i_i_glide_lignum>
1748

> <i_i_glide_rotatable_bonds>
2

> <r_i_docking_score>
-7.36541066684822

> <r_i_glide_ligand_efficiency>
-0.387653192992011

> <r_i_glide_ligand_efficiency_sa>
-1.03441441829695

> <r_i_glide_ligand_efficiency_ln>
-1.86728979856211

> <r_i_glide_gscore>
-7.36541066684822

> <r_i_glide_lipo>
-1.89182666991181

> <r_i_glide_hbond>
-0.32

> <r_i_glide_metal>
0

> <r_i_glide_rewards>
-2.84824803030303

> <r_i_glide_evdw>
-32.1919860839844

> <r_i_glide_ecoul>
-5.33055305480957

> <r_i_glide_erotb>
0.242593975363275

> <r_i_glide_esite>
-0.138747679575999

> <r_i_glide_emodel>
-53.9207953234116

> <r_i_glide_energy>
-37.5225391387939

> <r_i_glide_einternal>
0.937794506549835

> <i_i_glide_confnum>
3

> <i_i_glide_posenum>
148

> <r_i_glide_eff_state_penalty>
0

> <s_user_duplicate_titles>
CHEMBL2208_lig1288

> <s_m_subgroup_title>
dock_pv

> <s_m_subgroupid>
dock_pv

> <b_m_subgroup_collapsed>
1

$$$$
CHEMBL2208_lig223
                    3D
 Schrodinger Suite 2021-1.
 39 42  0  0  1  0            999 V2000
   39.2703    6.1397   14.1246 C   0  0  0  0  0  0
   38.0964    5.6012   14.6717 C   0  0  0  0  0  0
   37.8169    5.7887   16.0323 C   0  0  0  0  0  0
   40.1928    6.8568   14.8838 C   0  0  0  0  0  0
   37.1480    4.8250   13.7920 C   0  0  0  0  0  0
   37.2621    4.8869   12.5655 O   0  0  0  0  0  0
   36.2499    4.0453   14.4409 N   0  0  0  0  0  0
   35.2698    3.2521   13.8697 C   0  0  0  0  0  0
   39.9115    6.9998   16.2432 C   0  0  0  0  0  0
   38.7305    6.4722   16.8336 C   0  0  0  0  0  0
   40.6011    7.6269   17.2551 N   0  0  0  0  0  0
   39.9236    7.5104   18.4468 C   0  0  0  0  0  0
   38.7589    6.8069   18.2196 C   0  0  0  0  0  0
   37.7675    6.5501   19.3300 C   0  0  0  0  0  0
   38.4678    6.7232   20.7178 C   0  0  2  0  0  0
   39.4781    7.8120   20.6984 N   0  0  0  0  0  0
   40.3398    8.0908   19.6887 C   0  0  0  0  0  0
   41.3135    8.8175   19.8720 O   0  0  0  0  0  0
   39.0177    5.4075   21.3078 C   0  0  0  0  0  0
   37.9658    4.4251   21.5277 N   0  0  0  0  0  0
   34.9109    3.2249   12.6069 N   0  0  0  0  0  0
   33.8780    2.4246   12.4145 C   0  0  0  0  0  0
   33.4135    1.7405   13.5349 C   0  0  0  0  0  0
   34.3669    2.2041   14.9139 S   0  0  0  0  0  0
   39.4847    6.0093   13.0725 H   0  0  0  0  0  0
   36.9110    5.4164   16.4873 H   0  0  0  0  0  0
   41.0773    7.2782   14.4310 H   0  0  0  0  0  0
   36.3268    3.9838   15.4431 H   0  0  0  0  0  0
   41.4711    8.1340   17.1811 H   0  0  0  0  0  0
   37.3360    5.5545   19.2304 H   0  0  0  0  0  0
   36.9198    7.2259   19.2469 H   0  0  0  0  0  0
   37.7024    7.0684   21.4162 H   0  0  0  0  0  0
   39.7883    8.1318   21.6048 H   0  0  0  0  0  0
   39.4780    5.6256   22.2716 H   0  0  0  0  0  0
   39.7917    4.9857   20.6640 H   0  0  0  0  0  0
   37.5374    4.1693   20.6504 H   0  0  0  0  0  0
   38.3770    3.5593   21.8734 H   0  0  0  0  0  0
   33.4743    2.3339   11.4165 H   0  0  0  0  0  0
   32.6012    1.0334   13.6181 H   0  0  0  0  0  0
  1  2  2  0  0  0
  1  4  1  0  0  0
  1 25  1  0  0  0
  2  5  1  0  0  0
  2  3  1  0  0  0
  3 10  2  0  0  0
  3 26  1  0  0  0
  4  9  2  0  0  0
  4 27  1  0  0  0
  5  6  2  0  0  0
  5  7  1  0  0  0
  7  8  1  0  0  0
  7 28  1  0  0  0
  8 21  2  0  0  0
  8 24  1  0  0  0
  9 11  1  0  0  0
  9 10  1  0  0  0
 10 13  1  0  0  0
 11 12  1  0  0  0
 11 29  1  0  0  0
 12 13  2  0  0  0
 12 17  1  0  0  0
 13 14  1  0  0  0
 14 15  1  0  0  0
 14 30  1  0  0  0
 14 31  1  0  0  0
 15 16  1  0  0  0
 15 19  1  0  0  0
 15 32  1  0  0  0
 16 17  1  0  0  0
 16 33  1  0  0  0
 17 18  2  0  0  0
 19 20  1  0  0  0
 19 34  1  0  0  0
 19 35  1  0  0  0
 20 36  1  0  0  0
 20 37  1  0  0  0
 21 22  1  0  0  0
 22 23  2  0  0  0
 22 38  1  0  0  0
 23 24  1  0  0  0
 23 39  1  0  0  0
M  END
> <s_m_entry_id>
7546

> <s_m_entry_name>
dock_pv.107

> <s_m_Source_Path>
/home/csk/Desktop/cluster/DUD-E-result/mapk2

> <s_m_Source_File>
dock_pv.maegz

> <i_m_Source_File_Index>
107

> <chembl_id>
CHEMBL270203

> <chembl_pref_name>
None

> <i_lp_mmshare_version>
53161

> <i_f3d_flags>
0

> <r_lp_tautomer_probability>
0.999000488399163

> <s_lp_Force_Field>
OPLS_2005

> <r_lp_Energy>
27.084868

> <b_lp_Chiralities_Consistent>
1

> <s_lp_Variant>
CHEMBL2208_lig223-1

> <s_i_glide_gridfile>
glide-grid_3m2w

> <i_i_glide_lignum>
351

> <i_i_glide_rotatable_bonds>
4

> <r_i_docking_score>
-7.34233704783304

> <r_i_glide_ligand_efficiency>
-0.305930710326377

> <r_i_glide_ligand_efficiency_sa>
-0.882456870089282

> <r_i_glide_ligand_efficiency_ln>
-1.75735817343971

> <r_i_glide_gscore>
-7.34233704783304

> <r_i_glide_lipo>
-2.4465382034468

> <r_i_glide_hbond>
-0.688594755662574

> <r_i_glide_metal>
0

> <r_i_glide_rewards>
-1.23309896758877

> <r_i_glide_evdw>
-35.4795951843262

> <r_i_glide_ecoul>
-10.537956237793

> <r_i_glide_erotb>
0.487772388345099

> <r_i_glide_esite>
-0.107204314594741

> <r_i_glide_emodel>
-65.9077366669786

> <r_i_glide_energy>
-46.0175514221191

> <r_i_glide_einternal>
1.60900187492371

> <i_i_glide_confnum>
2

> <i_i_glide_posenum>
387

> <r_i_glide_eff_state_penalty>
0

> <s_user_duplicate_titles>
CHEMBL2208_lig223,434039

> <s_m_subgroup_title>
dock_pv

> <s_m_subgroupid>
dock_pv

> <b_m_subgroup_collapsed>
1

$$$$
CHEMBL2208_lig300
                    3D
 Schrodinger Suite 2021-1.
 33 35  0  0  1  0            999 V2000
   37.7469    5.4425   14.5685 C   0  0  0  0  0  0
   38.8317    6.0286   13.9297 C   0  0  0  0  0  0
   39.7807    6.7700   14.6201 C   0  0  0  0  0  0
   37.5864    5.5903   15.9540 C   0  0  0  0  0  0
   40.6793    7.7945   17.0716 S   0  0  0  0  0  0
   38.5379    6.3133   16.7062 C   0  0  0  0  0  0
   39.6233    6.9084   16.0029 C   0  0  0  0  0  0
   39.6996    7.3826   18.4758 C   0  0  0  0  0  0
   38.6193    6.5623   18.1212 C   0  0  0  0  0  0
   37.6768    6.0333   18.9732 N   0  0  0  0  0  0
   40.2097    7.8927   19.7510 C   0  0  0  0  0  0
   37.9048    5.8451   20.3955 C   0  0  0  0  0  0
   39.4322    7.8087   20.8440 N   0  0  0  0  0  0
   38.1556    7.1631   21.1542 C   0  0  2  0  0  0
   36.8890    4.7362   13.7538 O   0  0  0  0  0  0
   35.9180    3.8731   14.3352 C   0  0  0  0  0  0
   41.3171    8.4264   19.8293 O   0  0  0  0  0  0
   38.0330    6.9342   22.6844 C   0  0  0  0  0  0
   38.2780    8.1105   23.4443 O   0  0  0  0  0  0
   38.9394    5.9088   12.8634 H   0  0  0  0  0  0
   40.6130    7.2238   14.0989 H   0  0  0  0  0  0
   36.7423    5.1423   16.4521 H   0  0  0  0  0  0
   37.1154    5.2973   18.5666 H   0  0  0  0  0  0
   38.7400    5.1571   20.5424 H   0  0  0  0  0  0
   37.0224    5.3474   20.7998 H   0  0  0  0  0  0
   39.8748    8.2166   21.6535 H   0  0  0  0  0  0
   37.3731    7.8734   20.8783 H   0  0  0  0  0  0
   35.4565    3.2786   13.5466 H   0  0  0  0  0  0
   36.3669    3.1776   15.0459 H   0  0  0  0  0  0
   35.1228    4.4271   14.8289 H   0  0  0  0  0  0
   38.7347    6.1643   23.0120 H   0  0  0  0  0  0
   37.0336    6.5730   22.9327 H   0  0  0  0  0  0
   39.1552    8.0251   23.8695 H   0  0  0  0  0  0
  1  4  1  0  0  0
  1 15  1  0  0  0
  1  2  2  0  0  0
  2  3  1  0  0  0
  2 20  1  0  0  0
  3  7  2  0  0  0
  3 21  1  0  0  0
  4  6  2  0  0  0
  4 22  1  0  0  0
  5  8  1  0  0  0
  5  7  1  0  0  0
  6  7  1  0  0  0
  6  9  1  0  0  0
  8  9  2  0  0  0
  8 11  1  0  0  0
  9 10  1  0  0  0
 10 12  1  0  0  0
 10 23  1  0  0  0
 11 13  1  0  0  0
 11 17  2  0  0  0
 12 14  1  0  0  0
 12 24  1  0  0  0
 12 25  1  0  0  0
 13 14  1  0  0  0
 13 26  1  0  0  0
 14 18  1  0  0  0
 14 27  1  0  0  0
 15 16  1  0  0  0
 16 28  1  0  0  0
 16 29  1  0  0  0
 16 30  1  0  0  0
 18 19  1  0  0  0
 18 31  1  0  0  0
 18 32  1  0  0  0
 19 33  1  0  0  0
M  END
> <s_m_entry_id>
7547

> <s_m_entry_name>
dock_pv.108

> <s_m_Source_Path>
/home/csk/Desktop/cluster/DUD-E-result/mapk2

> <s_m_Source_File>
dock_pv.maegz

> <i_m_Source_File_Index>
108

> <chembl_id>
CHEMBL553397

> <chembl_pref_name>
None

> <i_lp_mmshare_version>
53161

> <i_f3d_flags>
0

> <r_lp_tautomer_probability>
1

> <s_lp_Force_Field>
OPLS_2005

> <r_lp_Energy>
27.615563

> <b_lp_Chiralities_Consistent>
1

> <s_lp_Variant>
CHEMBL2208_lig300-1

> <s_i_glide_gridfile>
glide-grid_3m2w

> <i_i_glide_lignum>
439

> <i_i_glide_rotatable_bonds>
3

> <r_i_docking_score>
-7.33277068021484

> <r_i_glide_ligand_efficiency>
-0.385935298958676

> <r_i_glide_ligand_efficiency_sa>
-1.02983038703057

> <r_i_glide_ligand_efficiency_ln>
-1.85901486090791

> <r_i_glide_gscore>
-7.33277068021484

> <r_i_glide_lipo>
-2.34634369413886

> <r_i_glide_hbond>
-0.304612913852108

> <r_i_glide_metal>
0

> <r_i_glide_rewards>
-1.5058288953817

> <r_i_glide_evdw>
-33.9735527038574

> <r_i_glide_ecoul>
-10.7257595062256

> <r_i_glide_erotb>
0.232670369800088

> <r_i_glide_esite>
-0.101113985515551

> <r_i_glide_emodel>
-63.690516330697

> <r_i_glide_energy>
-44.699312210083

> <r_i_glide_einternal>
2.68980526924133

> <i_i_glide_confnum>
2

> <i_i_glide_posenum>
306

> <r_i_glide_eff_state_penalty>
0

> <s_user_duplicate_titles>
CHEMBL2208_lig300,557315

> <s_m_subgroup_title>
dock_pv

> <s_m_subgroupid>
dock_pv

> <b_m_subgroup_collapsed>
1

$$$$
CHEMBL2208_lig53
                    3D
 Schrodinger Suite 2021-1.
 38 40  0  0  1  0            999 V2000
   38.4498    6.0791   15.2379 C   0  0  0  0  0  0
   37.4630    5.6273   16.1484 C   0  0  0  0  0  0
   37.6389    5.8207   17.5337 C   0  0  0  0  0  0
   39.5765    6.7743   15.7168 C   0  0  0  0  0  0
   38.7517    6.5576   17.9688 C   0  0  0  0  0  0
   39.7100    7.0180   17.0769 C   0  0  0  0  0  0
   38.9787    6.8789   19.2895 O   0  0  0  0  0  0
   38.2215    6.3118   20.2885 C   0  0  0  0  0  0
   37.1084    5.5015   20.0200 C   0  0  0  0  0  0
   36.7016    5.2137   18.5794 C   0  0  0  0  0  0
   38.2994    5.8292   13.8029 C   0  0  0  0  0  0
   38.6193    6.5873   21.5976 C   0  0  0  0  0  0
   38.1769    5.6250   12.6729 N   0  0  0  0  0  0
   37.8984    6.0649   22.6702 C   0  0  0  0  0  0
   36.4038    4.9721   21.1073 C   0  0  0  0  0  0
   36.7904    5.2463   22.4204 C   0  0  0  0  0  0
   36.2783    5.0073   15.6895 N   0  0  0  0  0  0
   40.5888    7.2619   14.8822 N   0  0  0  0  0  0
   38.2780    6.3621   23.9583 O   0  0  0  0  0  0
   36.0781    4.7044   23.4577 O   0  0  0  0  0  0
   35.4774    1.6476   14.2721 O   0  0  0  0  0  0
   36.4252    3.6053   15.3232 C   0  0  0  0  0  0
   35.2036    2.9857   14.6396 C   0  0  0  0  0  0
   40.5601    7.5664   17.4547 H   0  0  0  0  0  0
   35.6920    5.5625   18.3958 H   0  0  0  0  0  0
   36.6750    4.1316   18.4422 H   0  0  0  0  0  0
   39.4769    7.2150   21.7792 H   0  0  0  0  0  0
   35.5506    4.3323   20.9351 H   0  0  0  0  0  0
   35.4544    5.1593   16.2681 H   0  0  0  0  0  0
   41.3181    7.8418   15.2709 H   0  0  0  0  0  0
   40.5226    7.1193   13.8839 H   0  0  0  0  0  0
   39.1620    6.7553   24.0341 H   0  0  0  0  0  0
   36.4432    4.9948   24.2981 H   0  0  0  0  0  0
   36.2274    1.6510   13.6626 H   0  0  0  0  0  0
   36.6771    3.0375   16.2182 H   0  0  0  0  0  0
   37.2921    3.4733   14.6754 H   0  0  0  0  0  0
   34.9253    3.5897   13.7753 H   0  0  0  0  0  0
   34.3202    3.0818   15.2723 H   0  0  0  0  0  0
  1  2  2  0  0  0
  1  4  1  0  0  0
  1 11  1  0  0  0
  2  3  1  0  0  0
  2 17  1  0  0  0
  3 10  1  0  0  0
  3  5  2  0  0  0
  4  6  2  0  0  0
  4 18  1  0  0  0
  5  6  1  0  0  0
  5  7  1  0  0  0
  6 24  1  0  0  0
  7  8  1  0  0  0
  8 12  2  0  0  0
  8  9  1  0  0  0
  9 10  1  0  0  0
  9 15  2  0  0  0
 10 25  1  0  0  0
 10 26  1  0  0  0
 11 13  3  0  0  0
 12 14  1  0  0  0
 12 27  1  0  0  0
 14 19  1  0  0  0
 14 16  2  0  0  0
 15 16  1  0  0  0
 15 28  1  0  0  0
 16 20  1  0  0  0
 17 22  1  0  0  0
 17 29  1  0  0  0
 18 30  1  0  0  0
 18 31  1  0  0  0
 19 32  1  0  0  0
 20 33  1  0  0  0
 21 23  1  0  0  0
 21 34  1  0  0  0
 22 23  1  0  0  0
 22 35  1  0  0  0
 22 36  1  0  0  0
 23 37  1  0  0  0
 23 38  1  0  0  0
M  END
> <s_m_entry_id>
7548

> <s_m_entry_name>
dock_pv.109

> <s_m_Source_Path>
/home/csk/Desktop/cluster/DUD-E-result/mapk2

> <s_m_Source_File>
dock_pv.maegz

> <i_m_Source_File_Index>
109

> <chembl_id>
CHEMBL3706783

> <chembl_pref_name>
None

> <i_lp_mmshare_version>
53161

> <i_f3d_flags>
0

> <r_lp_tautomer_probability>
0.999999724415991

> <s_lp_Force_Field>
OPLS_2005

> <r_lp_Energy>
32.628613

> <b_lp_Chiralities_Consistent>
1

> <s_lp_Variant>
CHEMBL2208_lig53-1

> <s_i_glide_gridfile>
glide-grid_3m2w

> <i_i_glide_lignum>
59

> <i_i_glide_rotatable_bonds>
6

> <r_i_docking_score>
-7.33029928559297

> <r_i_glide_ligand_efficiency>
-0.318708664590999

> <r_i_glide_ligand_efficiency_sa>
-0.906365046475629

> <r_i_glide_ligand_efficiency_ln>
-1.77253283473545

> <r_i_glide_gscore>
-7.33029928559297

> <r_i_glide_lipo>
-1.84019811021581

> <r_i_glide_hbond>
-0.96

> <r_i_glide_metal>
0

> <r_i_glide_rewards>
-1.72924853233799

> <r_i_glide_evdw>
-31.8968963623047

> <r_i_glide_ecoul>
-11.5323104858398

> <r_i_glide_erotb>
0.567599550973876

> <r_i_glide_esite>
-0.043760803021837

> <r_i_glide_emodel>
-62.2804546783501

> <r_i_glide_energy>
-43.4292068481445

> <r_i_glide_einternal>
3.06595325469971

> <i_i_glide_confnum>
34

> <i_i_glide_posenum>
308

> <r_i_glide_eff_state_penalty>
0

> <s_user_duplicate_titles>
CHEMBL2208_lig53

> <s_m_subgroup_title>
dock_pv

> <s_m_subgroupid>
dock_pv

> <b_m_subgroup_collapsed>
1

$$$$
CHEMBL2208_lig486
                    3D
 Schrodinger Suite 2021-1.
 38 42  0  0  1  0            999 V2000
   37.7697    5.2249   13.1368 N   0  0  0  0  0  0
   36.9320    4.8316   14.1291 C   0  0  0  0  0  0
   37.0930    5.2271   15.4575 C   0  0  0  0  0  0
   38.8468    5.9718   13.4710 C   0  0  0  0  0  0
   39.1417    6.3948   14.7775 C   0  0  0  0  0  0
   38.2257    6.0093   15.7937 C   0  0  0  0  0  0
   40.5317    7.5538   16.4226 C   0  0  0  0  0  0
   40.2792    7.1673   15.1063 C   0  0  0  0  0  0
   39.6401    7.1800   17.4388 C   0  0  0  0  0  0
   38.4917    6.4146   17.1197 C   0  0  0  0  0  0
   37.7715    6.1658   18.2728 N   0  0  0  0  0  0
   35.8780    4.0171   13.7135 N   0  0  0  0  0  0
   39.5693    7.3921   18.8453 C   0  0  0  0  0  0
   38.4395    6.7836   19.2993 C   0  0  0  0  0  0
   38.2860    6.9611   20.7566 C   0  0  0  0  0  0
   39.4780    7.7573   21.0137 N   0  0  0  0  0  0
   40.2374    8.0251   19.9240 C   0  0  0  0  0  0
   41.2634    8.6974   19.8719 O   0  0  0  0  0  0
   35.1489    2.9884   14.3328 C   0  0  0  0  0  0
   34.0942    2.4247   13.6101 C   0  0  0  0  0  0
   33.3569    1.3623   14.1323 C   0  0  0  0  0  0
   33.6844    0.8389   15.3819 C   0  0  0  0  0  0
   34.7468    1.3780   16.1038 C   0  0  0  0  0  0
   35.4744    2.4469   15.5831 C   0  0  0  0  0  0
   35.0808    0.8542   17.3037 F   0  0  0  0  0  0
   36.3781    4.9558   16.2181 H   0  0  0  0  0  0
   39.5112    6.2486   12.6643 H   0  0  0  0  0  0
   41.4077    8.1413   16.6562 H   0  0  0  0  0  0
   40.9659    7.4571   14.3232 H   0  0  0  0  0  0
   36.9173    5.6405   18.3923 H   0  0  0  0  0  0
   35.8118    3.9845   12.7086 H   0  0  0  0  0  0
   38.3219    6.0232   21.3142 H   0  0  0  0  0  0
   37.3838    7.5051   21.0406 H   0  0  0  0  0  0
   39.8957    7.6674   21.9319 H   0  0  0  0  0  0
   33.8391    2.8129   12.6348 H   0  0  0  0  0  0
   32.5380    0.9428   13.5672 H   0  0  0  0  0  0
   33.1201    0.0154   15.7926 H   0  0  0  0  0  0
   36.2982    2.8205   16.1621 H   0  0  0  0  0  0
  1  2  2  0  0  0
  1  4  1  0  0  0
  2  3  1  0  0  0
  2 12  1  0  0  0
  3  6  2  0  0  0
  3 26  1  0  0  0
  4  5  2  0  0  0
  4 27  1  0  0  0
  5  6  1  0  0  0
  5  8  1  0  0  0
  6 10  1  0  0  0
  7  9  1  0  0  0
  7  8  2  0  0  0
  7 28  1  0  0  0
  8 29  1  0  0  0
  9 13  1  0  0  0
  9 10  2  0  0  0
 10 11  1  0  0  0
 11 14  1  0  0  0
 11 30  1  0  0  0
 12 19  1  0  0  0
 12 31  1  0  0  0
 13 14  2  0  0  0
 13 17  1  0  0  0
 14 15  1  0  0  0
 15 16  1  0  0  0
 15 32  1  0  0  0
 15 33  1  0  0  0
 16 17  1  0  0  0
 16 34  1  0  0  0
 17 18  2  0  0  0
 19 20  2  0  0  0
 19 24  1  0  0  0
 20 21  1  0  0  0
 20 35  1  0  0  0
 21 22  2  0  0  0
 21 36  1  0  0  0
 22 23  1  0  0  0
 22 37  1  0  0  0
 23 24  2  0  0  0
 23 25  1  0  0  0
 24 38  1  0  0  0
M  END
> <s_m_entry_id>
7549

> <s_m_entry_name>
dock_pv.110

> <s_m_Source_Path>
/home/csk/Desktop/cluster/DUD-E-result/mapk2

> <s_m_Source_File>
dock_pv.maegz

> <i_m_Source_File_Index>
110

> <chembl_id>
CHEMBL1801376

> <chembl_pref_name>
None

> <i_lp_mmshare_version>
53161

> <i_f3d_flags>
0

> <r_lp_tautomer_probability>
1

> <s_lp_Force_Field>
OPLS_2005

> <r_lp_Energy>
58.992662

> <b_lp_Chiralities_Consistent>
1

> <s_lp_Variant>
CHEMBL2208_lig486-1

> <s_i_glide_gridfile>
glide-grid_3m2w

> <i_i_glide_lignum>
656

> <i_i_glide_rotatable_bonds>
2

> <r_i_docking_score>
-7.32772557724678

> <r_i_glide_ligand_efficiency>
-0.293109023089871

> <r_i_glide_ligand_efficiency_sa>
-0.857055981825443

> <r_i_glide_ligand_efficiency_ln>
-1.73689055602287

> <r_i_glide_gscore>
-7.32772557724678

> <r_i_glide_lipo>
-2.859034024616

> <r_i_glide_hbond>
-0.323221138859364

> <r_i_glide_metal>
0

> <r_i_glide_rewards>
-1.48468773070419

> <r_i_glide_evdw>
-38.9616088867188

> <r_i_glide_ecoul>
-6.28190565109253

> <r_i_glide_erotb>
0.341042547657229

> <r_i_glide_esite>
-0.111458938724638

> <r_i_glide_emodel>
-63.4974567723395

> <r_i_glide_energy>
-45.2435145378113

> <r_i_glide_einternal>
4.42672204971313

> <i_i_glide_confnum>
2

> <i_i_glide_posenum>
365

> <r_i_glide_eff_state_penalty>
0

> <s_user_duplicate_titles>
CHEMBL2208_lig486

> <s_m_subgroup_title>
dock_pv

> <s_m_subgroupid>
dock_pv

> <b_m_subgroup_collapsed>
1

$$$$
CHEMBL2208_lig1131
                    3D
 Schrodinger Suite 2021-1.
 53 56  0  0  1  0            999 V2000
   33.0384   -2.2038   16.5627 F   0  0  0  0  0  0
   33.8757   -1.7749   18.4925 F   0  0  0  0  0  0
   32.2120   -0.5771   17.7022 F   0  0  0  0  0  0
   37.3754    5.0049   21.9369 O   0  0  0  0  0  0
   34.2762   -0.3749   16.7327 O   0  0  0  0  0  0
   40.0791    6.3432   13.5351 N   0  0  0  0  0  0
   39.0089    5.6784   13.0724 N   0  0  0  0  0  0
   38.8216    8.2078   21.0167 N   0  0  0  0  0  0
   34.5405    4.5565   22.2768 N   0  0  0  0  0  0
   38.7500    6.0100   15.2902 C   0  0  0  0  0  0
   39.9885    6.5703   14.8928 C   0  0  0  0  0  0
   39.2122    6.7094   17.5678 C   0  0  0  0  0  0
   38.1998    5.4734   14.0805 C   0  0  0  0  0  0
   38.3628    6.0859   16.6416 C   0  0  0  0  0  0
   38.8349    6.8336   19.0081 C   0  0  0  0  0  0
   40.8465    7.1960   15.7962 C   0  0  0  0  0  0
   40.4306    7.2432   17.1256 C   0  0  0  0  0  0
   38.2368    5.7888   19.7347 C   0  0  0  0  0  0
   37.9402    5.9505   21.1026 C   0  0  0  0  0  0
   39.0889    8.0244   19.7026 C   0  0  0  0  0  0
   36.9086    4.7237   13.8611 C   0  0  0  0  0  0
   38.2695    7.1722   21.6911 C   0  0  0  0  0  0
   34.6874    0.8160   17.2981 C   0  0  0  0  0  0
   34.8527    2.4701   19.0864 C   0  0  0  0  0  0
   34.4089    1.2288   18.6134 C   0  0  0  0  0  0
   33.3438   -1.2180   17.4054 C   0  0  0  0  0  0
   35.2438    4.1257   21.0798 C   0  0  2  0  0  0
   34.4950    2.8916   20.5111 C   0  0  0  0  0  0
   36.7303    3.8403   21.4182 C   0  0  0  0  0  0
   35.4356    1.6568   16.4739 C   0  0  0  0  0  0
   35.5820    3.3005   18.2308 C   0  0  0  0  0  0
   35.8768    2.8920   16.9380 C   0  0  0  0  0  0
   40.8239    6.6058   12.8997 H   0  0  0  0  0  0
   34.5669    3.8186   22.9662 H   0  0  0  0  0  0
   35.0376    5.3355   22.6964 H   0  0  0  0  0  0
   37.4150    5.6771   16.9583 H   0  0  0  0  0  0
   41.7900    7.6231   15.4899 H   0  0  0  0  0  0
   41.0891    7.7155   17.8398 H   0  0  0  0  0  0
   38.0458    4.8542   19.2344 H   0  0  0  0  0  0
   39.5224    8.8730   19.1973 H   0  0  0  0  0  0
   36.0579    5.2189   14.3295 H   0  0  0  0  0  0
   36.6762    4.6073   12.8024 H   0  0  0  0  0  0
   36.9720    3.7147   14.2645 H   0  0  0  0  0  0
   38.0873    7.3324   22.7440 H   0  0  0  0  0  0
   33.8503    0.5939   19.2852 H   0  0  0  0  0  0
   35.1762    4.9612   20.3838 H   0  0  0  0  0  0
   33.4205    3.0841   20.5059 H   0  0  0  0  0  0
   34.6457    2.0336   21.1720 H   0  0  0  0  0  0
   36.7781    3.0826   22.2010 H   0  0  0  0  0  0
   37.2684    3.4019   20.5789 H   0  0  0  0  0  0
   35.6659    1.3550   15.4628 H   0  0  0  0  0  0
   35.9228    4.2747   18.5395 H   0  0  0  0  0  0
   36.4433    3.5499   16.3041 H   0  0  0  0  0  0
  1 26  1  0  0  0
  2 26  1  0  0  0
  3 26  1  0  0  0
  4 19  1  0  0  0
  4 29  1  0  0  0
  5 23  1  0  0  0
  5 26  1  0  0  0
  6  7  1  0  0  0
  6 11  1  0  0  0
  6 33  1  0  0  0
  7 13  2  0  0  0
  8 20  1  0  0  0
  8 22  2  0  0  0
  9 27  1  0  0  0
  9 34  1  0  0  0
  9 35  1  0  0  0
 10 11  1  0  0  0
 10 13  1  0  0  0
 10 14  2  0  0  0
 11 16  2  0  0  0
 12 14  1  0  0  0
 12 15  1  0  0  0
 12 17  2  0  0  0
 13 21  1  0  0  0
 14 36  1  0  0  0
 15 18  1  0  0  0
 15 20  2  0  0  0
 16 17  1  0  0  0
 16 37  1  0  0  0
 17 38  1  0  0  0
 18 19  2  0  0  0
 18 39  1  0  0  0
 19 22  1  0  0  0
 20 40  1  0  0  0
 21 41  1  0  0  0
 21 42  1  0  0  0
 21 43  1  0  0  0
 22 44  1  0  0  0
 23 25  2  0  0  0
 23 30  1  0  0  0
 24 25  1  0  0  0
 24 28  1  0  0  0
 24 31  2  0  0  0
 25 45  1  0  0  0
 27 28  1  0  0  0
 27 29  1  0  0  0
 27 46  1  0  0  0
 28 47  1  0  0  0
 28 48  1  0  0  0
 29 49  1  0  0  0
 29 50  1  0  0  0
 30 32  2  0  0  0
 30 51  1  0  0  0
 31 32  1  0  0  0
 31 52  1  0  0  0
 32 53  1  0  0  0
M  END
> <s_m_entry_id>
7550

> <s_m_entry_name>
dock_pv.111

> <s_m_Source_Path>
/home/csk/Desktop/cluster/DUD-E-result/mapk2

> <s_m_Source_File>
dock_pv.maegz

> <i_m_Source_File_Index>
111

> <chembl_id>
CHEMBL1965836

> <chembl_pref_name>
None

> <i_lp_mmshare_version>
53161

> <i_f3d_flags>
0

> <r_lp_tautomer_probability>
0.980392156862745

> <s_lp_Force_Field>
OPLS_2005

> <r_lp_Energy>
24.873715

> <b_lp_Chiralities_Consistent>
1

> <s_lp_Variant>
CHEMBL2208_lig1131-1

> <s_i_glide_gridfile>
glide-grid_3m2w

> <i_i_glide_lignum>
1510

> <i_i_glide_rotatable_bonds>
8

> <r_i_docking_score>
-7.32241550741903

> <r_i_glide_ligand_efficiency>
-0.228825484606845

> <r_i_glide_ligand_efficiency_sa>
-0.726475629124819

> <r_i_glide_ligand_efficiency_ln>
-1.63968843361927

> <r_i_glide_gscore>
-7.32241550741903

> <r_i_glide_lipo>
-2.27873318750824

> <r_i_glide_hbond>
-0.623888351447018

> <r_i_glide_metal>
0

> <r_i_glide_rewards>
-1.86936041315954

> <r_i_glide_evdw>
-45.0724983215332

> <r_i_glide_ecoul>
-6.19787454605103

> <r_i_glide_erotb>
0.714610432946625

> <r_i_glide_esite>
-0.0817378902665531

> <r_i_glide_emodel>
-68.2508795414145

> <r_i_glide_energy>
-51.2703728675842

> <r_i_glide_einternal>
11.3531131744385

> <i_i_glide_confnum>
47

> <i_i_glide_posenum>
245

> <r_i_glide_eff_state_penalty>
0

> <s_user_duplicate_titles>
CHEMBL2208_lig1131,CHEMBL2208_lig1131

> <s_m_subgroup_title>
dock_pv

> <s_m_subgroupid>
dock_pv

> <b_m_subgroup_collapsed>
1

$$$$
CHEMBL2208_lig1259
                    3D
 Schrodinger Suite 2021-1.
 48 51  0  0  1  0            999 V2000
   36.7298    4.6371   14.7835 O   0  0  0  0  0  0
   37.5630    5.2525   12.7482 O   0  0  0  0  0  0
   37.8782    5.7399   17.1651 N   0  0  0  0  0  0
   39.5918    6.8008   18.1097 N   0  0  0  0  0  0
   36.3746    4.7748   23.4752 N   0  0  0  0  0  0
   35.3024    6.0319   26.2187 N   0  0  0  0  0  0
   38.7129    6.1997   16.1713 C   0  0  0  0  0  0
   39.7937    6.9129   16.7565 C   0  0  0  0  0  0
   38.4425    6.0743   18.3025 C   0  0  0  0  0  0
   38.6369    6.0499   14.7596 C   0  0  0  0  0  0
   37.9116    5.7171   19.6581 C   0  0  0  0  0  0
   40.7836    7.5309   16.0001 C   0  0  0  0  0  0
   37.5985    5.2947   13.9821 C   0  0  0  0  0  0
   39.6604    6.6711   14.0190 C   0  0  0  0  0  0
   36.8948    5.0698   22.2045 C   0  0  0  0  0  0
   38.6826    5.9297   20.8071 C   0  0  0  0  0  0
   36.6367    5.1568   19.7922 C   0  0  0  0  0  0
   40.6775    7.4059   14.6182 C   0  0  0  0  0  0
   38.1750    5.6158   22.0642 C   0  0  0  0  0  0
   36.1361    4.8368   21.0512 C   0  0  0  0  0  0
   37.0276    5.0236   24.7641 C   0  0  0  0  0  0
   35.0971    4.1249   23.7646 C   0  0  0  0  0  0
   36.0080    4.8027   25.8954 C   0  0  2  0  0  0
   35.0873    3.7780   25.2517 C   0  0  0  0  0  0
   35.6623    3.8601   14.2613 C   0  0  0  0  0  0
   35.4715    2.6104   15.1226 C   0  0  0  0  0  0
   40.1637    7.1432   18.8652 H   0  0  0  0  0  0
   35.9788    6.7538   26.4164 H   0  0  0  0  0  0
   34.8159    6.3370   25.3794 H   0  0  0  0  0  0
   41.5974    8.0722   16.4547 H   0  0  0  0  0  0
   39.6835    6.5992   12.9382 H   0  0  0  0  0  0
   39.6826    6.3332   20.7447 H   0  0  0  0  0  0
   36.0288    4.9668   18.9190 H   0  0  0  0  0  0
   41.4264    7.8668   13.9893 H   0  0  0  0  0  0
   38.7993    5.7938   22.9285 H   0  0  0  0  0  0
   35.1498    4.4040   21.1204 H   0  0  0  0  0  0
   37.8905    4.3642   24.8722 H   0  0  0  0  0  0
   37.3780    6.0572   24.7759 H   0  0  0  0  0  0
   34.2560    4.7702   23.5042 H   0  0  0  0  0  0
   35.0298    3.2002   23.1883 H   0  0  0  0  0  0
   36.5367    4.3842   26.7525 H   0  0  0  0  0  0
   34.0758    3.8183   25.6587 H   0  0  0  0  0  0
   35.4398    2.7623   25.4345 H   0  0  0  0  0  0
   35.8421    3.5599   13.2265 H   0  0  0  0  0  0
   34.7552    4.4633   14.2722 H   0  0  0  0  0  0
   34.6385    2.0146   14.7521 H   0  0  0  0  0  0
   35.2605    2.8735   16.1598 H   0  0  0  0  0  0
   36.3617    1.9823   15.1047 H   0  0  0  0  0  0
  1 13  1  0  0  0
  1 25  1  0  0  0
  2 13  2  0  0  0
  3  7  1  0  0  0
  3  9  2  0  0  0
  4  8  1  0  0  0
  4  9  1  0  0  0
  4 27  1  0  0  0
  5 15  1  0  0  0
  5 21  1  0  0  0
  5 22  1  0  0  0
  6 23  1  0  0  0
  6 28  1  0  0  0
  6 29  1  0  0  0
  7  8  2  0  0  0
  7 10  1  0  0  0
  8 12  1  0  0  0
  9 11  1  0  0  0
 10 13  1  0  0  0
 10 14  2  0  0  0
 11 16  2  0  0  0
 11 17  1  0  0  0
 12 18  2  0  0  0
 12 30  1  0  0  0
 14 18  1  0  0  0
 14 31  1  0  0  0
 15 19  2  0  0  0
 15 20  1  0  0  0
 16 19  1  0  0  0
 16 32  1  0  0  0
 17 20  2  0  0  0
 17 33  1  0  0  0
 18 34  1  0  0  0
 19 35  1  0  0  0
 20 36  1  0  0  0
 21 23  1  0  0  0
 21 37  1  0  0  0
 21 38  1  0  0  0
 22 24  1  0  0  0
 22 39  1  0  0  0
 22 40  1  0  0  0
 23 24  1  0  0  0
 23 41  1  0  0  0
 24 42  1  0  0  0
 24 43  1  0  0  0
 25 26  1  0  0  0
 25 44  1  0  0  0
 25 45  1  0  0  0
 26 46  1  0  0  0
 26 47  1  0  0  0
 26 48  1  0  0  0
M  END
> <s_m_entry_id>
7551

> <s_m_entry_name>
dock_pv.112

> <s_m_Source_Path>
/home/csk/Desktop/cluster/DUD-E-result/mapk2

> <s_m_Source_File>
dock_pv.maegz

> <i_m_Source_File_Index>
112

> <chembl_id>
CHEMBL1995736

> <chembl_pref_name>
None

> <i_lp_mmshare_version>
53161

> <i_f3d_flags>
0

> <r_lp_tautomer_probability>
1

> <s_lp_Force_Field>
OPLS_2005

> <r_lp_Energy>
44.109469

> <b_lp_Chiralities_Consistent>
1

> <s_lp_Variant>
CHEMBL2208_lig1259-1

> <s_i_glide_gridfile>
glide-grid_3m2w

> <i_i_glide_lignum>
1707

> <i_i_glide_rotatable_bonds>
5

> <r_i_docking_score>
-7.3177102510726

> <r_i_glide_ligand_efficiency>
-0.281450394272023

> <r_i_glide_ligand_efficiency_sa>
-0.833795685577044

> <r_i_glide_ligand_efficiency_ln>
-1.71854024109861

> <r_i_glide_gscore>
-7.3177102510726

> <r_i_glide_lipo>
-2.5188459690552

> <r_i_glide_hbond>
-0.541237670825102

> <r_i_glide_metal>
0

> <r_i_glide_rewards>
-2.21589487929845

> <r_i_glide_evdw>
-44.0716896057129

> <r_i_glide_ecoul>
-3.06041479110718

> <r_i_glide_erotb>
0.62091496705787

> <r_i_glide_esite>
0

> <r_i_glide_emodel>
-67.304802584369

> <r_i_glide_energy>
-47.1321043968201

> <r_i_glide_einternal>
1.32754147052765

> <i_i_glide_confnum>
9

> <i_i_glide_posenum>
146

> <r_i_glide_eff_state_penalty>
0

> <s_user_duplicate_titles>
CHEMBL2208_lig1259

> <s_m_subgroup_title>
dock_pv

> <s_m_subgroupid>
dock_pv

> <b_m_subgroup_collapsed>
1

$$$$
CHEMBL2208_lig1540
                    3D
 Schrodinger Suite 2021-1.
 30 32  0  0  1  0            999 V2000
   36.6785    4.0625   19.2819 O   0  0  0  0  0  0
   39.2019    7.8330   20.1087 O   0  0  0  0  0  0
   36.6726    5.4616   14.7297 O   0  0  0  0  0  0
   38.6833    5.6250   12.8150 O   0  0  0  0  0  0
   40.6776    6.4754   13.4720 O   0  0  0  0  0  0
   38.0263    5.9703   19.3267 N   0  0  0  0  0  0
   37.2732    4.9644   19.8751 C   0  0  0  0  0  0
   38.5201    6.8186   20.2826 C   0  0  0  0  0  0
   37.3148    5.1660   21.3419 C   0  0  0  0  0  0
   38.0573    6.2835   21.5846 C   0  0  0  0  0  0
   38.3303    6.0635   17.9364 C   0  0  0  0  0  0
   37.3659    5.7757   16.9585 C   0  0  0  0  0  0
   36.7568    4.4252   22.3854 C   0  0  0  0  0  0
   38.2777    6.7331   22.8842 C   0  0  0  0  0  0
   39.6219    6.4005   17.5073 C   0  0  0  0  0  0
   37.6860    5.7717   15.6004 C   0  0  0  0  0  0
   38.9976    6.0754   15.1758 C   0  0  0  0  0  0
   39.9476    6.4082   16.1551 C   0  0  0  0  0  0
   36.9776    4.8524   23.6998 C   0  0  0  0  0  0
   37.7364    6.0042   23.9484 C   0  0  0  0  0  0
   39.4136    6.0253   13.7189 C   0  0  0  0  0  0
   35.8532    5.2248   15.1732 H   0  0  0  0  0  0
   40.8840    6.4413   12.5276 H   0  0  0  0  0  0
   36.3553    5.5323   17.2548 H   0  0  0  0  0  0
   36.1805    3.5303   22.1956 H   0  0  0  0  0  0
   38.8773    7.6112   23.0743 H   0  0  0  0  0  0
   40.4012    6.6177   18.2230 H   0  0  0  0  0  0
   40.9673    6.6503   15.8896 H   0  0  0  0  0  0
   36.5673    4.2882   24.5242 H   0  0  0  0  0  0
   37.9205    6.3269   24.9625 H   0  0  0  0  0  0
  1  7  2  0  0  0
  2  8  2  0  0  0
  3 16  1  0  0  0
  3 22  1  0  0  0
  4 21  2  0  0  0
  5 21  1  0  0  0
  5 23  1  0  0  0
  6  7  1  0  0  0
  6  8  1  0  0  0
  6 11  1  0  0  0
  7  9  1  0  0  0
  8 10  1  0  0  0
  9 10  1  0  0  0
  9 13  2  0  0  0
 10 14  2  0  0  0
 11 12  1  0  0  0
 11 15  2  0  0  0
 12 16  2  0  0  0
 12 24  1  0  0  0
 13 19  1  0  0  0
 13 25  1  0  0  0
 14 20  1  0  0  0
 14 26  1  0  0  0
 15 18  1  0  0  0
 15 27  1  0  0  0
 16 17  1  0  0  0
 17 18  2  0  0  0
 17 21  1  0  0  0
 18 28  1  0  0  0
 19 20  2  0  0  0
 19 29  1  0  0  0
 20 30  1  0  0  0
M  END
> <s_m_entry_id>
7552

> <s_m_entry_name>
dock_pv.113

> <s_m_Source_Path>
/home/csk/Desktop/cluster/DUD-E-result/mapk2

> <s_m_Source_File>
dock_pv.maegz

> <i_m_Source_File_Index>
113

> <chembl_id>
CHEMBL1972820

> <chembl_pref_name>
None

> <i_lp_mmshare_version>
53161

> <i_f3d_flags>
0

> <r_lp_tautomer_probability>
1

> <s_lp_Force_Field>
OPLS_2005

> <r_lp_Energy>
53.719421

> <b_lp_Chiralities_Consistent>
1

> <s_lp_Variant>
CHEMBL2208_lig1540-1

> <s_i_glide_gridfile>
glide-grid_3m2w

> <i_i_glide_lignum>
2152

> <i_i_glide_rotatable_bonds>
4

> <r_i_docking_score>
-7.31356702135485

> <r_i_glide_ligand_efficiency>
-0.348265096254993

> <r_i_glide_ligand_efficiency_sa>
-0.960836992872501

> <r_i_glide_ligand_efficiency_ln>
-1.8082646675763

> <r_i_glide_gscore>
-7.31356702135485

> <r_i_glide_lipo>
-1.45380320555589

> <r_i_glide_hbond>
-0.304

> <r_i_glide_metal>
0

> <r_i_glide_rewards>
-2.62525848398362

> <r_i_glide_evdw>
-36.3508796691895

> <r_i_glide_ecoul>
-10.2947721481323

> <r_i_glide_erotb>
0.451421495953057

> <r_i_glide_esite>
-0.0201670220890736

> <r_i_glide_emodel>
-65.3303844025204

> <r_i_glide_energy>
-46.6456518173218

> <r_i_glide_einternal>
5.31038427352905

> <i_i_glide_confnum>
1

> <i_i_glide_posenum>
288

> <r_i_glide_eff_state_penalty>
0

> <s_user_duplicate_titles>
CHEMBL2208_lig1540

> <s_m_subgroup_title>
dock_pv

> <s_m_subgroupid>
dock_pv

> <b_m_subgroup_collapsed>
1

$$$$
CHEMBL2208_lig112
                    3D
 Schrodinger Suite 2021-1.
 36 39  0  0  1  0            999 V2000
   37.7632    5.0934   20.8357 C   0  0  0  0  0  0
   36.4851    4.6418   20.4744 C   0  0  0  0  0  0
   36.0044    4.7293   19.1673 C   0  0  0  0  0  0
   38.6017    5.6525   19.8750 C   0  0  0  0  0  0
   38.1667    5.7502   18.5465 C   0  0  0  0  0  0
   36.8553    5.2950   18.2157 C   0  0  0  0  0  0
   36.6780    5.5282   16.8653 N   0  0  0  0  0  0
   38.7602    6.2166   17.3292 C   0  0  0  0  0  0
   37.8298    6.0487   16.3212 C   0  0  0  0  0  0
   38.1267    6.4234   14.8472 C   0  0  1  0  0  0
   39.4966    7.0111   14.7125 N   0  0  2  0  0  0
   40.4642    6.3117   15.5701 C   0  0  0  0  0  0
   40.1138    6.8226   16.9823 C   0  0  1  0  0  0
   37.8777    5.2757   13.8340 C   0  0  0  0  0  0
   37.1367    4.2345   14.3069 O   0  0  0  0  0  0
   38.2757    5.3295   12.6731 O   0  0  0  0  0  0
   38.2780    5.0267   22.1118 O   0  0  0  0  0  0
   37.5802    4.2875   23.1097 C   0  0  0  0  0  0
   39.9897    8.3221   16.7131 C   0  0  0  0  0  0
   39.5850    8.3853   15.2253 C   0  0  0  0  0  0
   35.8381    4.2025   21.2174 H   0  0  0  0  0  0
   35.0190    4.3692   18.9083 H   0  0  0  0  0  0
   39.5914    5.9808   20.1554 H   0  0  0  0  0  0
   35.8558    5.3134   16.3143 H   0  0  0  0  0  0
   37.4123    7.1534   14.4752 H   0  0  0  0  0  0
   41.4779    6.6042   15.2991 H   0  0  0  0  0  0
   40.4044    5.2258   15.4724 H   0  0  0  0  0  0
   40.8422    6.5608   17.7458 H   0  0  0  0  0  0
   37.1212    3.5143   13.6626 H   0  0  0  0  0  0
   38.1925    4.2322   24.0094 H   0  0  0  0  0  0
   36.6375    4.7721   23.3746 H   0  0  0  0  0  0
   37.3812    3.2645   22.7828 H   0  0  0  0  0  0
   40.9581    8.8004   16.8622 H   0  0  0  0  0  0
   39.2654    8.8052   17.3696 H   0  0  0  0  0  0
   40.3584    8.9129   14.6653 H   0  0  0  0  0  0
   38.6746    8.9599   15.0737 H   0  0  0  0  0  0
  1  4  1  0  0  0
  1 17  1  0  0  0
  1  2  2  0  0  0
  2  3  1  0  0  0
  2 21  1  0  0  0
  3  6  2  0  0  0
  3 22  1  0  0  0
  4  5  2  0  0  0
  4 23  1  0  0  0
  5  6  1  0  0  0
  5  8  1  0  0  0
  6  7  1  0  0  0
  7  9  1  0  0  0
  7 24  1  0  0  0
  8 13  1  0  0  0
  8  9  2  0  0  0
  9 10  1  0  0  0
 10 11  1  0  0  0
 10 14  1  0  0  0
 10 25  1  0  0  0
 11 12  1  0  0  0
 11 20  1  0  0  0
 12 13  1  0  0  0
 12 26  1  0  0  0
 12 27  1  0  0  0
 13 19  1  0  0  0
 13 28  1  0  0  0
 14 15  1  0  0  0
 14 16  2  0  0  0
 15 29  1  0  0  0
 17 18  1  0  0  0
 18 30  1  0  0  0
 18 31  1  0  0  0
 18 32  1  0  0  0
 19 20  1  0  0  0
 19 33  1  0  0  0
 19 34  1  0  0  0
 20 35  1  0  0  0
 20 36  1  0  0  0
M  END
> <s_m_entry_id>
7555

> <s_m_entry_name>
dock_pv.116

> <s_m_Source_Path>
/home/csk/Desktop/cluster/DUD-E-result/mapk2

> <s_m_Source_File>
dock_pv.maegz

> <i_m_Source_File_Index>
116

> <chembl_id>
CHEMBL392876

> <chembl_pref_name>
None

> <i_lp_mmshare_version>
53161

> <i_f3d_flags>
0

> <r_lp_tautomer_probability>
1

> <s_lp_Force_Field>
OPLS_2005

> <r_lp_Energy>
47.57147

> <b_lp_Chiralities_Consistent>
1

> <s_lp_Variant>
CHEMBL2208_lig112-4

> <s_i_glide_gridfile>
glide-grid_3m2w

> <i_i_glide_lignum>
137

> <i_i_glide_rotatable_bonds>
3

> <r_i_docking_score>
-7.27903753383248

> <r_i_glide_ligand_efficiency>
-0.363951876691624

> <r_i_glide_ligand_efficiency_sa>
-0.98791738469801

> <r_i_glide_ligand_efficiency_ln>
-1.82170301599265

> <r_i_glide_gscore>
-7.27903753383248

> <r_i_glide_lipo>
-2.05862918958455

> <r_i_glide_hbond>
-0.471936918419656

> <r_i_glide_metal>
0

> <r_i_glide_rewards>
-2.40039611757648

> <r_i_glide_evdw>
-29.397331237793

> <r_i_glide_ecoul>
-7.41207838058472

> <r_i_glide_erotb>
0.241672804358751

> <r_i_glide_esite>
-0.0080697936331961

> <r_i_glide_emodel>
-50.4703165622241

> <r_i_glide_energy>
-36.8094096183777

> <r_i_glide_einternal>
6.35498046875

> <i_i_glide_confnum>
1

> <i_i_glide_posenum>
136

> <r_i_glide_eff_state_penalty>
0

> <s_user_duplicate_titles>
CHEMBL2208_lig112

> <s_m_subgroup_title>
dock_pv

> <s_m_subgroupid>
dock_pv

> <b_m_subgroup_collapsed>
1

$$$$
CHEMBL2208_lig1146
                    3D
 Schrodinger Suite 2021-1.
 36 40  0  0  1  0            999 V2000
   37.4775    5.8612   23.2697 S   0  0  0  0  0  0
   40.4958    8.4245   20.1210 O   0  0  0  0  0  0
   38.9389    6.9431   19.2373 N   0  0  0  0  0  0
   37.5658    5.6253   18.1284 N   0  0  0  0  0  0
   39.0851    7.2610   21.5420 N   0  0  0  0  0  0
   39.2704    7.0815   17.9490 N   0  0  0  0  0  0
   38.5456    5.6247   13.0724 N   0  0  0  0  0  0
   37.4237    5.6846   20.6621 C   0  0  0  0  0  0
   37.9079    6.0355   19.3203 C   0  0  0  0  0  0
   38.0663    6.3320   21.7203 C   0  0  0  0  0  0
   36.4317    4.7938   21.1102 C   0  0  0  0  0  0
   36.3252    4.7979   22.5141 C   0  0  0  0  0  0
   39.5844    7.6219   20.3285 C   0  0  0  0  0  0
   38.4282    6.2623   17.3385 C   0  0  0  0  0  0
   35.5174    3.9582   20.2191 C   0  0  0  0  0  0
   38.4644    6.0492   15.8557 C   0  0  0  0  0  0
   35.2843    4.0258   23.3090 C   0  0  0  0  0  0
   34.2725    3.5028   21.0133 C   0  0  0  0  0  0
   34.6434    2.9511   22.4037 C   0  0  0  0  0  0
   39.5700    6.4611   15.0933 C   0  0  0  0  0  0
   37.4016    5.4195   15.1900 C   0  0  0  0  0  0
   39.5749    6.2265   13.7182 C   0  0  0  0  0  0
   37.4818    5.2261   13.8113 C   0  0  0  0  0  0
   39.5447    7.6651   22.3485 H   0  0  0  0  0  0
   36.0632    3.0823   19.8638 H   0  0  0  0  0  0
   35.2128    4.5061   19.3262 H   0  0  0  0  0  0
   34.5125    4.7137   23.6583 H   0  0  0  0  0  0
   35.7201    3.5588   24.1937 H   0  0  0  0  0  0
   33.5786    4.3369   21.1255 H   0  0  0  0  0  0
   33.7373    2.7385   20.4452 H   0  0  0  0  0  0
   33.7602    2.5363   22.8908 H   0  0  0  0  0  0
   35.3332    2.1125   22.2797 H   0  0  0  0  0  0
   40.4184    6.9450   15.5540 H   0  0  0  0  0  0
   36.5283    5.0808   15.7296 H   0  0  0  0  0  0
   40.4148    6.5277   13.1067 H   0  0  0  0  0  0
   36.6813    4.7320   13.2793 H   0  0  0  0  0  0
  1 10  1  0  0  0
  1 12  1  0  0  0
  2 13  2  0  0  0
  3  6  1  0  0  0
  3  9  1  0  0  0
  3 13  1  0  0  0
  4  9  2  0  0  0
  4 14  1  0  0  0
  5 10  1  0  0  0
  5 13  1  0  0  0
  5 24  1  0  0  0
  6 14  2  0  0  0
  7 22  2  0  0  0
  7 23  1  0  0  0
  8  9  1  0  0  0
  8 10  2  0  0  0
  8 11  1  0  0  0
 11 12  2  0  0  0
 11 15  1  0  0  0
 12 17  1  0  0  0
 14 16  1  0  0  0
 15 18  1  0  0  0
 15 25  1  0  0  0
 15 26  1  0  0  0
 16 20  2  0  0  0
 16 21  1  0  0  0
 17 19  1  0  0  0
 17 27  1  0  0  0
 17 28  1  0  0  0
 18 19  1  0  0  0
 18 29  1  0  0  0
 18 30  1  0  0  0
 19 31  1  0  0  0
 19 32  1  0  0  0
 20 22  1  0  0  0
 20 33  1  0  0  0
 21 23  2  0  0  0
 21 34  1  0  0  0
 22 35  1  0  0  0
 23 36  1  0  0  0
M  END
> <s_m_entry_id>
7556

> <s_m_entry_name>
dock_pv.117

> <s_m_Source_Path>
/home/csk/Desktop/cluster/DUD-E-result/mapk2

> <s_m_Source_File>
dock_pv.maegz

> <i_m_Source_File_Index>
117

> <chembl_id>
CHEMBL1966808

> <chembl_pref_name>
None

> <i_lp_mmshare_version>
53161

> <i_f3d_flags>
0

> <r_lp_tautomer_probability>
1

> <s_lp_Force_Field>
OPLS_2005

> <r_lp_Energy>
26.549533

> <b_lp_Chiralities_Consistent>
1

> <s_lp_Variant>
CHEMBL2208_lig1146-1

> <s_i_glide_gridfile>
glide-grid_3m2w

> <i_i_glide_lignum>
1530

> <i_i_glide_rotatable_bonds>
1

> <r_i_docking_score>
-7.26263609935584

> <r_i_glide_ligand_efficiency>
-0.315766786928515

> <r_i_glide_ligand_efficiency_sa>
-0.897998737741272

> <r_i_glide_ligand_efficiency_ln>
-1.75617126276747

> <r_i_glide_gscore>
-7.26263609935584

> <r_i_glide_lipo>
-1.50264599546294

> <r_i_glide_hbond>
-0.418902207292054

> <r_i_glide_metal>
0

> <r_i_glide_rewards>
-2.44867557003664

> <r_i_glide_evdw>
-40.5362014770508

> <r_i_glide_ecoul>
-6.28638792037964

> <r_i_glide_erotb>
0.178952764798918

> <r_i_glide_esite>
-0.101596829453645

> <r_i_glide_emodel>
-68.1607590529137

> <r_i_glide_energy>
-46.8225893974304

> <r_i_glide_einternal>
0.290721744298935

> <i_i_glide_confnum>
1

> <i_i_glide_posenum>
171

> <r_i_glide_eff_state_penalty>
0

> <s_user_duplicate_titles>
CHEMBL2208_lig1146

> <s_m_subgroup_title>
dock_pv

> <s_m_subgroupid>
dock_pv

> <b_m_subgroup_collapsed>
1

$$$$
CHEMBL2208_lig111
                    3D
 Schrodinger Suite 2021-1.
 39 42  0  0  1  0            999 V2000
   37.5830    4.9673   20.9085 C   0  0  0  0  0  0
   36.2975    4.5976   20.4863 C   0  0  0  0  0  0
   35.8782    4.7325   19.1620 C   0  0  0  0  0  0
   38.4969    5.4727   19.9873 C   0  0  0  0  0  0
   38.1200    5.6249   18.6461 C   0  0  0  0  0  0
   36.7939    5.2748   18.2579 C   0  0  0  0  0  0
   36.6780    5.5762   16.9155 N   0  0  0  0  0  0
   38.8065    6.0265   17.4570 C   0  0  0  0  0  0
   37.8841    6.0279   16.4282 C   0  0  0  0  0  0
   38.2083    6.4881   14.9939 C   0  0  1  0  0  0
   39.6031    7.0075   14.8614 N   0  0  2  0  0  0
   40.5490    6.2402   15.6966 C   0  0  0  0  0  0
   40.2511    6.4312   17.2132 C   0  0  1  0  0  0
   38.0024    5.4156   13.8852 C   0  0  0  0  0  0
   37.4558    4.2483   14.3278 O   0  0  0  0  0  0
   38.2780    5.6190   12.7029 O   0  0  0  0  0  0
   38.0387    4.8603   22.2058 O   0  0  0  0  0  0
   37.2262    4.2218   23.1803 C   0  0  0  0  0  0
   40.5426    7.8943   17.5814 C   0  0  0  0  0  0
   39.7081    8.8265   16.6864 C   0  0  0  0  0  0
   39.7439    8.4452   15.1847 C   0  0  0  0  0  0
   35.5905    4.1873   21.1921 H   0  0  0  0  0  0
   34.8884    4.4250   18.8580 H   0  0  0  0  0  0
   39.4965    5.7174   20.3128 H   0  0  0  0  0  0
   35.8536    5.4613   16.3386 H   0  0  0  0  0  0
   37.4859    7.2249   14.6647 H   0  0  0  0  0  0
   41.5668    6.5535   15.4722 H   0  0  0  0  0  0
   40.4942    5.1865   15.4265 H   0  0  0  0  0  0
   40.8932    5.7666   17.7793 H   0  0  0  0  0  0
   37.4618    3.5553   13.6523 H   0  0  0  0  0  0
   37.7934    4.1127   24.1042 H   0  0  0  0  0  0
   36.3334    4.8064   23.3988 H   0  0  0  0  0  0
   36.9290    3.2250   22.8574 H   0  0  0  0  0  0
   41.5940    8.1086   17.3817 H   0  0  0  0  0  0
   40.3771    8.0804   18.6430 H   0  0  0  0  0  0
   40.0582    9.8519   16.8050 H   0  0  0  0  0  0
   38.6781    8.8498   17.0233 H   0  0  0  0  0  0
   40.6782    8.7918   14.7438 H   0  0  0  0  0  0
   38.9731    9.0125   14.6720 H   0  0  0  0  0  0
  1 17  1  0  0  0
  1  2  2  0  0  0
  1  4  1  0  0  0
  2  3  1  0  0  0
  2 22  1  0  0  0
  3  6  2  0  0  0
  3 23  1  0  0  0
  4  5  2  0  0  0
  4 24  1  0  0  0
  5  6  1  0  0  0
  5  8  1  0  0  0
  6  7  1  0  0  0
  7  9  1  0  0  0
  7 25  1  0  0  0
  8 13  1  0  0  0
  8  9  2  0  0  0
  9 10  1  0  0  0
 10 11  1  0  0  0
 10 14  1  0  0  0
 10 26  1  0  0  0
 11 12  1  0  0  0
 11 21  1  0  0  0
 12 13  1  0  0  0
 12 27  1  0  0  0
 12 28  1  0  0  0
 13 19  1  0  0  0
 13 29  1  0  0  0
 14 15  1  0  0  0
 14 16  2  0  0  0
 15 30  1  0  0  0
 17 18  1  0  0  0
 18 31  1  0  0  0
 18 32  1  0  0  0
 18 33  1  0  0  0
 19 20  1  0  0  0
 19 34  1  0  0  0
 19 35  1  0  0  0
 20 21  1  0  0  0
 20 36  1  0  0  0
 20 37  1  0  0  0
 21 38  1  0  0  0
 21 39  1  0  0  0
M  END
> <s_m_entry_id>
7557

> <s_m_entry_name>
dock_pv.118

> <s_m_Source_Path>
/home/csk/Desktop/cluster/DUD-E-result/mapk2

> <s_m_Source_File>
dock_pv.maegz

> <i_m_Source_File_Index>
118

> <chembl_id>
CHEMBL394124

> <chembl_pref_name>
None

> <i_lp_mmshare_version>
53161

> <i_f3d_flags>
0

> <r_lp_tautomer_probability>
1

> <s_lp_Force_Field>
OPLS_2005

> <r_lp_Energy>
37.756783

> <b_lp_Chiralities_Consistent>
1

> <s_lp_Variant>
CHEMBL2208_lig111-4

> <s_i_glide_gridfile>
glide-grid_3m2w

> <i_i_glide_lignum>
133

> <i_i_glide_rotatable_bonds>
3

> <r_i_docking_score>
-7.25959772939173

> <r_i_glide_ligand_efficiency>
-0.345695129971035

> <r_i_glide_ligand_efficiency_sa>
-0.953746650766401

> <r_i_glide_ligand_efficiency_ln>
-1.79492086919365

> <r_i_glide_gscore>
-7.25959772939173

> <r_i_glide_lipo>
-2.1959919346477

> <r_i_glide_hbond>
-0.475640826384641

> <r_i_glide_metal>
0

> <r_i_glide_rewards>
-2.32163285820538

> <r_i_glide_evdw>
-29.4563369750977

> <r_i_glide_ecoul>
-6.72463893890381

> <r_i_glide_erotb>
0.221488968310036

> <r_i_glide_esite>
-0.00630838887359572

> <r_i_glide_emodel>
-49.3794265248848

> <r_i_glide_energy>
-36.1809759140015

> <r_i_glide_einternal>
6.35055208206177

> <i_i_glide_confnum>
3

> <i_i_glide_posenum>
81

> <r_i_glide_eff_state_penalty>
0

> <s_user_duplicate_titles>
CHEMBL2208_lig111

> <s_m_subgroup_title>
dock_pv

> <s_m_subgroupid>
dock_pv

> <b_m_subgroup_collapsed>
1

$$$$
CHEMBL2208_lig194
                    3D
 Schrodinger Suite 2021-1.
 47 50  0  0  1  0            999 V2000
   39.2286    6.0550   14.2958 C   0  0  0  0  0  0
   38.0018    5.5869   14.7905 C   0  0  0  0  0  0
   37.6461    5.8069   16.1291 C   0  0  0  0  0  0
   40.1421    6.7165   15.1106 C   0  0  0  0  0  0
   37.0800    4.8249   13.8715 C   0  0  0  0  0  0
   37.2326    4.8974   12.6491 O   0  0  0  0  0  0
   36.1746    4.0248   14.4859 N   0  0  0  0  0  0
   35.2217    3.2266   13.8763 C   0  0  0  0  0  0
   39.8328    6.8907   16.4636 C   0  0  0  0  0  0
   38.5815    6.4308   16.9571 C   0  0  0  0  0  0
   40.5151    7.4756   17.5661 C   0  0  0  0  0  0
   34.9002    3.2119   12.6039 N   0  0  0  0  0  0
   33.8780    2.4128   12.3732 C   0  0  0  0  0  0
   33.3926    1.7035   13.4685 C   0  0  0  0  0  0
   34.3042    2.1514   14.8798 S   0  0  0  0  0  0
   38.5287    6.7476   18.3036 N   0  0  0  0  0  0
   39.7446    7.2839   18.7040 C   0  0  0  0  0  0
   40.1147    7.6245   20.0650 C   0  0  0  0  0  0
   37.3435    6.6248   19.1534 C   0  0  0  0  0  0
   39.4770    6.9841   21.0702 N   0  0  0  0  0  0
   37.4837    5.5944   20.2904 C   0  0  2  0  0  0
   38.8529    5.6542   21.0118 C   0  0  0  0  0  0
   41.0217    8.4251   20.2539 O   0  0  0  0  0  0
   37.1319    4.1549   19.8182 C   0  0  0  0  0  0
   36.4334    3.3642   20.8310 N   0  0  0  0  0  0
   35.1494    3.5572   21.1787 C   0  0  0  0  0  0
   34.5797    2.6513   22.2604 C   0  0  0  0  0  0
   34.4351    4.4240   20.6729 O   0  0  0  0  0  0
   39.4945    5.8994   13.2584 H   0  0  0  0  0  0
   36.6930    5.4850   16.5265 H   0  0  0  0  0  0
   41.0770    7.0759   14.7076 H   0  0  0  0  0  0
   36.2158    3.9615   15.4916 H   0  0  0  0  0  0
   41.4920    7.9344   17.5513 H   0  0  0  0  0  0
   33.4969    2.3359   11.3664 H   0  0  0  0  0  0
   32.5836    0.9895   13.5183 H   0  0  0  0  0  0
   36.4583    6.4421   18.5442 H   0  0  0  0  0  0
   37.1777    7.6092   19.5950 H   0  0  0  0  0  0
   39.7139    7.3097   21.9979 H   0  0  0  0  0  0
   36.7339    5.9073   21.0199 H   0  0  0  0  0  0
   38.7510    5.2580   22.0246 H   0  0  0  0  0  0
   39.5709    4.9958   20.5172 H   0  0  0  0  0  0
   38.0301    3.6134   19.5166 H   0  0  0  0  0  0
   36.5077    4.1756   18.9209 H   0  0  0  0  0  0
   36.9563    2.6167   21.2716 H   0  0  0  0  0  0
   35.3419    1.9927   22.6717 H   0  0  0  0  0  0
   34.1661    3.2510   23.0710 H   0  0  0  0  0  0
   33.7855    2.0306   21.8466 H   0  0  0  0  0  0
  1  2  2  0  0  0
  1  4  1  0  0  0
  1 29  1  0  0  0
  2  5  1  0  0  0
  2  3  1  0  0  0
  3 10  2  0  0  0
  3 30  1  0  0  0
  4  9  2  0  0  0
  4 31  1  0  0  0
  5  6  2  0  0  0
  5  7  1  0  0  0
  7  8  1  0  0  0
  7 32  1  0  0  0
  8 15  1  0  0  0
  8 12  2  0  0  0
  9 10  1  0  0  0
  9 11  1  0  0  0
 10 16  1  0  0  0
 11 17  2  0  0  0
 11 33  1  0  0  0
 12 13  1  0  0  0
 13 14  2  0  0  0
 13 34  1  0  0  0
 14 15  1  0  0  0
 14 35  1  0  0  0
 16 17  1  0  0  0
 16 19  1  0  0  0
 17 18  1  0  0  0
 18 20  1  0  0  0
 18 23  2  0  0  0
 19 21  1  0  0  0
 19 36  1  0  0  0
 19 37  1  0  0  0
 20 22  1  0  0  0
 20 38  1  0  0  0
 21 22  1  0  0  0
 21 24  1  0  0  0
 21 39  1  0  0  0
 22 40  1  0  0  0
 22 41  1  0  0  0
 24 25  1  0  0  0
 24 42  1  0  0  0
 24 43  1  0  0  0
 25 26  1  0  0  0
 25 44  1  0  0  0
 26 27  1  0  0  0
 26 28  2  0  0  0
 27 45  1  0  0  0
 27 46  1  0  0  0
 27 47  1  0  0  0
M  END
> <s_m_entry_id>
7558

> <s_m_entry_name>
dock_pv.119

> <s_m_Source_Path>
/home/csk/Desktop/cluster/DUD-E-result/mapk2

> <s_m_Source_File>
dock_pv.maegz

> <i_m_Source_File_Index>
119

> <chembl_id>
CHEMBL404756

> <chembl_pref_name>
None

> <i_lp_mmshare_version>
53161

> <i_f3d_flags>
0

> <r_lp_tautomer_probability>
0.999000488399163

> <s_lp_Force_Field>
OPLS_2005

> <r_lp_Energy>
25.174766

> <b_lp_Chiralities_Consistent>
1

> <s_lp_Variant>
CHEMBL2208_lig194-1

> <s_i_glide_gridfile>
glide-grid_3m2w

> <i_i_glide_lignum>
301

> <i_i_glide_rotatable_bonds>
6

> <r_i_docking_score>
-7.25360996154386

> <r_i_glide_ligand_efficiency>
-0.259057498626566

> <r_i_glide_ligand_efficiency_sa>
-0.786651142537365

> <r_i_glide_ligand_efficiency_ln>
-1.67434615436715

> <r_i_glide_gscore>
-7.25360996154386

> <r_i_glide_lipo>
-2.44104799618739

> <r_i_glide_hbond>
-0.532275227335947

> <r_i_glide_metal>
0

> <r_i_glide_rewards>
-1.03604984904324

> <r_i_glide_evdw>
-40.3608856201172

> <r_i_glide_ecoul>
-11.1702089309692

> <r_i_glide_erotb>
0.619584430556323

> <r_i_glide_esite>
-0.170245698882362

> <r_i_glide_emodel>
-71.3365886529702

> <r_i_glide_energy>
-51.5310945510864

> <r_i_glide_einternal>
5.79709339141846

> <i_i_glide_confnum>
33

> <i_i_glide_posenum>
379

> <r_i_glide_eff_state_penalty>
0

> <s_user_duplicate_titles>
CHEMBL2208_lig194

> <s_m_subgroup_title>
dock_pv

> <s_m_subgroupid>
dock_pv

> <b_m_subgroup_collapsed>
1

$$$$
CHEMBL2208_lig434
                    3D
 Schrodinger Suite 2021-1.
 47 52  0  0  1  0            999 V2000
   37.7826    6.5045   21.0019 C   0  0  0  0  0  0
   36.5353    7.2788   21.3805 C   0  0  0  0  0  0
   35.7835    6.0251   21.4720 N   0  0  1  0  0  0
   37.0493    5.3002   21.5790 C   0  0  0  0  0  0
   39.0781    6.8915   21.7497 C   0  0  0  0  0  0
   34.2177    1.0559   15.3207 C   0  0  0  0  0  0
   33.5268    0.9043   14.1212 C   0  0  0  0  0  0
   33.7599    1.7908   13.0734 C   0  0  0  0  0  0
   34.6828    2.8250   13.2250 C   0  0  0  0  0  0
   35.3777    3.0193   14.4315 C   0  0  0  0  0  0
   35.1306    2.1006   15.4694 C   0  0  0  0  0  0
   36.3523    4.1504   14.6206 C   0  0  0  0  0  0
   36.6750    4.6256   15.8917 C   0  0  0  0  0  0
   37.8889    5.6574   13.6743 C   0  0  0  0  0  0
   36.9410    4.6963   13.5161 N   0  0  0  0  0  0
   38.2747    6.1716   14.9165 C   0  0  0  0  0  0
   37.6347    5.6246   16.0366 C   0  0  0  0  0  0
   40.1079    7.2437   16.4195 C   0  0  0  0  0  0
   39.2831    7.3181   15.0938 C   0  0  0  0  0  0
   39.2065    6.8618   17.5940 C   0  0  0  0  0  0
   38.0638    6.0992   17.3585 C   0  0  0  0  0  0
   37.4316    5.8740   18.5460 N   0  0  0  0  0  0
   39.2226    7.1628   18.9767 C   0  0  0  0  0  0
   38.1361    6.4870   19.5315 C   0  0  0  0  0  0
   39.7482    8.0252   21.0717 N   0  0  0  0  0  0
   40.0919    8.0267   19.7572 C   0  0  0  0  0  0
   40.9661    8.8014   19.3709 O   0  0  0  0  0  0
   33.0933    1.6470   11.9058 F   0  0  0  0  0  0
   36.1578    7.9804   20.6348 H   0  0  0  0  0  0
   36.6322    7.7829   22.3450 H   0  0  0  0  0  0
   35.1461    5.9439   22.2581 H   0  0  0  0  0  0
   37.3323    5.1010   22.6163 H   0  0  0  0  0  0
   37.0997    4.3765   20.9989 H   0  0  0  0  0  0
   38.8821    7.1538   22.7904 H   0  0  0  0  0  0
   39.7657    6.0407   21.7793 H   0  0  0  0  0  0
   34.0445    0.3717   16.1395 H   0  0  0  0  0  0
   32.8104    0.1056   14.0029 H   0  0  0  0  0  0
   34.8492    3.4947   12.3937 H   0  0  0  0  0  0
   35.6510    2.1789   16.4128 H   0  0  0  0  0  0
   36.1945    4.2189   16.7686 H   0  0  0  0  0  0
   38.3369    6.0249   12.7639 H   0  0  0  0  0  0
   40.5906    8.2041   16.6039 H   0  0  0  0  0  0
   40.9170    6.5186   16.3202 H   0  0  0  0  0  0
   39.9584    7.3668   14.2382 H   0  0  0  0  0  0
   38.7273    8.2575   15.0825 H   0  0  0  0  0  0
   36.5771    5.3510   18.6765 H   0  0  0  0  0  0
   40.1684    8.7190   21.6667 H   0  0  0  0  0  0
  1  4  1  0  0  0
  1  2  1  0  0  0
  1 24  1  0  0  0
  1  5  1  0  0  0
  2  3  1  0  0  0
  2 29  1  0  0  0
  2 30  1  0  0  0
  3  4  1  0  0  0
  3 31  1  0  0  0
  4 32  1  0  0  0
  4 33  1  0  0  0
  5 25  1  0  0  0
  5 34  1  0  0  0
  5 35  1  0  0  0
  6 11  1  0  0  0
  6  7  2  0  0  0
  6 36  1  0  0  0
  7  8  1  0  0  0
  7 37  1  0  0  0
  8  9  2  0  0  0
  8 28  1  0  0  0
  9 10  1  0  0  0
  9 38  1  0  0  0
 10 12  1  0  0  0
 10 11  2  0  0  0
 11 39  1  0  0  0
 12 15  1  0  0  0
 12 13  2  0  0  0
 13 17  1  0  0  0
 13 40  1  0  0  0
 14 15  2  0  0  0
 14 16  1  0  0  0
 14 41  1  0  0  0
 16 17  2  0  0  0
 16 19  1  0  0  0
 17 21  1  0  0  0
 18 20  1  0  0  0
 18 19  1  0  0  0
 18 42  1  0  0  0
 18 43  1  0  0  0
 19 44  1  0  0  0
 19 45  1  0  0  0
 20 21  2  0  0  0
 20 23  1  0  0  0
 21 22  1  0  0  0
 22 24  1  0  0  0
 22 46  1  0  0  0
 23 24  2  0  0  0
 23 26  1  0  0  0
 25 26  1  0  0  0
 25 47  1  0  0  0
 26 27  2  0  0  0
M  END
> <s_m_entry_id>
7559

> <s_m_entry_name>
dock_pv.120

> <s_m_Source_Path>
/home/csk/Desktop/cluster/DUD-E-result/mapk2

> <s_m_Source_File>
dock_pv.maegz

> <i_m_Source_File_Index>
120

> <chembl_id>
CHEMBL1801285

> <chembl_pref_name>
None

> <i_lp_mmshare_version>
53161

> <i_f3d_flags>
0

> <r_lp_tautomer_probability>
1

> <s_lp_Force_Field>
OPLS_2005

> <r_lp_Energy>
46.419402

> <b_lp_Chiralities_Consistent>
1

> <s_lp_Variant>
CHEMBL2208_lig434-1

> <s_i_glide_gridfile>
glide-grid_3m2w

> <i_i_glide_lignum>
604

> <i_i_glide_rotatable_bonds>
1

> <r_i_docking_score>
-7.25076974118835

> <r_i_glide_ligand_efficiency>
-0.258956062185298

> <r_i_glide_ligand_efficiency_sa>
-0.786343121758806

> <r_i_glide_ligand_efficiency_ln>
-1.6736905481166

> <r_i_glide_gscore>
-7.25076974118835

> <r_i_glide_lipo>
-2.74110424543602

> <r_i_glide_hbond>
-0.316667921425729

> <r_i_glide_metal>
0

> <r_i_glide_rewards>
-1.25962358532059

> <r_i_glide_evdw>
-39.7503433227539

> <r_i_glide_ecoul>
-6.54925441741943

> <r_i_glide_erotb>
0.137931360134794

> <r_i_glide_esite>
-0.101400020390189

> <r_i_glide_emodel>
-66.4973789939799

> <r_i_glide_energy>
-46.2995977401733

> <r_i_glide_einternal>
0.0359780080616474

> <i_i_glide_confnum>
3

> <i_i_glide_posenum>
101

> <r_i_glide_eff_state_penalty>
0

> <s_user_duplicate_titles>
CHEMBL2208_lig434

> <s_m_subgroup_title>
dock_pv

> <s_m_subgroupid>
dock_pv

> <b_m_subgroup_collapsed>
1

$$$$
CHEMBL2208_lig116
                    3D
 Schrodinger Suite 2021-1.
 38 40  0  0  1  0            999 V2000
   37.3252    5.2994   20.9565 C   0  0  0  0  0  0
   36.1956    4.6407   20.4782 C   0  0  0  0  0  0
   35.8756    4.5821   19.1219 C   0  0  0  0  0  0
   38.2130    5.8978   20.0519 C   0  0  0  0  0  0
   37.9299    5.8854   18.6762 C   0  0  0  0  0  0
   36.7393    5.2333   18.2371 C   0  0  0  0  0  0
   36.6819    5.3797   16.8680 N   0  0  0  0  0  0
   38.5971    6.3865   17.4997 C   0  0  0  0  0  0
   37.8107    6.0206   16.4102 C   0  0  0  0  0  0
   38.1789    6.3423   14.9506 C   0  0  1  0  0  0
   39.6290    6.5808   14.8677 N   0  0  1  0  0  0
   40.0376    7.6099   15.8290 C   0  0  0  0  0  0
   39.9428    7.1032   17.3048 C   0  0  1  0  0  0
   37.8334    5.2728   13.8777 C   0  0  0  0  0  0
   37.5071    4.0491   14.3803 O   0  0  0  0  0  0
   37.8815    5.5048   12.6720 O   0  0  0  0  0  0
   37.4958    5.3146   22.3265 O   0  0  0  0  0  0
   38.4622    6.1941   22.9027 C   0  0  0  0  0  0
   40.1997    8.2349   18.3310 C   0  0  0  0  0  0
   41.6206    8.8149   18.2904 C   0  0  0  0  0  0
   35.5420    4.1608   21.1916 H   0  0  0  0  0  0
   34.9883    4.0684   18.7786 H   0  0  0  0  0  0
   39.1169    6.3516   20.4133 H   0  0  0  0  0  0
   35.9617    5.0331   16.2507 H   0  0  0  0  0  0
   37.6490    7.2246   14.5946 H   0  0  0  0  0  0
   40.0912    5.7183   15.1214 H   0  0  0  0  0  0
   39.4200    8.5001   15.6892 H   0  0  0  0  0  0
   41.0592    7.9146   15.5986 H   0  0  0  0  0  0
   40.7152    6.3465   17.4479 H   0  0  0  0  0  0
   37.4688    3.3804   13.6797 H   0  0  0  0  0  0
   38.4888    6.0456   23.9836 H   0  0  0  0  0  0
   39.4732    6.0249   22.5299 H   0  0  0  0  0  0
   38.1987    7.2374   22.7161 H   0  0  0  0  0  0
   40.0497    7.8615   19.3388 H   0  0  0  0  0  0
   39.4698    9.0343   18.2011 H   0  0  0  0  0  0
   41.8637    9.3438   19.2108 H   0  0  0  0  0  0
   41.7173    9.5275   17.4781 H   0  0  0  0  0  0
   42.3748    8.0410   18.1577 H   0  0  0  0  0  0
  1  4  1  0  0  0
  1 17  1  0  0  0
  1  2  2  0  0  0
  2  3  1  0  0  0
  2 21  1  0  0  0
  3  6  2  0  0  0
  3 22  1  0  0  0
  4  5  2  0  0  0
  4 23  1  0  0  0
  5  6  1  0  0  0
  5  8  1  0  0  0
  6  7  1  0  0  0
  7  9  1  0  0  0
  7 24  1  0  0  0
  8 13  1  0  0  0
  8  9  2  0  0  0
  9 10  1  0  0  0
 10 11  1  0  0  0
 10 14  1  0  0  0
 10 25  1  0  0  0
 11 12  1  0  0  0
 11 26  1  0  0  0
 12 13  1  0  0  0
 12 27  1  0  0  0
 12 28  1  0  0  0
 13 19  1  0  0  0
 13 29  1  0  0  0
 14 15  1  0  0  0
 14 16  2  0  0  0
 15 30  1  0  0  0
 17 18  1  0  0  0
 18 31  1  0  0  0
 18 32  1  0  0  0
 18 33  1  0  0  0
 19 20  1  0  0  0
 19 34  1  0  0  0
 19 35  1  0  0  0
 20 36  1  0  0  0
 20 37  1  0  0  0
 20 38  1  0  0  0
M  END
> <s_m_entry_id>
7560

> <s_m_entry_name>
dock_pv.121

> <s_m_Source_Path>
/home/csk/Desktop/cluster/DUD-E-result/mapk2

> <s_m_Source_File>
dock_pv.maegz

> <i_m_Source_File_Index>
121

> <chembl_id>
CHEMBL248316

> <chembl_pref_name>
None

> <i_lp_mmshare_version>
53161

> <i_f3d_flags>
0

> <r_lp_tautomer_probability>
1

> <s_lp_Force_Field>
OPLS_2005

> <r_lp_Energy>
21.506765

> <b_lp_Chiralities_Consistent>
1

> <s_lp_Variant>
CHEMBL2208_lig116-4

> <s_i_glide_gridfile>
glide-grid_3m2w

> <i_i_glide_lignum>
153

> <i_i_glide_rotatable_bonds>
4

> <r_i_docking_score>
-7.24836796625052

> <r_i_glide_ligand_efficiency>
-0.362418398312526

> <r_i_glide_ligand_efficiency_sa>
-0.983754883975275

> <r_i_glide_ligand_efficiency_ln>
-1.81402743477693

> <r_i_glide_gscore>
-7.24836796625052

> <r_i_glide_lipo>
-1.85412103589114

> <r_i_glide_hbond>
-0.370218927399174

> <r_i_glide_metal>
0

> <r_i_glide_rewards>
-2.38645729080773

> <r_i_glide_evdw>
-29.2763118743896

> <r_i_glide_ecoul>
-9.34241771697998

> <r_i_glide_erotb>
0.238604836351086

> <r_i_glide_esite>
-0.0109972972370811

> <r_i_glide_emodel>
-52.770020918873

> <r_i_glide_energy>
-38.6187295913696

> <r_i_glide_einternal>
4.38456630706787

> <i_i_glide_confnum>
2

> <i_i_glide_posenum>
156

> <r_i_glide_eff_state_penalty>
0

> <s_user_duplicate_titles>
CHEMBL2208_lig116

> <s_m_subgroup_title>
dock_pv

> <s_m_subgroupid>
dock_pv

> <b_m_subgroup_collapsed>
1

$$$$
CHEMBL2208_lig115
                    3D
 Schrodinger Suite 2021-1.
 35 37  0  0  1  0            999 V2000
   37.5947    5.6193   20.7561 C   0  0  0  0  0  0
   36.4265    4.9699   20.3611 C   0  0  0  0  0  0
   36.0564    4.8246   19.0228 C   0  0  0  0  0  0
   38.4645    6.1385   19.7851 C   0  0  0  0  0  0
   38.1318    6.0267   18.4303 C   0  0  0  0  0  0
   36.9091    5.3875   18.0704 C   0  0  0  0  0  0
   36.8094    5.4673   16.6981 N   0  0  0  0  0  0
   38.7785    6.4196   17.2107 C   0  0  0  0  0  0
   37.9394    6.0536   16.1749 C   0  0  0  0  0  0
   38.2437    6.3408   14.7001 C   0  0  1  0  0  0
   39.6869    6.5941   14.5244 N   0  0  1  0  0  0
   40.2521    7.5616   15.4730 C   0  0  2  0  0  0
   40.1333    7.0662   16.9496 C   0  0  0  0  0  0
   37.8595    5.2261   13.6986 C   0  0  0  0  0  0
   37.5580    4.0259   14.2729 O   0  0  0  0  0  0
   37.8554    5.4046   12.4846 O   0  0  0  0  0  0
   37.8163    5.7025   22.1150 O   0  0  0  0  0  0
   38.9655    6.3934   22.5924 C   0  0  0  0  0  0
   39.7354    8.9996   15.2972 C   0  0  0  0  0  0
   35.7827    4.5592   21.1261 H   0  0  0  0  0  0
   35.1400    4.3223   18.7439 H   0  0  0  0  0  0
   39.3876    6.6224   20.0591 H   0  0  0  0  0  0
   36.0543    5.1248   16.1204 H   0  0  0  0  0  0
   37.6793    7.2029   14.3460 H   0  0  0  0  0  0
   40.2016    5.7273   14.5945 H   0  0  0  0  0  0
   41.3189    7.5995   15.2492 H   0  0  0  0  0  0
   40.9130    6.3281   17.1403 H   0  0  0  0  0  0
   40.3225    7.8836   17.6441 H   0  0  0  0  0  0
   37.4779    3.3265   13.6043 H   0  0  0  0  0  0
   39.0755    6.2302   23.6657 H   0  0  0  0  0  0
   39.8757    6.0250   22.1255 H   0  0  0  0  0  0
   38.8843    7.4678   22.4171 H   0  0  0  0  0  0
   40.2778    9.6874   15.9453 H   0  0  0  0  0  0
   38.6782    9.0860   15.5418 H   0  0  0  0  0  0
   39.8769    9.3440   14.2734 H   0  0  0  0  0  0
  1  4  1  0  0  0
  1 17  1  0  0  0
  1  2  2  0  0  0
  2  3  1  0  0  0
  2 20  1  0  0  0
  3  6  2  0  0  0
  3 21  1  0  0  0
  4  5  2  0  0  0
  4 22  1  0  0  0
  5  6  1  0  0  0
  5  8  1  0  0  0
  6  7  1  0  0  0
  7  9  1  0  0  0
  7 23  1  0  0  0
  8 13  1  0  0  0
  8  9  2  0  0  0
  9 10  1  0  0  0
 10 11  1  0  0  0
 10 14  1  0  0  0
 10 24  1  0  0  0
 11 12  1  0  0  0
 11 25  1  0  0  0
 12 13  1  0  0  0
 12 19  1  0  0  0
 12 26  1  0  0  0
 13 27  1  0  0  0
 13 28  1  0  0  0
 14 15  1  0  0  0
 14 16  2  0  0  0
 15 29  1  0  0  0
 17 18  1  0  0  0
 18 30  1  0  0  0
 18 31  1  0  0  0
 18 32  1  0  0  0
 19 33  1  0  0  0
 19 34  1  0  0  0
 19 35  1  0  0  0
M  END
> <s_m_entry_id>
7561

> <s_m_entry_name>
dock_pv.122

> <s_m_Source_Path>
/home/csk/Desktop/cluster/DUD-E-result/mapk2

> <s_m_Source_File>
dock_pv.maegz

> <i_m_Source_File_Index>
122

> <chembl_id>
CHEMBL247707

> <chembl_pref_name>
None

> <i_lp_mmshare_version>
53161

> <i_f3d_flags>
0

> <r_lp_tautomer_probability>
1

> <s_lp_Force_Field>
OPLS_2005

> <r_lp_Energy>
21.043311

> <b_lp_Chiralities_Consistent>
1

> <s_lp_Variant>
CHEMBL2208_lig115-2

> <s_i_glide_gridfile>
glide-grid_3m2w

> <i_i_glide_lignum>
147

> <i_i_glide_rotatable_bonds>
3

> <r_i_docking_score>
-7.24550847653563

> <r_i_glide_ligand_efficiency>
-0.381342551396612

> <r_i_glide_ligand_efficiency_sa>
-1.01757509187582

> <r_i_glide_ligand_efficiency_ln>
-1.83689201805494

> <r_i_glide_gscore>
-7.24550847653563

> <r_i_glide_lipo>
-1.82515041316448

> <r_i_glide_hbond>
-0.334447115519784

> <r_i_glide_metal>
0

> <r_i_glide_rewards>
-2.43539350035939

> <r_i_glide_evdw>
-26.6040000915527

> <r_i_glide_ecoul>
-10.5438013076782

> <r_i_glide_erotb>
0.261252753237393

> <r_i_glide_esite>
0

> <r_i_glide_emodel>
-51.0955850867929

> <r_i_glide_energy>
-37.147801399231

> <r_i_glide_einternal>
4.15867614746094

> <i_i_glide_confnum>
4

> <i_i_glide_posenum>
329

> <r_i_glide_eff_state_penalty>
0

> <s_user_duplicate_titles>
CHEMBL2208_lig115

> <s_m_subgroup_title>
dock_pv

> <s_m_subgroupid>
dock_pv

> <b_m_subgroup_collapsed>
1

$$$$
CHEMBL2208_lig212
                    3D
 Schrodinger Suite 2021-1.
 38 41  0  0  1  0            999 V2000
   39.1277    6.2085   14.0176 C   0  0  0  0  0  0
   38.0132    5.6560   14.6626 C   0  0  0  0  0  0
   37.8226    5.8438   16.0405 C   0  0  0  0  0  0
   40.0683    6.9698   14.7030 C   0  0  0  0  0  0
   37.0419    4.8196   13.8720 C   0  0  0  0  0  0
   37.0780    4.8250   12.6390 O   0  0  0  0  0  0
   36.2373    4.0260   14.6206 N   0  0  0  0  0  0
   35.2804    3.1214   14.1970 C   0  0  0  0  0  0
   39.9112    7.1424   16.0823 C   0  0  0  0  0  0
   38.7904    6.5598   16.7350 C   0  0  0  0  0  0
   40.6643    7.7968   17.0927 C   0  0  0  0  0  0
   40.0170    7.6103   18.2979 C   0  0  0  0  0  0
   38.9060    6.8233   18.0854 N   0  0  0  0  0  0
   38.0907    6.2841   19.1685 C   0  0  0  0  0  0
   38.1291    7.2753   20.3664 C   0  0  2  0  0  0
   39.4993    7.7932   20.5717 N   0  0  0  0  0  0
   40.4222    8.0283   19.6070 C   0  0  0  0  0  0
   41.4780    8.5843   19.8720 O   0  0  0  0  0  0
   34.8166    2.9482   12.9821 N   0  0  0  0  0  0
   33.8774    2.0237   12.9503 C   0  0  0  0  0  0
   33.5909    1.3924   14.1568 C   0  0  0  0  0  0
   34.5996    2.0713   15.3981 S   0  0  0  0  0  0
   37.5140    6.6594   21.6408 C   0  0  0  0  0  0
   36.1260    6.4345   21.4720 O   0  0  0  0  0  0
   39.2807    6.0436   12.9597 H   0  0  0  0  0  0
   36.9750    5.4373   16.5722 H   0  0  0  0  0  0
   40.9128    7.3970   14.1821 H   0  0  0  0  0  0
   36.3878    4.0422   15.6158 H   0  0  0  0  0  0
   41.5886    8.3400   16.9813 H   0  0  0  0  0  0
   38.5085    5.3186   19.4599 H   0  0  0  0  0  0
   37.0670    6.1167   18.8317 H   0  0  0  0  0  0
   37.5245    8.1503   20.1162 H   0  0  0  0  0  0
   39.7731    8.0279   21.5158 H   0  0  0  0  0  0
   33.4003    1.8038   12.0064 H   0  0  0  0  0  0
   32.8746    0.6128   14.3706 H   0  0  0  0  0  0
   37.6448    7.3380   22.4854 H   0  0  0  0  0  0
   38.0122    5.7265   21.9120 H   0  0  0  0  0  0
   35.7234    6.3289   22.3428 H   0  0  0  0  0  0
  1  2  2  0  0  0
  1  4  1  0  0  0
  1 25  1  0  0  0
  2  5  1  0  0  0
  2  3  1  0  0  0
  3 10  2  0  0  0
  3 26  1  0  0  0
  4  9  2  0  0  0
  4 27  1  0  0  0
  5  6  2  0  0  0
  5  7  1  0  0  0
  7  8  1  0  0  0
  7 28  1  0  0  0
  8 19  2  0  0  0
  8 22  1  0  0  0
  9 11  1  0  0  0
  9 10  1  0  0  0
 10 13  1  0  0  0
 11 12  2  0  0  0
 11 29  1  0  0  0
 12 13  1  0  0  0
 12 17  1  0  0  0
 13 14  1  0  0  0
 14 15  1  0  0  0
 14 30  1  0  0  0
 14 31  1  0  0  0
 15 16  1  0  0  0
 15 23  1  0  0  0
 15 32  1  0  0  0
 16 17  1  0  0  0
 16 33  1  0  0  0
 17 18  2  0  0  0
 19 20  1  0  0  0
 20 21  2  0  0  0
 20 34  1  0  0  0
 21 22  1  0  0  0
 21 35  1  0  0  0
 23 24  1  0  0  0
 23 36  1  0  0  0
 23 37  1  0  0  0
 24 38  1  0  0  0
M  END
> <s_m_entry_id>
7562

> <s_m_entry_name>
dock_pv.123

> <s_m_Source_Path>
/home/csk/Desktop/cluster/DUD-E-result/mapk2

> <s_m_Source_File>
dock_pv.maegz

> <i_m_Source_File_Index>
123

> <chembl_id>
CHEMBL272572

> <chembl_pref_name>
None

> <i_lp_mmshare_version>
53161

> <i_f3d_flags>
0

> <r_lp_tautomer_probability>
0.999000488399163

> <s_lp_Force_Field>
OPLS_2005

> <r_lp_Energy>
27.132695

> <b_lp_Chiralities_Consistent>
1

> <s_lp_Variant>
CHEMBL2208_lig212-1

> <s_i_glide_gridfile>
glide-grid_3m2w

> <i_i_glide_lignum>
335

> <i_i_glide_rotatable_bonds>
5

> <r_i_docking_score>
-7.24285385261508

> <r_i_glide_ligand_efficiency>
-0.301785577192295

> <r_i_glide_ligand_efficiency_sa>
-0.870500237138956

> <r_i_glide_ligand_efficiency_ln>
-1.73354727983768

> <r_i_glide_gscore>
-7.24285385261508

> <r_i_glide_lipo>
-2.57090634794646

> <r_i_glide_hbond>
-0.446840721915713

> <r_i_glide_metal>
0

> <r_i_glide_rewards>
-1.43855481896742

> <r_i_glide_evdw>
-38.888011932373

> <r_i_glide_ecoul>
-9.23655891418457

> <r_i_glide_erotb>
0.647048962435417

> <r_i_glide_esite>
-0.103716492474567

> <r_i_glide_emodel>
-68.8638671165604

> <r_i_glide_energy>
-48.1245708465576

> <r_i_glide_einternal>
2.59280729293823

> <i_i_glide_confnum>
27

> <i_i_glide_posenum>
206

> <r_i_glide_eff_state_penalty>
0

> <s_user_duplicate_titles>
CHEMBL2208_lig212,434674

> <s_m_subgroup_title>
dock_pv

> <s_m_subgroupid>
dock_pv

> <b_m_subgroup_collapsed>
1

$$$$
CHEMBL2208_lig488
                    3D
 Schrodinger Suite 2021-1.
 36 40  0  0  1  0            999 V2000
   39.8780    8.0057   20.3815 N   0  0  0  0  0  0
   38.7947    7.1928   20.5220 C   0  0  0  0  0  0
   38.1617    6.5960   19.4291 C   0  0  0  0  0  0
   40.3803    8.1970   19.1398 C   0  0  0  0  0  0
   39.8410    7.6252   17.9697 C   0  0  0  0  0  0
   38.6869    6.8134   18.1328 C   0  0  0  0  0  0
   39.8079    7.2257   15.5494 C   0  0  0  0  0  0
   40.3838    7.8166   16.6769 C   0  0  0  0  0  0
   38.6639    6.4250   15.6932 C   0  0  0  0  0  0
   38.1053    6.2352   16.9833 C   0  0  0  0  0  0
   36.9845    5.4335   16.8856 N   0  0  0  0  0  0
   37.8353    5.6623   14.8127 C   0  0  0  0  0  0
   36.8532    5.0922   15.5662 C   0  0  0  0  0  0
   35.9624    4.2475   14.7474 C   0  0  0  0  0  0
   36.6189    4.4250   13.4720 N   0  0  0  0  0  0
   37.6483    5.2864   13.4529 C   0  0  0  0  0  0
   38.2780    5.6250   12.4623 O   0  0  0  0  0  0
   38.3313    6.9210   21.9099 C   0  0  0  0  0  0
   38.2502    7.9327   22.8806 C   0  0  0  0  0  0
   37.8780    7.6250   24.1889 C   0  0  0  0  0  0
   37.5328    6.3220   24.5407 C   0  0  0  0  0  0
   37.5774    5.3145   23.5818 C   0  0  0  0  0  0
   37.9805    5.6124   22.2810 C   0  0  0  0  0  0
   38.5357    9.2218   22.5733 F   0  0  0  0  0  0
   37.2976    5.9631   19.5663 H   0  0  0  0  0  0
   41.2551    8.8248   19.0679 H   0  0  0  0  0  0
   40.2462    7.3788   14.5737 H   0  0  0  0  0  0
   41.2684    8.4250   16.5653 H   0  0  0  0  0  0
   36.3618    5.1065   17.6103 H   0  0  0  0  0  0
   34.9339    4.5979   14.6720 H   0  0  0  0  0  0
   35.9610    3.1977   15.0442 H   0  0  0  0  0  0
   36.6260    3.6384   12.8366 H   0  0  0  0  0  0
   37.8721    8.4044   24.9349 H   0  0  0  0  0  0
   37.2447    6.0917   25.5554 H   0  0  0  0  0  0
   37.3271    4.2982   23.8496 H   0  0  0  0  0  0
   38.0485    4.8040   21.5667 H   0  0  0  0  0  0
  1  2  2  0  0  0
  1  4  1  0  0  0
  2  3  1  0  0  0
  2 18  1  0  0  0
  3  6  2  0  0  0
  3 25  1  0  0  0
  4  5  2  0  0  0
  4 26  1  0  0  0
  5  6  1  0  0  0
  5  8  1  0  0  0
  6 10  1  0  0  0
  7  9  1  0  0  0
  7  8  2  0  0  0
  7 27  1  0  0  0
  8 28  1  0  0  0
  9 12  1  0  0  0
  9 10  2  0  0  0
 10 11  1  0  0  0
 11 13  1  0  0  0
 11 29  1  0  0  0
 12 13  2  0  0  0
 12 16  1  0  0  0
 13 14  1  0  0  0
 14 15  1  0  0  0
 14 30  1  0  0  0
 14 31  1  0  0  0
 15 16  1  0  0  0
 15 32  1  0  0  0
 16 17  2  0  0  0
 18 19  2  0  0  0
 18 23  1  0  0  0
 19 20  1  0  0  0
 19 24  1  0  0  0
 20 21  2  0  0  0
 20 33  1  0  0  0
 21 22  1  0  0  0
 21 34  1  0  0  0
 22 23  2  0  0  0
 22 35  1  0  0  0
 23 36  1  0  0  0
M  END
> <s_m_entry_id>
7564

> <s_m_entry_name>
dock_pv.125

> <s_m_Source_Path>
/home/csk/Desktop/cluster/DUD-E-result/mapk2

> <s_m_Source_File>
dock_pv.maegz

> <i_m_Source_File_Index>
125

> <chembl_id>
CHEMBL1801378

> <chembl_pref_name>
None

> <i_lp_mmshare_version>
53161

> <i_f3d_flags>
0

> <r_lp_tautomer_probability>
1

> <s_lp_Force_Field>
OPLS_2005

> <r_lp_Energy>
62.230998

> <b_lp_Chiralities_Consistent>
1

> <s_lp_Variant>
CHEMBL2208_lig488-1

> <s_i_glide_gridfile>
glide-grid_3m2w

> <i_i_glide_lignum>
658

> <i_i_glide_rotatable_bonds>
1

> <r_i_docking_score>
-7.22992359531976

> <r_i_glide_ligand_efficiency>
-0.301246816471656

> <r_i_glide_ligand_efficiency_sa>
-0.868946182304923

> <r_i_glide_ligand_efficiency_ln>
-1.73045247593606

> <r_i_glide_gscore>
-7.22992359531976

> <r_i_glide_lipo>
-1.89685413639335

> <r_i_glide_hbond>
-0.504569944245494

> <r_i_glide_metal>
0

> <r_i_glide_rewards>
-2.1358210093848

> <r_i_glide_evdw>
-34.8965682983398

> <r_i_glide_ecoul>
-6.86272287368774

> <r_i_glide_erotb>
0.185015414756035

> <r_i_glide_esite>
-0.103457074081997

> <r_i_glide_emodel>
-58.9991335480655

> <r_i_glide_energy>
-41.7592911720276

> <r_i_glide_einternal>
0.247353971004486

> <i_i_glide_confnum>
1

> <i_i_glide_posenum>
36

> <r_i_glide_eff_state_penalty>
0

> <s_user_duplicate_titles>
CHEMBL2208_lig488

> <s_m_subgroup_title>
dock_pv

> <s_m_subgroupid>
dock_pv

> <b_m_subgroup_collapsed>
1

$$$$
CHEMBL2208_lig286
                    3D
 Schrodinger Suite 2021-1.
 33 36  0  0  1  0            999 V2000
   39.4225    6.1656   13.6962 C   0  0  0  0  0  0
   40.2293    6.9559   14.5090 C   0  0  0  0  0  0
   38.7756    6.3957   16.4419 C   0  0  0  0  0  0
   39.8987    7.0665   15.8708 C   0  0  0  0  0  0
   40.7420    8.0163   17.0638 S   0  0  0  0  0  0
   39.1783    7.7774   20.6901 N   0  0  0  0  0  0
   37.8471    7.1849   20.7808 C   0  0  1  0  0  0
   37.6945    5.8543   20.0229 C   0  0  0  0  0  0
   40.0568    7.9183   19.6810 C   0  0  0  0  0  0
   39.6702    7.4736   18.3454 C   0  0  0  0  0  0
   38.6780    6.6163   17.8577 C   0  0  0  0  0  0
   37.6700    6.0246   18.5824 N   0  0  0  0  0  0
   37.4782    7.0142   22.2634 C   0  0  0  0  0  0
   41.1619    8.4251   19.8741 O   0  0  0  0  0  0
   38.3021    5.5535   14.2313 C   0  0  0  0  0  0
   37.9632    5.6502   15.5635 C   0  0  0  0  0  0
   36.6780    4.9238   15.7680 C   0  0  0  0  0  0
   36.4412    4.2815   14.3980 C   0  0  0  0  0  0
   37.4040    4.8294   13.4935 O   0  0  0  0  0  0
   39.6599    6.0601   12.6514 H   0  0  0  0  0  0
   41.0778    7.4794   14.0928 H   0  0  0  0  0  0
   39.5532    8.0949   21.5719 H   0  0  0  0  0  0
   37.1440    7.9076   20.3593 H   0  0  0  0  0  0
   36.7594    5.3696   20.3044 H   0  0  0  0  0  0
   38.4948    5.1644   20.2964 H   0  0  0  0  0  0
   37.1854    5.2824   18.0959 H   0  0  0  0  0  0
   36.5014    6.5406   22.3704 H   0  0  0  0  0  0
   38.1924    6.3747   22.7861 H   0  0  0  0  0  0
   37.4174    7.9734   22.7791 H   0  0  0  0  0  0
   35.8781    5.6220   16.0104 H   0  0  0  0  0  0
   36.6984    4.1719   16.5583 H   0  0  0  0  0  0
   35.4197    4.4228   14.0431 H   0  0  0  0  0  0
   36.6247    3.2104   14.4801 H   0  0  0  0  0  0
  1  2  1  0  0  0
  1 15  2  0  0  0
  1 20  1  0  0  0
  2  4  2  0  0  0
  2 21  1  0  0  0
  3 11  1  0  0  0
  3 16  2  0  0  0
  3  4  1  0  0  0
  4  5  1  0  0  0
  5 10  1  0  0  0
  6  7  1  0  0  0
  6  9  1  0  0  0
  6 22  1  0  0  0
  7  8  1  0  0  0
  7 13  1  0  0  0
  7 23  1  0  0  0
  8 12  1  0  0  0
  8 24  1  0  0  0
  8 25  1  0  0  0
  9 10  1  0  0  0
  9 14  2  0  0  0
 10 11  2  0  0  0
 11 12  1  0  0  0
 12 26  1  0  0  0
 13 27  1  0  0  0
 13 28  1  0  0  0
 13 29  1  0  0  0
 15 16  1  0  0  0
 15 19  1  0  0  0
 16 17  1  0  0  0
 17 18  1  0  0  0
 17 30  1  0  0  0
 17 31  1  0  0  0
 18 19  1  0  0  0
 18 32  1  0  0  0
 18 33  1  0  0  0
M  END
> <s_m_entry_id>
7565

> <s_m_entry_name>
dock_pv.126

> <s_m_Source_Path>
/home/csk/Desktop/cluster/DUD-E-result/mapk2

> <s_m_Source_File>
dock_pv.maegz

> <i_m_Source_File_Index>
126

> <chembl_id>
CHEMBL562754

> <chembl_pref_name>
None

> <i_lp_mmshare_version>
53161

> <i_f3d_flags>
0

> <r_lp_tautomer_probability>
1

> <s_lp_Force_Field>
OPLS_2005

> <r_lp_Energy>
43.44086

> <b_lp_Chiralities_Consistent>
1

> <s_lp_Variant>
CHEMBL2208_lig286-1

> <s_i_glide_gridfile>
glide-grid_3m2w

> <i_i_glide_lignum>
425

> <i_i_glide_rotatable_bonds>
0

> <r_i_docking_score>
-7.22949203054391

> <r_i_glide_ligand_efficiency>
-0.380499580554943

> <r_i_glide_ligand_efficiency_sa>
-1.0153257070943

> <r_i_glide_ligand_efficiency_ln>
-1.83283150499433

> <r_i_glide_gscore>
-7.22949203054391

> <r_i_glide_lipo>
-2.58400134533691

> <r_i_glide_hbond>
-0.147059766975842

> <r_i_glide_metal>
0

> <r_i_glide_rewards>
-1.68732093211295

> <r_i_glide_evdw>
-37.3012046813965

> <r_i_glide_ecoul>
-5.76910257339478

> <r_i_glide_erotb>
0

> <r_i_glide_esite>
-0.0806843660391667

> <r_i_glide_emodel>
-61.1308615113249

> <r_i_glide_energy>
-43.0703072547913

> <r_i_glide_einternal>
0

> <i_i_glide_confnum>
1

> <i_i_glide_posenum>
300

> <r_i_glide_eff_state_penalty>
0

> <s_user_duplicate_titles>
CHEMBL2208_lig286

> <s_m_subgroup_title>
dock_pv

> <s_m_subgroupid>
dock_pv

> <b_m_subgroup_collapsed>
1

$$$$
CHEMBL2208_lig223
                    3D
 Schrodinger Suite 2021-1.
 39 42  0  0  1  0            999 V2000
   39.2776    6.1465   13.9215 C   0  0  0  0  0  0
   38.1487    5.5990   14.5477 C   0  0  0  0  0  0
   37.9622    5.7804   15.9262 C   0  0  0  0  0  0
   40.2412    6.8729   14.6133 C   0  0  0  0  0  0
   37.1512    4.8250   13.7238 C   0  0  0  0  0  0
   37.2157    4.8715   12.4917 O   0  0  0  0  0  0
   36.2693    4.0654   14.4145 N   0  0  0  0  0  0
   35.2714    3.2742   13.8724 C   0  0  0  0  0  0
   40.0547    7.0110   15.9874 C   0  0  0  0  0  0
   38.9231    6.4756   16.6623 C   0  0  0  0  0  0
   40.8106    7.6464   16.9424 N   0  0  0  0  0  0
   40.2029    7.5623   18.1724 C   0  0  0  0  0  0
   39.0448    6.8249   18.0421 C   0  0  0  0  0  0
   38.1385    6.5818   19.2278 C   0  0  0  0  0  0
   38.8822    6.8996   20.5650 C   0  0  1  0  0  0
   39.8439    8.0209   20.4050 N   0  0  0  0  0  0
   40.7038    8.1678   19.3673 C   0  0  0  0  0  0
   41.7350    8.8251   19.4724 O   0  0  0  0  0  0
   37.8471    7.0562   21.7173 C   0  0  0  0  0  0
   38.2780    7.8986   22.8246 N   0  0  0  0  0  0
   34.9135    3.2144   12.6121 N   0  0  0  0  0  0
   33.8779    2.4208   12.4396 C   0  0  0  0  0  0
   33.4004    1.7739   13.5767 C   0  0  0  0  0  0
   34.3545    2.2696   14.9452 S   0  0  0  0  0  0
   39.4221    6.0247   12.8572 H   0  0  0  0  0  0
   37.0935    5.3972   16.4405 H   0  0  0  0  0  0
   41.0781    7.3102   14.0925 H   0  0  0  0  0  0
   36.3675    4.0269   15.4156 H   0  0  0  0  0  0
   41.6719    8.1566   16.8066 H   0  0  0  0  0  0
   37.7816    5.5519   19.2443 H   0  0  0  0  0  0
   37.2501    7.2047   19.1247 H   0  0  0  0  0  0
   39.5088    6.0412   20.8232 H   0  0  0  0  0  0
   40.1496    8.4249   21.2768 H   0  0  0  0  0  0
   37.5785    6.0729   22.1064 H   0  0  0  0  0  0
   36.9264    7.5020   21.3398 H   0  0  0  0  0  0
   37.6050    7.8471   23.5755 H   0  0  0  0  0  0
   39.1572    7.5782   23.2346 H   0  0  0  0  0  0
   33.4771    2.3029   11.4436 H   0  0  0  0  0  0
   32.5773    1.0810   13.6747 H   0  0  0  0  0  0
  1  2  2  0  0  0
  1  4  1  0  0  0
  1 25  1  0  0  0
  2  5  1  0  0  0
  2  3  1  0  0  0
  3 10  2  0  0  0
  3 26  1  0  0  0
  4  9  2  0  0  0
  4 27  1  0  0  0
  5  6  2  0  0  0
  5  7  1  0  0  0
  7  8  1  0  0  0
  7 28  1  0  0  0
  8 21  2  0  0  0
  8 24  1  0  0  0
  9 11  1  0  0  0
  9 10  1  0  0  0
 10 13  1  0  0  0
 11 12  1  0  0  0
 11 29  1  0  0  0
 12 13  2  0  0  0
 12 17  1  0  0  0
 13 14  1  0  0  0
 14 15  1  0  0  0
 14 30  1  0  0  0
 14 31  1  0  0  0
 15 16  1  0  0  0
 15 19  1  0  0  0
 15 32  1  0  0  0
 16 17  1  0  0  0
 16 33  1  0  0  0
 17 18  2  0  0  0
 19 20  1  0  0  0
 19 34  1  0  0  0
 19 35  1  0  0  0
 20 36  1  0  0  0
 20 37  1  0  0  0
 21 22  1  0  0  0
 22 23  2  0  0  0
 22 38  1  0  0  0
 23 24  1  0  0  0
 23 39  1  0  0  0
M  END
> <s_m_entry_id>
7566

> <s_m_entry_name>
dock_pv.127

> <s_m_Source_Path>
/home/csk/Desktop/cluster/DUD-E-result/mapk2

> <s_m_Source_File>
dock_pv.maegz

> <i_m_Source_File_Index>
127

> <chembl_id>
CHEMBL270203

> <chembl_pref_name>
None

> <i_lp_mmshare_version>
53161

> <i_f3d_flags>
0

> <r_lp_tautomer_probability>
0.999000488399163

> <s_lp_Force_Field>
OPLS_2005

> <r_lp_Energy>
24.960812

> <b_lp_Chiralities_Consistent>
1

> <s_lp_Variant>
CHEMBL2208_lig223-2

> <s_i_glide_gridfile>
glide-grid_3m2w

> <i_i_glide_lignum>
352

> <i_i_glide_rotatable_bonds>
4

> <r_i_docking_score>
-7.22600796600838

> <r_i_glide_ligand_efficiency>
-0.301083665250349

> <r_i_glide_ligand_efficiency_sa>
-0.868475572747771

> <r_i_glide_ligand_efficiency_ln>
-1.72951528616533

> <r_i_glide_gscore>
-7.22600796600838

> <r_i_glide_lipo>
-2.53146739920059

> <r_i_glide_hbond>
-0.529944097336797

> <r_i_glide_metal>
0

> <r_i_glide_rewards>
-1.23026787462975

> <r_i_glide_evdw>
-38.020580291748

> <r_i_glide_ecoul>
-9.42221546173096

> <r_i_glide_erotb>
0.487772388345099

> <r_i_glide_esite>
-0.107739649339294

> <r_i_glide_emodel>
-64.8937421123181

> <r_i_glide_energy>
-47.442795753479

> <r_i_glide_einternal>
8.09363174438477

> <i_i_glide_confnum>
5

> <i_i_glide_posenum>
372

> <r_i_glide_eff_state_penalty>
0

> <s_user_duplicate_titles>
CHEMBL2208_lig223

> <s_m_subgroup_title>
dock_pv

> <s_m_subgroupid>
dock_pv

> <b_m_subgroup_collapsed>
1

$$$$
CHEMBL2208_lig1345
                    3D
 Schrodinger Suite 2021-1.
 53 57  0  0  1  0            999 V2000
   37.3983    4.9197   21.9060 O   0  0  0  0  0  0
   39.7269    6.2814   13.4746 N   0  0  0  0  0  0
   38.6222    5.6249   13.0803 N   0  0  0  0  0  0
   35.8717    2.3797   16.8110 N   0  0  0  0  0  0
   38.8565    8.1491   21.0437 N   0  0  0  0  0  0
   34.5131    4.8249   21.8719 N   0  0  0  0  0  0
   38.4978    5.9810   15.3054 C   0  0  0  0  0  0
   39.7070    6.5377   14.8305 C   0  0  0  0  0  0
   39.0875    6.7123   17.5445 C   0  0  0  0  0  0
   38.1866    6.0814   16.6730 C   0  0  0  0  0  0
   37.8828    5.4162   14.1428 C   0  0  0  0  0  0
   38.7934    6.8232   19.0042 C   0  0  0  0  0  0
   34.2704    1.4881   18.1094 C   0  0  0  0  0  0
   34.8743    2.5777   18.8338 C   0  0  0  0  0  0
   40.6049    7.1879   15.6740 C   0  0  0  0  0  0
   34.9022    1.4063   16.8304 C   0  0  0  0  0  0
   40.2731    7.2500   17.0273 C   0  0  0  0  0  0
   38.2298    5.7643   19.7329 C   0  0  0  0  0  0
   37.9596    5.8962   21.1052 C   0  0  0  0  0  0
   35.8414    3.0814   17.9856 C   0  0  0  0  0  0
   39.0802    7.9961   19.7154 C   0  0  0  0  0  0
   34.4634    3.0579   20.2164 C   0  0  0  0  0  0
   33.2432    0.5773   18.4036 C   0  0  0  0  0  0
   34.5164    0.4786   15.8575 C   0  0  0  0  0  0
   35.2900    4.2365   20.7903 C   0  0  2  0  0  0
   38.3105    7.1032   21.7125 C   0  0  0  0  0  0
   36.5899    4.6414   14.0417 C   0  0  0  0  0  0
   32.8562   -0.3492   17.4370 C   0  0  0  0  0  0
   36.6844    3.8183   21.3305 C   0  0  0  0  0  0
   33.4724   -0.3856   16.1898 C   0  0  0  0  0  0
   40.4412    6.5313   12.8015 H   0  0  0  0  0  0
   36.5060    2.5995   16.0577 H   0  0  0  0  0  0
   34.3106    4.1095   22.5560 H   0  0  0  0  0  0
   35.0870    5.5020   22.3625 H   0  0  0  0  0  0
   37.2541    5.6857   17.0421 H   0  0  0  0  0  0
   41.5130    7.6244   15.3008 H   0  0  0  0  0  0
   40.9692    7.7362   17.6956 H   0  0  0  0  0  0
   38.0391    4.8324   19.2340 H   0  0  0  0  0  0
   36.5104    3.9113   18.1198 H   0  0  0  0  0  0
   39.4995    8.8533   19.2118 H   0  0  0  0  0  0
   33.4149    3.3546   20.1485 H   0  0  0  0  0  0
   34.4817    2.2239   20.9202 H   0  0  0  0  0  0
   32.7578    0.5979   19.3680 H   0  0  0  0  0  0
   34.9908    0.4377   14.8881 H   0  0  0  0  0  0
   35.4072    5.0070   20.0276 H   0  0  0  0  0  0
   38.1552    7.2422   22.7725 H   0  0  0  0  0  0
   35.7608    5.1729   14.5085 H   0  0  0  0  0  0
   36.3009    4.4273   13.0120 H   0  0  0  0  0  0
   36.6769    3.6759   14.5336 H   0  0  0  0  0  0
   32.0598   -1.0453   17.6571 H   0  0  0  0  0  0
   36.5571    3.0816   22.1250 H   0  0  0  0  0  0
   37.2777    3.3093   20.5709 H   0  0  0  0  0  0
   33.1315   -1.1076   15.4622 H   0  0  0  0  0  0
  1 19  1  0  0  0
  1 29  1  0  0  0
  2  3  1  0  0  0
  2  8  1  0  0  0
  2 31  1  0  0  0
  3 11  2  0  0  0
  4 16  1  0  0  0
  4 20  1  0  0  0
  4 32  1  0  0  0
  5 21  1  0  0  0
  5 26  2  0  0  0
  6 25  1  0  0  0
  6 33  1  0  0  0
  6 34  1  0  0  0
  7  8  1  0  0  0
  7 10  2  0  0  0
  7 11  1  0  0  0
  8 15  2  0  0  0
  9 10  1  0  0  0
  9 12  1  0  0  0
  9 17  2  0  0  0
 10 35  1  0  0  0
 11 27  1  0  0  0
 12 18  1  0  0  0
 12 21  2  0  0  0
 13 14  1  0  0  0
 13 16  1  0  0  0
 13 23  2  0  0  0
 14 20  2  0  0  0
 14 22  1  0  0  0
 15 17  1  0  0  0
 15 36  1  0  0  0
 16 24  2  0  0  0
 17 37  1  0  0  0
 18 19  2  0  0  0
 18 38  1  0  0  0
 19 26  1  0  0  0
 20 39  1  0  0  0
 21 40  1  0  0  0
 22 25  1  0  0  0
 22 41  1  0  0  0
 22 42  1  0  0  0
 23 28  1  0  0  0
 23 43  1  0  0  0
 24 30  1  0  0  0
 24 44  1  0  0  0
 25 29  1  0  0  0
 25 45  1  0  0  0
 26 46  1  0  0  0
 27 47  1  0  0  0
 27 48  1  0  0  0
 27 49  1  0  0  0
 28 30  2  0  0  0
 28 50  1  0  0  0
 29 51  1  0  0  0
 29 52  1  0  0  0
 30 53  1  0  0  0
M  END
> <s_m_entry_id>
7567

> <s_m_entry_name>
dock_pv.128

> <s_m_Source_Path>
/home/csk/Desktop/cluster/DUD-E-result/mapk2

> <s_m_Source_File>
dock_pv.maegz

> <i_m_Source_File_Index>
128

> <chembl_id>
CHEMBL1970903

> <chembl_pref_name>
None

> <i_lp_mmshare_version>
53161

> <i_f3d_flags>
0

> <r_lp_tautomer_probability>
0.980392156862745

> <s_lp_Force_Field>
OPLS_2005

> <r_lp_Energy>
21.400363

> <b_lp_Chiralities_Consistent>
1

> <s_lp_Variant>
CHEMBL2208_lig1345-1

> <s_i_glide_gridfile>
glide-grid_3m2w

> <i_i_glide_lignum>
1831

> <i_i_glide_rotatable_bonds>
6

> <r_i_docking_score>
-7.22344257646285

> <r_i_glide_ligand_efficiency>
-0.240781419215428

> <r_i_glide_ligand_efficiency_sa>
-0.748163851767665

> <r_i_glide_ligand_efficiency_ln>
-1.64124485908306

> <r_i_glide_gscore>
-7.22344257646285

> <r_i_glide_lipo>
-2.27693495716555

> <r_i_glide_hbond>
-0.678699140567983

> <r_i_glide_metal>
0

> <r_i_glide_rewards>
-1.50921472096685

> <r_i_glide_evdw>
-47.2878532409668

> <r_i_glide_ecoul>
-5.51913356781006

> <r_i_glide_erotb>
0.433668939457382

> <r_i_glide_esite>
0

> <r_i_glide_emodel>
-73.2290634715266

> <r_i_glide_energy>
-52.8069868087769

> <r_i_glide_einternal>
4.52099895477295

> <i_i_glide_confnum>
24

> <i_i_glide_posenum>
264

> <r_i_glide_eff_state_penalty>
0

> <s_user_duplicate_titles>
CHEMBL2208_lig1345

> <s_m_subgroup_title>
dock_pv

> <s_m_subgroupid>
dock_pv

> <b_m_subgroup_collapsed>
1

$$$$
CHEMBL2208_lig1566
                    3D
 Schrodinger Suite 2021-1.
 38 40  0  0  1  0            999 V2000
   35.7807    4.0432   20.9003 N   0  0  0  0  0  0
   36.7817    4.9531   20.7667 C   0  0  0  0  0  0
   37.2532    5.4154   19.5827 N   0  0  0  0  0  0
   36.6773    4.9463   18.4468 C   0  0  0  0  0  0
   35.6401    4.0104   18.4957 C   0  0  0  0  0  0
   35.2249    3.5777   19.7548 C   0  0  0  0  0  0
   37.1255    5.3497   17.1760 N   0  0  0  0  0  0
   38.2364    6.0710   16.6849 C   0  0  0  0  0  0
   38.5911    6.0248   15.3050 C   0  0  0  0  0  0
   39.7182    6.7500   14.8755 C   0  0  0  0  0  0
   40.4882    7.4921   15.7623 C   0  0  0  0  0  0
   40.1407    7.5411   17.1037 C   0  0  0  0  0  0
   39.0287    6.8380   17.5553 C   0  0  0  0  0  0
   37.8620    5.2120   14.2452 C   0  0  0  0  0  0
   36.8269    4.4290   14.6589 O   0  0  0  0  0  0
   38.2089    5.2251   13.0659 O   0  0  0  0  0  0
   37.4227    5.4788   21.8939 N   0  0  0  0  0  0
   37.2332    5.3685   23.2798 C   0  0  0  0  0  0
   38.2139    5.9320   24.1004 C   0  0  0  0  0  0
   38.1043    5.8714   25.4887 C   0  0  0  0  0  0
   37.0048    5.2519   26.0740 C   0  0  0  0  0  0
   36.0106    4.6965   25.2694 C   0  0  0  0  0  0
   36.1273    4.7505   23.8797 C   0  0  0  0  0  0
   39.0781    6.4269   26.2728 O   0  0  0  0  0  0
   35.1774    3.6250   17.5980 H   0  0  0  0  0  0
   34.4439    2.8374   19.8634 H   0  0  0  0  0  0
   36.6232    4.8920   16.4252 H   0  0  0  0  0  0
   40.0287    6.7380   13.8390 H   0  0  0  0  0  0
   41.3565    8.0247   15.4047 H   0  0  0  0  0  0
   40.7309    8.1240   17.7951 H   0  0  0  0  0  0
   38.8005    6.9288   18.6027 H   0  0  0  0  0  0
   36.5322    3.8990   13.9140 H   0  0  0  0  0  0
   38.2129    6.0530   21.6426 H   0  0  0  0  0  0
   39.0773    6.4104   23.6619 H   0  0  0  0  0  0
   36.9141    5.2049   27.1488 H   0  0  0  0  0  0
   35.1525    4.2194   25.7206 H   0  0  0  0  0  0
   35.3326    4.3221   23.2906 H   0  0  0  0  0  0
   39.7695    6.8502   25.7339 H   0  0  0  0  0  0
  1  6  1  0  0  0
  1  2  2  0  0  0
  2 17  1  0  0  0
  2  3  1  0  0  0
  3  4  2  0  0  0
  4  7  1  0  0  0
  4  5  1  0  0  0
  5  6  2  0  0  0
  5 25  1  0  0  0
  6 26  1  0  0  0
  7  8  1  0  0  0
  7 27  1  0  0  0
  8 13  1  0  0  0
  8  9  2  0  0  0
  9 14  1  0  0  0
  9 10  1  0  0  0
 10 11  2  0  0  0
 10 28  1  0  0  0
 11 12  1  0  0  0
 11 29  1  0  0  0
 12 13  2  0  0  0
 12 30  1  0  0  0
 13 31  1  0  0  0
 14 15  1  0  0  0
 14 16  2  0  0  0
 15 32  1  0  0  0
 17 18  1  0  0  0
 17 33  1  0  0  0
 18 19  2  0  0  0
 18 23  1  0  0  0
 19 20  1  0  0  0
 19 34  1  0  0  0
 20 21  2  0  0  0
 20 24  1  0  0  0
 21 22  1  0  0  0
 21 35  1  0  0  0
 22 23  2  0  0  0
 22 36  1  0  0  0
 23 37  1  0  0  0
 24 38  1  0  0  0
M  END
> <s_m_entry_id>
7568

> <s_m_entry_name>
dock_pv.129

> <s_m_Source_Path>
/home/csk/Desktop/cluster/DUD-E-result/mapk2

> <s_m_Source_File>
dock_pv.maegz

> <i_m_Source_File_Index>
129

> <chembl_id>
CHEMBL243088

> <chembl_pref_name>
None

> <i_lp_mmshare_version>
53161

> <i_f3d_flags>
0

> <r_lp_tautomer_probability>
0.999999624730965

> <s_lp_Force_Field>
OPLS_2005

> <r_lp_Energy>
20.655625

> <b_lp_Chiralities_Consistent>
1

> <s_lp_Variant>
CHEMBL2208_lig1566-1

> <s_i_glide_gridfile>
glide-grid_3m2w

> <i_i_glide_lignum>
2188

> <i_i_glide_rotatable_bonds>
7

> <r_i_docking_score>
-7.22301107758993

> <r_i_glide_ligand_efficiency>
-0.30095879489958

> <r_i_glide_ligand_efficiency_sa>
-0.868115384328672

> <r_i_glide_ligand_efficiency_ln>
-1.72879799324855

> <r_i_glide_gscore>
-7.22301107758993

> <r_i_glide_lipo>
-2.12228335090611

> <r_i_glide_hbond>
-0.456

> <r_i_glide_metal>
0

> <r_i_glide_rewards>
-2.12694930696248

> <r_i_glide_evdw>
-38.4167671203613

> <r_i_glide_ecoul>
-9.78301048278809

> <r_i_glide_erotb>
0.899936350462925

> <r_i_glide_esite>
-0.0294248417479909

> <r_i_glide_emodel>
-67.2934043081615

> <r_i_glide_energy>
-48.1997776031494

> <r_i_glide_einternal>
7.10579061508179

> <i_i_glide_confnum>
11

> <i_i_glide_posenum>
353

> <r_i_glide_eff_state_penalty>
0

> <s_user_duplicate_titles>
CHEMBL2208_lig1566

> <s_m_subgroup_title>
dock_pv

> <s_m_subgroupid>
dock_pv

> <b_m_subgroup_collapsed>
1

$$$$
CHEMBL2208_lig1107
                    3D
 Schrodinger Suite 2021-1.
 34 37  0  0  1  0            999 V2000
   39.7130    7.0314   17.3507 C   0  0  0  0  0  0
   40.7501    7.6684   16.6681 C   0  0  0  0  0  0
   40.9209    7.5312   15.2894 C   0  0  0  0  0  0
   38.7950    6.2302   16.6621 C   0  0  0  0  0  0
   38.9283    6.0891   15.2744 C   0  0  0  0  0  0
   39.9985    6.7313   14.6130 C   0  0  0  0  0  0
   39.8732    6.3803   13.2855 N   0  0  0  0  0  0
   38.7819    5.6250   13.0722 N   0  0  0  0  0  0
   38.2220    5.4191   14.2346 C   0  0  0  0  0  0
   39.5550    7.2152   18.8124 C   0  0  0  0  0  0
   39.1467    6.3898   19.8303 C   0  0  0  0  0  0
   39.0756    7.1988   20.9613 C   0  0  0  0  0  0
   39.4728    8.4243   20.6899 N   0  0  0  0  0  0
   39.7879    8.4496   19.3302 O   0  0  0  0  0  0
   38.6260    6.8270   22.3598 C   0  0  0  0  0  0
   37.4355    5.8654   22.4136 C   0  0  0  0  0  0
   36.4129    5.9179   21.4560 C   0  0  0  0  0  0
   35.3644    5.0029   21.4977 C   0  0  0  0  0  0
   35.3143    4.0580   22.5208 C   0  0  0  0  0  0
   36.3056    4.0253   23.4973 C   0  0  0  0  0  0
   37.3718    4.9195   23.4392 C   0  0  0  0  0  0
   41.4456    8.2899   17.2149 H   0  0  0  0  0  0
   41.7295    8.0235   14.7712 H   0  0  0  0  0  0
   37.9851    5.7431   17.1866 H   0  0  0  0  0  0
   40.4789    6.6412   12.5113 H   0  0  0  0  0  0
   37.3331    4.8101   14.3194 H   0  0  0  0  0  0
   38.8897    5.3408   19.7636 H   0  0  0  0  0  0
   38.3865    7.7052   22.9610 H   0  0  0  0  0  0
   39.4662    6.3545   22.8713 H   0  0  0  0  0  0
   36.4375    6.6540   20.6660 H   0  0  0  0  0  0
   34.5911    5.0183   20.7423 H   0  0  0  0  0  0
   34.5026    3.3445   22.5583 H   0  0  0  0  0  0
   36.2589    3.2886   24.2828 H   0  0  0  0  0  0
   38.1522    4.8675   24.1856 H   0  0  0  0  0  0
  1 10  1  0  0  0
  1  2  2  0  0  0
  1  4  1  0  0  0
  2  3  1  0  0  0
  2 22  1  0  0  0
  3  6  2  0  0  0
  3 23  1  0  0  0
  4  5  2  0  0  0
  4 24  1  0  0  0
  5  6  1  0  0  0
  5  9  1  0  0  0
  6  7  1  0  0  0
  7  8  1  0  0  0
  7 25  1  0  0  0
  8  9  2  0  0  0
  9 26  1  0  0  0
 10 11  2  0  0  0
 10 14  1  0  0  0
 11 12  1  0  0  0
 11 27  1  0  0  0
 12 13  2  0  0  0
 12 15  1  0  0  0
 13 14  1  0  0  0
 15 16  1  0  0  0
 15 28  1  0  0  0
 15 29  1  0  0  0
 16 17  2  0  0  0
 16 21  1  0  0  0
 17 18  1  0  0  0
 17 30  1  0  0  0
 18 19  2  0  0  0
 18 31  1  0  0  0
 19 20  1  0  0  0
 19 32  1  0  0  0
 20 21  2  0  0  0
 20 33  1  0  0  0
 21 34  1  0  0  0
M  END
> <s_m_entry_id>
7569

> <s_m_entry_name>
dock_pv.130

> <s_m_Source_Path>
/home/csk/Desktop/cluster/DUD-E-result/mapk2

> <s_m_Source_File>
dock_pv.maegz

> <i_m_Source_File_Index>
130

> <chembl_id>
CHEMBL1682357

> <chembl_pref_name>
None

> <i_lp_mmshare_version>
53161

> <i_f3d_flags>
0

> <r_lp_tautomer_probability>
0.980392156862745

> <s_lp_Force_Field>
OPLS_2005

> <r_lp_Energy>
9.94374

> <b_lp_Chiralities_Consistent>
1

> <s_lp_Variant>
CHEMBL2208_lig1107-1

> <s_i_glide_gridfile>
glide-grid_3m2w

> <i_i_glide_lignum>
1470

> <i_i_glide_rotatable_bonds>
3

> <r_i_docking_score>
-7.22065131484672

> <r_i_glide_ligand_efficiency>
-0.343840538802225

> <r_i_glide_ligand_efficiency_sa>
-0.94862997435866

> <r_i_glide_ligand_efficiency_ln>
-1.78529144689603

> <r_i_glide_gscore>
-7.22065131484672

> <r_i_glide_lipo>
-2.30474885279512

> <r_i_glide_hbond>
-0.608

> <r_i_glide_metal>
0

> <r_i_glide_rewards>
-2.40964414831145

> <r_i_glide_evdw>
-35.1105346679688

> <r_i_glide_ecoul>
-5.27223253250122

> <r_i_glide_erotb>
0.711360799206081

> <r_i_glide_esite>
-0.0632574996726055

> <r_i_glide_emodel>
-57.1367092519285

> <r_i_glide_energy>
-40.38276720047

> <r_i_glide_einternal>
2.50305509567261

> <i_i_glide_confnum>
12

> <i_i_glide_posenum>
143

> <r_i_glide_eff_state_penalty>
0

> <s_user_duplicate_titles>
CHEMBL2208_lig1107

> <s_m_subgroup_title>
dock_pv

> <s_m_subgroupid>
dock_pv

> <b_m_subgroup_collapsed>
1

$$$$
CHEMBL2208_lig1478
                    3D
 Schrodinger Suite 2021-1.
 26 29  0  0  1  0            999 V2000
   37.4781    5.6598   23.2551 S   0  0  0  0  0  0
   40.4262    8.4250   20.1796 O   0  0  0  0  0  0
   38.9037    6.9274   19.2557 N   0  0  0  0  0  0
   37.5381    5.6251   18.1148 N   0  0  0  0  0  0
   39.2197    7.1117   17.9672 N   0  0  0  0  0  0
   39.0772    7.1547   21.5728 N   0  0  0  0  0  0
   38.5489    5.6249   13.0724 N   0  0  0  0  0  0
   37.8910    5.9985   19.3154 C   0  0  0  0  0  0
   37.4309    5.5906   20.6407 C   0  0  0  0  0  0
   38.0675    6.2074   21.7222 C   0  0  0  0  0  0
   38.3903    6.2916   17.3395 C   0  0  0  0  0  0
   39.5461    7.5824   20.3669 C   0  0  0  0  0  0
   36.4720    4.6596   21.0585 C   0  0  0  0  0  0
   38.4346    6.0833   15.8523 C   0  0  0  0  0  0
   36.3781    4.5813   22.4460 C   0  0  0  0  0  0
   39.5417    6.5007   15.0960 C   0  0  0  0  0  0
   37.3843    5.4356   15.1823 C   0  0  0  0  0  0
   39.5627    6.2495   13.7229 C   0  0  0  0  0  0
   37.4799    5.2257   13.8059 C   0  0  0  0  0  0
   39.5348    7.5421   22.3882 H   0  0  0  0  0  0
   35.8808    4.0620   20.3798 H   0  0  0  0  0  0
   35.7288    3.9413   23.0255 H   0  0  0  0  0  0
   40.3793    6.9978   15.5632 H   0  0  0  0  0  0
   36.5106    5.0903   15.7169 H   0  0  0  0  0  0
   40.4053    6.5530   13.1167 H   0  0  0  0  0  0
   36.6918    4.7142   13.2720 H   0  0  0  0  0  0
  1 10  1  0  0  0
  1 15  1  0  0  0
  2 12  2  0  0  0
  3  5  1  0  0  0
  3  8  1  0  0  0
  3 12  1  0  0  0
  4  8  2  0  0  0
  4 11  1  0  0  0
  5 11  2  0  0  0
  6 10  1  0  0  0
  6 12  1  0  0  0
  6 20  1  0  0  0
  7 18  2  0  0  0
  7 19  1  0  0  0
  8  9  1  0  0  0
  9 10  2  0  0  0
  9 13  1  0  0  0
 11 14  1  0  0  0
 13 15  2  0  0  0
 13 21  1  0  0  0
 14 16  2  0  0  0
 14 17  1  0  0  0
 15 22  1  0  0  0
 16 18  1  0  0  0
 16 23  1  0  0  0
 17 19  2  0  0  0
 17 24  1  0  0  0
 18 25  1  0  0  0
 19 26  1  0  0  0
M  END
> <s_m_entry_id>
7570

> <s_m_entry_name>
dock_pv.131

> <s_m_Source_Path>
/home/csk/Desktop/cluster/DUD-E-result/mapk2

> <s_m_Source_File>
dock_pv.maegz

> <i_m_Source_File_Index>
131

> <chembl_id>
CHEMBL1968151

> <chembl_pref_name>
None

> <i_lp_mmshare_version>
53161

> <i_f3d_flags>
0

> <r_lp_tautomer_probability>
1

> <s_lp_Force_Field>
OPLS_2005

> <r_lp_Energy>
21.580623

> <b_lp_Chiralities_Consistent>
1

> <s_lp_Variant>
CHEMBL2208_lig1478-1

> <s_i_glide_gridfile>
glide-grid_3m2w

> <i_i_glide_lignum>
2058

> <i_i_glide_rotatable_bonds>
1

> <r_i_docking_score>
-7.21290897454589

> <r_i_glide_ligand_efficiency>
-0.379626788133994

> <r_i_glide_ligand_efficiency_sa>
-1.01299674636153

> <r_i_glide_ligand_efficiency_ln>
-1.82862734412744

> <r_i_glide_gscore>
-7.21290897454589

> <r_i_glide_lipo>
-1.43468795534619

> <r_i_glide_hbond>
-0.420237145912514

> <r_i_glide_metal>
0

> <r_i_glide_rewards>
-2.81784549452092

> <r_i_glide_evdw>
-35.0938606262207

> <r_i_glide_ecoul>
-6.18762731552124

> <r_i_glide_erotb>
0.246375867650558

> <r_i_glide_esite>
-0.103677117777609

> <r_i_glide_emodel>
-59.9553894609409

> <r_i_glide_energy>
-41.2814879417419

> <r_i_glide_einternal>
0.26143753528595

> <i_i_glide_confnum>
2

> <i_i_glide_posenum>
195

> <r_i_glide_eff_state_penalty>
0

> <s_user_duplicate_titles>
CHEMBL2208_lig1478

> <s_m_subgroup_title>
dock_pv

> <s_m_subgroupid>
dock_pv

> <b_m_subgroup_collapsed>
1

$$$$
CHEMBL2208_lig1497
                    3D
 Schrodinger Suite 2021-1.
 32 33  0  0  1  0            999 V2000
   35.9800    5.0331   14.5863 O   0  0  0  0  0  0
   37.4780    5.2250   12.2720 O   0  0  0  0  0  0
   37.9780    5.2250   18.8444 N   0  0  0  0  0  0
   37.0060    4.8671   19.6740 N   0  0  0  0  0  0
   35.6857    5.6406   21.4720 N   0  0  0  0  0  0
   37.5449    9.2250   21.4524 N   0  0  0  0  0  0
   41.0780    8.4250   19.8720 N   0  0  0  0  0  0
   38.3060    6.4580   19.1420 C   0  0  0  0  0  0
   37.5099    6.9117   20.2360 C   0  0  0  0  0  0
   39.3950    7.1277   18.4221 C   0  0  0  0  0  0
   36.6684    5.8477   20.5481 C   0  0  0  0  0  0
   39.0862    6.5259   15.8990 C   0  0  0  0  0  0
   39.7066    7.1296   17.1027 C   0  0  0  0  0  0
   37.2555    5.5348   14.6363 C   0  0  0  0  0  0
   37.5329    8.2009   20.9140 C   0  0  0  0  0  0
   37.7778    6.0252   15.8367 C   0  0  0  0  0  0
   38.0256    5.5858   13.4731 C   0  0  0  0  0  0
   40.2796    7.8463   19.2721 C   0  0  0  0  0  0
   39.8674    6.4895   14.7349 C   0  0  0  0  0  0
   39.3441    6.0252   13.5303 C   0  0  0  0  0  0
   35.8438    3.7396   15.1609 C   0  0  0  0  0  0
   36.5927    4.8743   12.4064 H   0  0  0  0  0  0
   36.5949    3.9453   19.6586 H   0  0  0  0  0  0
   35.4898    6.3236   22.1961 H   0  0  0  0  0  0
   35.2709    4.7293   21.6059 H   0  0  0  0  0  0
   40.5893    7.7074   16.8594 H   0  0  0  0  0  0
   37.1216    6.0567   16.6899 H   0  0  0  0  0  0
   40.8839    6.8567   14.7430 H   0  0  0  0  0  0
   39.9523    6.0466   12.6383 H   0  0  0  0  0  0
   34.8157    3.3983   15.0412 H   0  0  0  0  0  0
   36.4949    3.0128   14.6720 H   0  0  0  0  0  0
   36.0666    3.7473   16.2294 H   0  0  0  0  0  0
  1 14  1  0  0  0
  1 21  1  0  0  0
  2 17  1  0  0  0
  2 22  1  0  0  0
  3  4  1  0  0  0
  3  8  2  0  0  0
  4 11  1  0  0  0
  4 23  1  0  0  0
  5 11  1  0  0  0
  5 24  1  0  0  0
  5 25  1  0  0  0
  6 15  3  0  0  0
  7 18  3  0  0  0
  8  9  1  0  0  0
  8 10  1  0  0  0
  9 11  2  0  0  0
  9 15  1  0  0  0
 10 13  2  3  0  0
 10 18  1  0  0  0
 12 13  1  0  0  0
 12 16  1  0  0  0
 12 19  2  0  0  0
 13 26  1  0  0  0
 14 16  2  0  0  0
 14 17  1  0  0  0
 16 27  1  0  0  0
 17 20  2  0  0  0
 19 20  1  0  0  0
 19 28  1  0  0  0
 20 29  1  0  0  0
 21 30  1  0  0  0
 21 31  1  0  0  0
 21 32  1  0  0  0
M  END
> <s_m_entry_id>
7571

> <s_m_entry_name>
dock_pv.132

> <s_m_Source_Path>
/home/csk/Desktop/cluster/DUD-E-result/mapk2

> <s_m_Source_File>
dock_pv.maegz

> <i_m_Source_File_Index>
132

> <chembl_id>
CHEMBL2002407

> <chembl_pref_name>
None

> <i_lp_mmshare_version>
53161

> <i_f3d_flags>
0

> <r_lp_tautomer_probability>
1

> <s_lp_Force_Field>
OPLS_2005

> <r_lp_Energy>
18.873651

> <b_lp_Chiralities_Consistent>
1

> <s_lp_Variant>
CHEMBL2208_lig1497-1

> <s_i_glide_gridfile>
glide-grid_3m2w

> <i_i_glide_lignum>
2089

> <i_i_glide_rotatable_bonds>
4

> <r_i_docking_score>
-7.19990793099316

> <r_i_glide_ligand_efficiency>
-0.342852758618722

> <r_i_glide_ligand_efficiency_sa>
-0.94590476373221

> <r_i_glide_ligand_efficiency_ln>
-1.78016268715419

> <r_i_glide_gscore>
-7.19990793099316

> <r_i_glide_lipo>
-2.26006438769294

> <r_i_glide_hbond>
-0.415905502668708

> <r_i_glide_metal>
0

> <r_i_glide_rewards>
-1.74809165190537

> <r_i_glide_evdw>
-34.1372528076172

> <r_i_glide_ecoul>
-9.86372852325439

> <r_i_glide_erotb>
0.456921438063654

> <r_i_glide_esite>
-0.0463459079207825

> <r_i_glide_emodel>
-61.0825819653583

> <r_i_glide_energy>
-44.0009813308716

> <r_i_glide_einternal>
6.27132940292358

> <i_i_glide_confnum>
4

> <i_i_glide_posenum>
17

> <r_i_glide_eff_state_penalty>
0

> <s_user_duplicate_titles>
CHEMBL2208_lig1497

> <s_m_subgroup_title>
dock_pv

> <s_m_subgroupid>
dock_pv

> <b_m_subgroup_collapsed>
1

$$$$
CHEMBL2208_lig326
                    3D
 Schrodinger Suite 2021-1.
 35 38  0  0  1  0            999 V2000
   36.5846    5.6743   20.5626 C   0  0  0  0  0  0
   37.2436    6.2293   19.4635 C   0  0  0  0  0  0
   37.1346    5.6864   18.1794 C   0  0  0  0  0  0
   36.3264    4.5657   17.9677 C   0  0  0  0  0  0
   35.7949    4.5339   20.3590 C   0  0  0  0  0  0
   35.6558    3.9877   19.0491 C   0  0  0  0  0  0
   34.7956    2.8747   19.2102 C   0  0  0  0  0  0
   34.5557    2.8250   20.5617 N   0  0  0  0  0  0
   35.1069    3.8114   21.2924 N   0  0  0  0  0  0
   37.9266    6.2589   17.1679 N   0  0  0  0  0  0
   38.0871    6.0297   15.7946 C   0  0  0  0  0  0
   37.1265    5.4294   14.9685 C   0  0  0  0  0  0
   37.4748    5.2275   13.6311 C   0  0  0  0  0  0
   38.6665    5.6257   13.1175 N   0  0  0  0  0  0
   39.4954    6.2627   13.9787 C   0  0  0  0  0  0
   39.2646    6.4804   15.2935 N   0  0  0  0  0  0
   40.6766    6.7770   13.4721 N   0  0  0  0  0  0
   34.2394    1.9678   18.2365 C   0  0  0  0  0  0
   34.0009    0.5996   18.2545 C   0  0  0  0  0  0
   33.4425    0.2324   17.0242 C   0  0  0  0  0  0
   33.3398    1.3833   16.2590 C   0  0  0  0  0  0
   33.8258    2.4238   17.0085 N   0  0  0  0  0  0
   36.7041    6.0976   21.5500 H   0  0  0  0  0  0
   37.8772    7.0882   19.6280 H   0  0  0  0  0  0
   36.2624    4.0785   17.0131 H   0  0  0  0  0  0
   34.0167    2.0915   21.0000 H   0  0  0  0  0  0
   38.6277    6.8923   17.5180 H   0  0  0  0  0  0
   36.1453    5.1476   15.3121 H   0  0  0  0  0  0
   36.7908    4.7418   12.9495 H   0  0  0  0  0  0
   40.8869    6.7163   12.4769 H   0  0  0  0  0  0
   41.2634    7.3060   14.0965 H   0  0  0  0  0  0
   34.2276   -0.0676   19.0724 H   0  0  0  0  0  0
   33.1470   -0.7638   16.7296 H   0  0  0  0  0  0
   32.9645    1.5558   15.2609 H   0  0  0  0  0  0
   33.8683    3.3941   16.7146 H   0  0  0  0  0  0
  1  5  1  0  0  0
  1 23  1  0  0  0
  1  2  2  0  0  0
  2  3  1  0  0  0
  2 24  1  0  0  0
  3 10  1  0  0  0
  3  4  2  0  0  0
  4 25  1  0  0  0
  4  6  1  0  0  0
  5  9  2  0  0  0
  5  6  1  0  0  0
  6  7  2  0  0  0
  7 18  1  0  0  0
  7  8  1  0  0  0
  8 26  1  0  0  0
  8  9  1  0  0  0
 10 11  1  0  0  0
 10 27  1  0  0  0
 11 16  1  0  0  0
 11 12  2  0  0  0
 12 13  1  0  0  0
 12 28  1  0  0  0
 13 14  2  0  0  0
 13 29  1  0  0  0
 14 15  1  0  0  0
 15 16  2  0  0  0
 15 17  1  0  0  0
 17 30  1  0  0  0
 17 31  1  0  0  0
 18 19  2  0  0  0
 18 22  1  0  0  0
 19 20  1  0  0  0
 19 32  1  0  0  0
 20 21  2  0  0  0
 20 33  1  0  0  0
 21 22  1  0  0  0
 21 34  1  0  0  0
 22 35  1  0  0  0
M  END
> <s_m_entry_id>
7572

> <s_m_entry_name>
dock_pv.133

> <s_m_Source_Path>
/home/csk/Desktop/cluster/DUD-E-result/mapk2

> <s_m_Source_File>
dock_pv.maegz

> <i_m_Source_File_Index>
133

> <chembl_id>
CHEMBL592288

> <chembl_pref_name>
None

> <i_lp_mmshare_version>
53161

> <i_f3d_flags>
0

> <r_lp_tautomer_probability>
0.01682948890584

> <s_lp_Force_Field>
OPLS_2005

> <r_lp_Energy>
19.601779

> <b_lp_Chiralities_Consistent>
1

> <s_lp_Variant>
CHEMBL2208_lig326-2

> <s_i_glide_gridfile>
glide-grid_3m2w

> <i_i_glide_lignum>
478

> <i_i_glide_rotatable_bonds>
3

> <r_i_docking_score>
-7.19815200707323

> <r_i_glide_ligand_efficiency>
-0.327188727594238

> <r_i_glide_ligand_efficiency_sa>
-0.916795682321528

> <r_i_glide_ligand_efficiency_ln>
-1.75949090950261

> <r_i_glide_gscore>
-7.19815200707323

> <r_i_glide_lipo>
-0.955320138006948

> <r_i_glide_hbond>
-0.855446436037071

> <r_i_glide_metal>
0

> <r_i_glide_rewards>
-2.66788213636364

> <r_i_glide_evdw>
-31.9099578857422

> <r_i_glide_ecoul>
-9.89425754547119

> <r_i_glide_erotb>
0.451343743785837

> <r_i_glide_esite>
-0.0912105143436272

> <r_i_glide_emodel>
-57.3503069907677

> <r_i_glide_energy>
-41.8042154312134

> <r_i_glide_einternal>
5.42390823364258

> <i_i_glide_confnum>
9

> <i_i_glide_posenum>
248

> <r_i_glide_eff_state_penalty>
0

> <s_user_duplicate_titles>
CHEMBL2208_lig326,590186

> <s_m_subgroup_title>
dock_pv

> <s_m_subgroupid>
dock_pv

> <b_m_subgroup_collapsed>
1

$$$$
CHEMBL2208_lig834
                    3D
 Schrodinger Suite 2021-1.
 53 57  0  0  1  0            999 V2000
   37.4676    6.0694   20.9633 C   0  0  1  0  0  0
   38.2764    4.8874   21.5555 C   0  0  0  0  0  0
   37.7419    4.4829   22.9379 C   0  0  0  0  0  0
   36.2423    4.1404   22.8695 C   0  0  0  0  0  0
   35.4596    5.2225   22.2700 N   0  0  2  0  0  0
   35.9663    5.6618   20.9688 C   0  0  0  0  0  0
   37.7007    7.4158   21.7373 C   0  0  0  0  0  0
   39.0894    7.9069   21.5451 N   0  0  0  0  0  0
   39.7444    7.9473   20.3522 C   0  0  0  0  0  0
   40.8703    8.4256   20.2629 O   0  0  0  0  0  0
   37.9660    6.4006   19.5658 C   0  0  0  0  0  0
   39.0018    7.2870   19.3133 C   0  0  0  0  0  0
   39.2396    7.2261   17.9341 C   0  0  0  0  0  0
   38.2893    6.4025   17.3406 C   0  0  0  0  0  0
   37.5376    5.8923   18.3726 N   0  0  0  0  0  0
   38.0695    6.0248   15.9221 C   0  0  0  0  0  0
   38.9410    6.4425   14.9112 C   0  0  0  0  0  0
   38.6972    6.0248   13.6037 C   0  0  0  0  0  0
   37.6540    5.2237   13.2690 N   0  0  0  0  0  0
   36.8363    4.7802   14.2617 C   0  0  0  0  0  0
   36.9927    5.2000   15.5854 C   0  0  0  0  0  0
   35.8780    3.8319   13.8722 N   0  0  0  0  0  0
   35.3013    2.8549   14.6155 C   0  0  0  0  0  0
   34.4422    1.8714   13.8500 C   0  0  0  0  0  0
   35.4866    2.6891   15.8224 O   0  0  0  0  0  0
   32.8998   -0.0012   12.4249 C   0  0  0  0  0  0
   33.0269    1.3021   11.9509 C   0  0  0  0  0  0
   33.7940    2.2291   12.6558 C   0  0  0  0  0  0
   33.5335   -0.3757   13.6069 C   0  0  0  0  0  0
   34.2905    0.5561   14.3194 C   0  0  0  0  0  0
   33.4234   -1.6479   14.0534 F   0  0  0  0  0  0
   38.1980    4.0226   20.8947 H   0  0  0  0  0  0
   39.3396    5.1261   21.6155 H   0  0  0  0  0  0
   38.2936    3.6133   23.2913 H   0  0  0  0  0  0
   37.9314    5.2458   23.6931 H   0  0  0  0  0  0
   36.0890    3.2302   22.2860 H   0  0  0  0  0  0
   35.8567    3.9451   23.8710 H   0  0  0  0  0  0
   35.3863    6.0022   22.9198 H   0  0  0  0  0  0
   35.3585    6.5027   20.6388 H   0  0  0  0  0  0
   35.7891    4.8543   20.2559 H   0  0  0  0  0  0
   37.5103    7.3033   22.8046 H   0  0  0  0  0  0
   37.0102    8.1878   21.3905 H   0  0  0  0  0  0
   39.6535    8.0503   22.3747 H   0  0  0  0  0  0
   40.0248    7.7592   17.4181 H   0  0  0  0  0  0
   36.7963    5.2147   18.2672 H   0  0  0  0  0  0
   39.7906    7.0721   15.1297 H   0  0  0  0  0  0
   39.3514    6.3337   12.8004 H   0  0  0  0  0  0
   36.3044    4.8683   16.3464 H   0  0  0  0  0  0
   35.7413    3.7671   12.8768 H   0  0  0  0  0  0
   32.3174   -0.7234   11.8728 H   0  0  0  0  0  0
   32.5396    1.5917   11.0313 H   0  0  0  0  0  0
   33.8802    3.2236   12.2476 H   0  0  0  0  0  0
   34.7720    0.2434   15.2354 H   0  0  0  0  0  0
  1  6  1  0  0  0
  1 11  1  0  0  0
  1  7  1  0  0  0
  1  2  1  0  0  0
  2  3  1  0  0  0
  2 32  1  0  0  0
  2 33  1  0  0  0
  3  4  1  0  0  0
  3 34  1  0  0  0
  3 35  1  0  0  0
  4  5  1  0  0  0
  4 36  1  0  0  0
  4 37  1  0  0  0
  5  6  1  0  0  0
  5 38  1  0  0  0
  6 39  1  0  0  0
  6 40  1  0  0  0
  7  8  1  0  0  0
  7 41  1  0  0  0
  7 42  1  0  0  0
  8  9  1  0  0  0
  8 43  1  0  0  0
  9 12  1  0  0  0
  9 10  2  0  0  0
 11 15  1  0  0  0
 11 12  2  0  0  0
 12 13  1  0  0  0
 13 14  2  0  0  0
 13 44  1  0  0  0
 14 15  1  0  0  0
 14 16  1  0  0  0
 15 45  1  0  0  0
 16 17  2  0  0  0
 16 21  1  0  0  0
 17 18  1  0  0  0
 17 46  1  0  0  0
 18 19  2  0  0  0
 18 47  1  0  0  0
 19 20  1  0  0  0
 20 21  2  0  0  0
 20 22  1  0  0  0
 21 48  1  0  0  0
 22 23  1  0  0  0
 22 49  1  0  0  0
 23 24  1  0  0  0
 23 25  2  0  0  0
 24 30  2  0  0  0
 24 28  1  0  0  0
 26 29  2  0  0  0
 26 27  1  0  0  0
 26 50  1  0  0  0
 27 28  2  0  0  0
 27 51  1  0  0  0
 28 52  1  0  0  0
 29 30  1  0  0  0
 29 31  1  0  0  0
 30 53  1  0  0  0
M  END
> <s_m_entry_id>
7573

> <s_m_entry_name>
dock_pv.134

> <s_m_Source_Path>
/home/csk/Desktop/cluster/DUD-E-result/mapk2

> <s_m_Source_File>
dock_pv.maegz

> <i_m_Source_File_Index>
134

> <chembl_id>
CHEMBL1933182

> <chembl_pref_name>
None

> <i_lp_mmshare_version>
53161

> <i_f3d_flags>
0

> <r_lp_tautomer_probability>
1

> <s_lp_Force_Field>
OPLS_2005

> <r_lp_Energy>
40.877191

> <b_lp_Chiralities_Consistent>
1

> <s_lp_Variant>
CHEMBL2208_lig834-1

> <s_i_glide_gridfile>
glide-grid_3m2w

> <i_i_glide_lignum>
1066

> <i_i_glide_rotatable_bonds>
4

> <r_i_docking_score>
-7.19672137808342

> <r_i_glide_ligand_efficiency>
-0.23215230251882

> <r_i_glide_ligand_efficiency_sa>
-0.729278750705957

> <r_i_glide_ligand_efficiency_ln>
-1.62308122378063

> <r_i_glide_gscore>
-7.19672137808342

> <r_i_glide_lipo>
-2.41978246014883

> <r_i_glide_hbond>
-0.506832587683943

> <r_i_glide_metal>
0

> <r_i_glide_rewards>
-0.857127560278141

> <r_i_glide_evdw>
-46.5496826171875

> <r_i_glide_ecoul>
-9.12785625457764

> <r_i_glide_erotb>
0.449779182741914

> <r_i_glide_esite>
-0.166095383668399

> <r_i_glide_emodel>
-76.4082608073044

> <r_i_glide_energy>
-55.6775388717651

> <r_i_glide_einternal>
5.45532941818237

> <i_i_glide_confnum>
33

> <i_i_glide_posenum>
392

> <r_i_glide_eff_state_penalty>
0

> <s_user_duplicate_titles>
CHEMBL2208_lig834

> <s_m_subgroup_title>
dock_pv

> <s_m_subgroupid>
dock_pv

> <b_m_subgroup_collapsed>
1

$$$$
CHEMBL2208_lig74
                    3D
 Schrodinger Suite 2021-1.
 27 29  0  0  1  0            999 V2000
   37.0044    6.2585   20.6972 C   0  0  0  0  0  0
   38.1131    6.2873   21.7885 C   0  0  0  0  0  0
   39.0777    7.3874   21.5455 N   0  0  0  0  0  0
   39.6525    7.6703   20.3445 C   0  0  0  0  0  0
   37.6996    6.4540   19.3709 C   0  0  0  0  0  0
   38.9484    7.0451   19.2523 C   0  0  0  0  0  0
   39.2583    7.0130   17.8871 C   0  0  0  0  0  0
   38.2631    6.3258   17.1975 C   0  0  0  0  0  0
   37.3246    5.9803   18.1416 N   0  0  0  0  0  0
   38.1598    5.9793   15.7539 C   0  0  0  0  0  0
   39.1748    6.3782   14.8731 C   0  0  0  0  0  0
   39.0790    6.0229   13.5295 C   0  0  0  0  0  0
   38.0437    5.2999   13.0350 N   0  0  0  0  0  0
   37.0734    4.9068   13.8949 C   0  0  0  0  0  0
   37.0875    5.2312   15.2512 C   0  0  0  0  0  0
   40.6202    8.4248   20.2714 O   0  0  0  0  0  0
   36.4423    5.3250   20.7444 H   0  0  0  0  0  0
   36.2899    7.0641   20.8737 H   0  0  0  0  0  0
   38.6608    5.3405   21.8053 H   0  0  0  0  0  0
   37.6720    6.4055   22.7808 H   0  0  0  0  0  0
   39.4870    7.8204   22.3622 H   0  0  0  0  0  0
   40.1496    7.4370   17.4513 H   0  0  0  0  0  0
   36.4800    5.4605   17.9571 H   0  0  0  0  0  0
   40.0224    6.9514   15.2133 H   0  0  0  0  0  0
   39.8471    6.3166   12.8275 H   0  0  0  0  0  0
   36.2744    4.3109   13.4791 H   0  0  0  0  0  0
   36.2809    4.8935   15.8857 H   0  0  0  0  0  0
  1  5  1  0  0  0
  1  2  1  0  0  0
  1 17  1  0  0  0
  1 18  1  0  0  0
  2  3  1  0  0  0
  2 19  1  0  0  0
  2 20  1  0  0  0
  3  4  1  0  0  0
  3 21  1  0  0  0
  4  6  1  0  0  0
  4 16  2  0  0  0
  5  9  1  0  0  0
  5  6  2  0  0  0
  6  7  1  0  0  0
  7  8  2  0  0  0
  7 22  1  0  0  0
  8  9  1  0  0  0
  8 10  1  0  0  0
  9 23  1  0  0  0
 10 11  2  0  0  0
 10 15  1  0  0  0
 11 12  1  0  0  0
 11 24  1  0  0  0
 12 13  2  0  0  0
 12 25  1  0  0  0
 13 14  1  0  0  0
 14 15  2  0  0  0
 14 26  1  0  0  0
 15 27  1  0  0  0
M  END
> <s_m_entry_id>
7574

> <s_m_entry_name>
dock_pv.135

> <s_m_Source_Path>
/home/csk/Desktop/cluster/DUD-E-result/mapk2

> <s_m_Source_File>
dock_pv.maegz

> <i_m_Source_File_Index>
135

> <chembl_id>
CHEMBL225519

> <chembl_pref_name>
None

> <i_lp_mmshare_version>
53161

> <i_f3d_flags>
0

> <r_lp_tautomer_probability>
1

> <s_lp_Force_Field>
OPLS_2005

> <r_lp_Energy>
13.581071

> <b_lp_Chiralities_Consistent>
1

> <s_lp_Variant>
CHEMBL2208_lig74-1

> <s_i_glide_gridfile>
glide-grid_3m2w

> <i_i_glide_lignum>
86

> <i_i_glide_rotatable_bonds>
1

> <r_i_docking_score>
-7.17955955854206

> <r_i_glide_ligand_efficiency>
-0.448722472408879

> <r_i_glide_ligand_efficiency_sa>
-1.13070977605264

> <r_i_glide_ligand_efficiency_ln>
-1.90308567594921

> <r_i_glide_gscore>
-7.17955955854206

> <r_i_glide_lipo>
-1.63268280299694

> <r_i_glide_hbond>
-0.45772705227106

> <r_i_glide_metal>
0

> <r_i_glide_rewards>
-2.76354760606061

> <r_i_glide_evdw>
-29.4623756408691

> <r_i_glide_ecoul>
-7.4248423576355

> <r_i_glide_erotb>
0.366806049294127

> <r_i_glide_esite>
-0.105563010818808

> <r_i_glide_emodel>
-53.6417000828862

> <r_i_glide_energy>
-36.8872179985046

> <r_i_glide_einternal>
6.12949006608687e-05

> <i_i_glide_confnum>
1

> <i_i_glide_posenum>
384

> <r_i_glide_eff_state_penalty>
0

> <s_user_duplicate_titles>
CHEMBL2208_lig74,378628

> <s_m_subgroup_title>
dock_pv

> <s_m_subgroupid>
dock_pv

> <b_m_subgroup_collapsed>
1

$$$$
CHEMBL2208_lig812
                    3D
 Schrodinger Suite 2021-1.
 56 60  0  0  1  0            999 V2000
   37.7893    6.1734   20.6789 C   0  0  1  0  0  0
   38.4995    4.9503   21.3139 C   0  0  0  0  0  0
   37.8403    4.5428   22.6418 C   0  0  0  0  0  0
   36.3310    4.2885   22.4621 C   0  0  0  0  0  0
   35.6567    5.4469   21.8731 N   0  0  2  0  0  0
   36.2612    5.8760   20.6158 C   0  0  0  0  0  0
   38.0871    7.5107   21.4473 C   0  0  0  0  0  0
   39.4766    7.9857   21.2137 N   0  0  0  0  0  0
   40.1028    8.0255   20.0059 C   0  0  0  0  0  0
   41.2056    8.5513   19.8722 O   0  0  0  0  0  0
   38.3226    6.4554   19.2868 C   0  0  0  0  0  0
   39.3546    7.3326   19.0021 C   0  0  0  0  0  0
   39.5679    7.2624   17.6202 C   0  0  0  0  0  0
   38.6136    6.4244   17.0618 C   0  0  0  0  0  0
   37.8838    5.9288   18.1094 N   0  0  0  0  0  0
   38.3358    6.0282   15.6663 C   0  0  0  0  0  0
   39.2196    6.3460   14.6344 C   0  0  0  0  0  0
   38.8997    5.9331   13.3441 C   0  0  0  0  0  0
   37.7772    5.2250   13.0528 N   0  0  0  0  0  0
   36.9452    4.8753   14.0719 C   0  0  0  0  0  0
   37.1772    5.3055   15.3779 C   0  0  0  0  0  0
   35.8786    4.0235   13.7431 N   0  0  0  0  0  0
   35.3063    3.0751   14.5264 C   0  0  0  0  0  0
   34.3152    2.1463   13.8536 C   0  0  0  0  0  0
   35.5893    2.8957   15.7134 O   0  0  0  0  0  0
   32.5180    0.3509   12.6465 C   0  0  0  0  0  0
   32.9609    0.1104   13.9511 C   0  0  0  0  0  0
   33.8545    1.0120   14.5414 C   0  0  0  0  0  0
   32.9543    1.4755   11.9512 C   0  0  0  0  0  0
   33.8434    2.3702   12.5470 C   0  0  0  0  0  0
   32.4565   -1.1119   14.7156 C   0  0  0  0  0  0
   32.6800   -1.0165   16.0270 F   0  0  0  0  0  0
   31.1453   -1.2738   14.5279 F   0  0  0  0  0  0
   33.0804   -2.2009   14.2719 F   0  0  0  0  0  0
   38.4416    4.0923   20.6403 H   0  0  0  0  0  0
   39.5611    5.1513   21.4657 H   0  0  0  0  0  0
   38.3140    3.6327   23.0091 H   0  0  0  0  0  0
   38.0168    5.2752   23.4299 H   0  0  0  0  0  0
   36.1649    3.4156   21.8275 H   0  0  0  0  0  0
   35.8674    4.0735   23.4260 H   0  0  0  0  0  0
   35.6777    6.2037   22.5479 H   0  0  0  0  0  0
   35.7262    6.7610   20.2738 H   0  0  0  0  0  0
   36.0570    5.0946   19.8799 H   0  0  0  0  0  0
   37.9259    7.3941   22.5191 H   0  0  0  0  0  0
   37.3980    8.2940   21.1246 H   0  0  0  0  0  0
   40.0463    8.1684   22.0302 H   0  0  0  0  0  0
   40.3338    7.7986   17.0809 H   0  0  0  0  0  0
   37.1270    5.2678   18.0234 H   0  0  0  0  0  0
   40.1276    6.8978   14.8216 H   0  0  0  0  0  0
   39.5627    6.1631   12.5217 H   0  0  0  0  0  0
   36.4758    5.0627   16.1580 H   0  0  0  0  0  0
   35.6571    3.9915   12.7608 H   0  0  0  0  0  0
   31.8303   -0.3325   12.1686 H   0  0  0  0  0  0
   34.1975    0.8242   15.5518 H   0  0  0  0  0  0
   32.6040    1.6531   10.9454 H   0  0  0  0  0  0
   34.1623    3.2248   11.9685 H   0  0  0  0  0  0
  1 11  1  0  0  0
  1  7  1  0  0  0
  1  2  1  0  0  0
  1  6  1  0  0  0
  2  3  1  0  0  0
  2 35  1  0  0  0
  2 36  1  0  0  0
  3  4  1  0  0  0
  3 37  1  0  0  0
  3 38  1  0  0  0
  4  5  1  0  0  0
  4 39  1  0  0  0
  4 40  1  0  0  0
  5  6  1  0  0  0
  5 41  1  0  0  0
  6 42  1  0  0  0
  6 43  1  0  0  0
  7  8  1  0  0  0
  7 44  1  0  0  0
  7 45  1  0  0  0
  8  9  1  0  0  0
  8 46  1  0  0  0
  9 12  1  0  0  0
  9 10  2  0  0  0
 11 12  2  0  0  0
 11 15  1  0  0  0
 12 13  1  0  0  0
 13 14  2  0  0  0
 13 47  1  0  0  0
 14 16  1  0  0  0
 14 15  1  0  0  0
 15 48  1  0  0  0
 16 17  2  0  0  0
 16 21  1  0  0  0
 17 18  1  0  0  0
 17 49  1  0  0  0
 18 19  2  0  0  0
 18 50  1  0  0  0
 19 20  1  0  0  0
 20 21  2  0  0  0
 20 22  1  0  0  0
 21 51  1  0  0  0
 22 23  1  0  0  0
 22 52  1  0  0  0
 23 24  1  0  0  0
 23 25  2  0  0  0
 24 30  2  0  0  0
 24 28  1  0  0  0
 26 29  2  0  0  0
 26 27  1  0  0  0
 26 53  1  0  0  0
 27 28  2  0  0  0
 27 31  1  0  0  0
 28 54  1  0  0  0
 29 30  1  0  0  0
 29 55  1  0  0  0
 30 56  1  0  0  0
 31 32  1  0  0  0
 31 33  1  0  0  0
 31 34  1  0  0  0
M  END
> <s_m_entry_id>
7575

> <s_m_entry_name>
dock_pv.136

> <s_m_Source_Path>
/home/csk/Desktop/cluster/DUD-E-result/mapk2

> <s_m_Source_File>
dock_pv.maegz

> <i_m_Source_File_Index>
136

> <chembl_id>
CHEMBL1933187

> <chembl_pref_name>
None

> <i_lp_mmshare_version>
53161

> <i_f3d_flags>
0

> <r_lp_tautomer_probability>
1

> <s_lp_Force_Field>
OPLS_2005

> <r_lp_Energy>
46.229344

> <b_lp_Chiralities_Consistent>
1

> <s_lp_Variant>
CHEMBL2208_lig812-1

> <s_i_glide_gridfile>
glide-grid_3m2w

> <i_i_glide_lignum>
1035

> <i_i_glide_rotatable_bonds>
5

> <r_i_docking_score>
-7.17662181955819

> <r_i_glide_ligand_efficiency>
-0.211077112339947

> <r_i_glide_ligand_efficiency_sa>
-0.68380790331228

> <r_i_glide_ligand_efficiency_ln>
-1.58551705736405

> <r_i_glide_gscore>
-7.17662181955819

> <r_i_glide_lipo>
-2.42095766803819

> <r_i_glide_hbond>
-0.605529566405597

> <r_i_glide_metal>
0

> <r_i_glide_rewards>
-0.625139086513627

> <r_i_glide_evdw>
-47.5854568481445

> <r_i_glide_ecoul>
-8.74634838104248

> <r_i_glide_erotb>
0.366577633963979

> <r_i_glide_esite>
-0.200348033001162

> <r_i_glide_emodel>
-77.6364769717544

> <r_i_glide_energy>
-56.331805229187

> <r_i_glide_einternal>
5.36626482009888

> <i_i_glide_confnum>
25

> <i_i_glide_posenum>
161

> <r_i_glide_eff_state_penalty>
0

> <s_user_duplicate_titles>
CHEMBL2208_lig812

> <s_m_subgroup_title>
dock_pv

> <s_m_subgroupid>
dock_pv

> <b_m_subgroup_collapsed>
1

$$$$
CHEMBL2208_lig991
                    3D
 Schrodinger Suite 2021-1.
 38 41  0  0  1  0            999 V2000
   39.8911    8.0493   19.5826 O   0  0  0  0  0  0
   37.4784    7.7368   22.9982 O   0  0  0  0  0  0
   39.4648    8.0221   20.9146 N   0  0  0  0  0  0
   37.4036    5.5236   22.4218 N   0  0  0  0  0  0
   39.7566    6.3668   13.3512 N   0  0  0  0  0  0
   38.6704    5.6249   13.0725 N   0  0  0  0  0  0
   39.0790    7.2410   18.8507 C   0  0  0  0  0  0
   39.3221    7.0834   17.3894 C   0  0  0  0  0  0
   38.4667    7.1586   20.9857 C   0  0  0  0  0  0
   38.6603    6.1300   15.2713 C   0  0  0  0  0  0
   38.1235    6.7311   19.6971 C   0  0  0  0  0  0
   37.7511    6.8300   22.2073 C   0  0  0  0  0  0
   39.7862    6.7419   14.6768 C   0  0  0  0  0  0
   38.4310    6.3003   16.6430 C   0  0  0  0  0  0
   40.4128    7.6940   16.7640 C   0  0  0  0  0  0
   40.6652    7.5418   15.3991 C   0  0  0  0  0  0
   38.0179    5.4555   14.1918 C   0  0  0  0  0  0
   36.6184    5.1136   23.6037 C   0  0  0  0  0  0
   37.7986    4.3873   21.5704 C   0  0  0  0  0  0
   35.3086    4.4534   23.0943 C   0  0  0  0  0  0
   36.5135    3.7976   20.9505 C   0  0  0  0  0  0
   35.5175    3.3525   22.0351 C   0  0  0  0  0  0
   40.4148    6.6072   12.6164 H   0  0  0  0  0  0
   37.3093    6.0833   19.4192 H   0  0  0  0  0  0
   37.5772    5.8286   17.1068 H   0  0  0  0  0  0
   41.0851    8.3071   17.3478 H   0  0  0  0  0  0
   41.4912    8.0246   14.9135 H   0  0  0  0  0  0
   37.1107    4.8684   14.2227 H   0  0  0  0  0  0
   36.4202    5.9386   24.2911 H   0  0  0  0  0  0
   37.2134    4.3804   24.1527 H   0  0  0  0  0  0
   38.6162    4.5858   20.8773 H   0  0  0  0  0  0
   38.2336    3.6300   22.2309 H   0  0  0  0  0  0
   34.6687    5.2248   22.6699 H   0  0  0  0  0  0
   34.7525    4.0531   23.9425 H   0  0  0  0  0  0
   36.7741    2.9415   20.3267 H   0  0  0  0  0  0
   36.0379    4.5179   20.2857 H   0  0  0  0  0  0
   35.8774    2.4442   22.5145 H   0  0  0  0  0  0
   34.5627    3.0787   21.5847 H   0  0  0  0  0  0
  1  3  1  0  0  0
  1  7  1  0  0  0
  2 12  2  0  0  0
  3  9  2  0  0  0
  4 12  1  0  0  0
  4 18  1  0  0  0
  4 19  1  0  0  0
  5  6  1  0  0  0
  5 13  1  0  0  0
  5 23  1  0  0  0
  6 17  2  0  0  0
  7  8  1  0  0  0
  7 11  2  0  0  0
  8 14  1  0  0  0
  8 15  2  0  0  0
  9 11  1  0  0  0
  9 12  1  0  0  0
 10 13  1  0  0  0
 10 14  2  0  0  0
 10 17  1  0  0  0
 11 24  1  0  0  0
 13 16  2  0  0  0
 14 25  1  0  0  0
 15 16  1  0  0  0
 15 26  1  0  0  0
 16 27  1  0  0  0
 17 28  1  0  0  0
 18 20  1  0  0  0
 18 29  1  0  0  0
 18 30  1  0  0  0
 19 21  1  0  0  0
 19 31  1  0  0  0
 19 32  1  0  0  0
 20 22  1  0  0  0
 20 33  1  0  0  0
 20 34  1  0  0  0
 21 22  1  0  0  0
 21 35  1  0  0  0
 21 36  1  0  0  0
 22 37  1  0  0  0
 22 38  1  0  0  0
M  END
> <s_m_entry_id>
7576

> <s_m_entry_name>
dock_pv.137

> <s_m_Source_Path>
/home/csk/Desktop/cluster/DUD-E-result/mapk2

> <s_m_Source_File>
dock_pv.maegz

> <i_m_Source_File_Index>
137

> <chembl_id>
CHEMBL2006481

> <chembl_pref_name>
None

> <i_lp_mmshare_version>
53161

> <i_f3d_flags>
0

> <r_lp_tautomer_probability>
0.980392156862745

> <s_lp_Force_Field>
OPLS_2005

> <r_lp_Energy>
34.365332

> <b_lp_Chiralities_Consistent>
1

> <s_lp_Variant>
CHEMBL2208_lig991-1

> <s_i_glide_gridfile>
glide-grid_3m2w

> <i_i_glide_lignum>
1287

> <i_i_glide_rotatable_bonds>
3

> <r_i_docking_score>
-7.17646399388307

> <r_i_glide_ligand_efficiency>
-0.326202908812867

> <r_i_glide_ligand_efficiency_sa>
-0.914033379326074

> <r_i_glide_ligand_efficiency_ln>
-1.75418956798944

> <r_i_glide_gscore>
-7.17646399388307

> <r_i_glide_lipo>
-2.1350686243283

> <r_i_glide_hbond>
-0.608

> <r_i_glide_metal>
0

> <r_i_glide_rewards>
-2.28299089979016

> <r_i_glide_evdw>
-37.7126846313477

> <r_i_glide_ecoul>
-5.35602045059204

> <r_i_glide_erotb>
0.625850421345958

> <r_i_glide_esite>
-0.0872175919543774

> <r_i_glide_emodel>
-59.1248591135972

> <r_i_glide_energy>
-43.0687050819397

> <r_i_glide_einternal>
4.88324451446533

> <i_i_glide_confnum>
24

> <i_i_glide_posenum>
388

> <r_i_glide_eff_state_penalty>
0

> <s_user_duplicate_titles>
CHEMBL2208_lig991

> <s_m_subgroup_title>
dock_pv

> <s_m_subgroupid>
dock_pv

> <b_m_subgroup_collapsed>
1

$$$$
CHEMBL2208_lig336
                    3D
 Schrodinger Suite 2021-1.
 48 53  0  0  1  0            999 V2000
   35.6300    4.8943   26.4560 C   0  0  0  0  0  0
   34.6863    3.9271   26.5628 N   0  0  0  0  0  0
   34.3374    3.2748   25.4331 C   0  0  0  0  0  0
   34.8210    3.4835   24.1887 N   0  0  0  0  0  0
   36.2056    5.1683   25.2087 C   0  0  0  0  0  0
   35.7671    4.4271   24.0699 C   0  0  0  0  0  0
   36.4830    4.9136   22.9106 C   0  0  0  0  0  0
   37.3419    5.8834   23.4213 C   0  0  0  0  0  0
   37.1704    6.0615   24.7770 N   0  0  0  0  0  0
   33.3594    2.3033   25.5504 N   0  0  0  0  0  0
   37.8430    7.0748   25.5880 C   0  0  0  0  0  0
   38.6822    6.4920   26.7174 C   0  0  0  0  0  0
   36.3428    4.4995   21.4705 C   0  0  0  0  0  0
   39.6843    6.7886   13.9102 C   0  0  0  0  0  0
   40.6672    7.3511   14.7127 C   0  0  0  0  0  0
   40.5848    7.3064   16.1015 C   0  0  0  0  0  0
   38.5397    6.2256   14.4701 C   0  0  0  0  0  0
   38.4080    6.1757   15.8676 C   0  0  0  0  0  0
   39.4590    6.6977   16.6734 C   0  0  0  0  0  0
   39.1343    6.4497   18.3807 S   0  0  0  0  0  0
   37.6266    5.6253   18.0098 C   0  0  0  0  0  0
   37.3489    5.6552   16.6529 C   0  0  0  0  0  0
   36.8745    4.9108   19.0929 C   0  0  0  0  0  0
   36.9631    5.2433   20.4549 C   0  0  0  0  0  0
   35.5699    3.3845   21.1287 C   0  0  0  0  0  0
   36.0845    3.7887   18.7908 C   0  0  0  0  0  0
   35.4283    3.0332   19.7856 C   0  0  0  0  0  0
   34.7436    2.0118   19.0701 C   0  0  0  0  0  0
   34.9659    2.0858   17.7868 N   0  0  0  0  0  0
   35.7745    3.1419   17.6065 N   0  0  0  0  0  0
   39.8774    6.0248   26.2721 O   0  0  0  0  0  0
   38.2791    6.4129   27.8760 O   0  0  0  0  0  0
   35.9052    5.4188   27.3589 H   0  0  0  0  0  0
   38.0695    6.4980   22.9109 H   0  0  0  0  0  0
   32.8527    2.2921   26.4230 H   0  0  0  0  0  0
   32.9178    2.0231   24.6892 H   0  0  0  0  0  0
   38.4418    7.7298   24.9543 H   0  0  0  0  0  0
   37.0781    7.6983   26.0421 H   0  0  0  0  0  0
   39.8018    6.8242   12.8357 H   0  0  0  0  0  0
   41.5073    7.8321   14.2386 H   0  0  0  0  0  0
   41.3693    7.7256   16.7147 H   0  0  0  0  0  0
   37.7681    5.8193   13.8339 H   0  0  0  0  0  0
   36.4539    5.2477   16.2109 H   0  0  0  0  0  0
   37.5577    6.0995   20.7311 H   0  0  0  0  0  0
   35.0914    2.7686   21.8720 H   0  0  0  0  0  0
   34.1368    1.2218   19.4880 H   0  0  0  0  0  0
   36.0818    3.3876   16.6787 H   0  0  0  0  0  0
   40.2114    6.5326   25.5086 H   0  0  0  0  0  0
  1  5  1  0  0  0
  1  2  2  0  0  0
  1 33  1  0  0  0
  2  3  1  0  0  0
  3 10  1  0  0  0
  3  4  2  0  0  0
  4  6  1  0  0  0
  5  9  1  0  0  0
  5  6  2  0  0  0
  6  7  1  0  0  0
  7 13  1  0  0  0
  7  8  2  0  0  0
  8  9  1  0  0  0
  8 34  1  0  0  0
  9 11  1  0  0  0
 10 35  1  0  0  0
 10 36  1  0  0  0
 11 12  1  0  0  0
 11 37  1  0  0  0
 11 38  1  0  0  0
 12 31  1  0  0  0
 12 32  2  0  0  0
 13 24  2  0  0  0
 13 25  1  0  0  0
 14 15  2  0  0  0
 14 17  1  0  0  0
 14 39  1  0  0  0
 15 16  1  0  0  0
 15 40  1  0  0  0
 16 19  2  0  0  0
 16 41  1  0  0  0
 17 18  2  0  0  0
 17 42  1  0  0  0
 18 22  1  0  0  0
 18 19  1  0  0  0
 19 20  1  0  0  0
 20 21  1  0  0  0
 21 22  2  0  0  0
 21 23  1  0  0  0
 22 43  1  0  0  0
 23 26  2  0  0  0
 23 24  1  0  0  0
 24 44  1  0  0  0
 25 27  2  0  0  0
 25 45  1  0  0  0
 26 27  1  0  0  0
 26 30  1  0  0  0
 27 28  1  0  0  0
 28 29  2  0  0  0
 28 46  1  0  0  0
 29 30  1  0  0  0
 30 47  1  0  0  0
 31 48  1  0  0  0
M  END
> <s_m_entry_id>
7577

> <s_m_entry_name>
dock_pv.138

> <s_m_Source_Path>
/home/csk/Desktop/cluster/DUD-E-result/mapk2

> <s_m_Source_File>
dock_pv.maegz

> <i_m_Source_File_Index>
138

> <chembl_id>
CHEMBL596588

> <chembl_pref_name>
None

> <i_lp_mmshare_version>
53161

> <i_f3d_flags>
0

> <r_lp_tautomer_probability>
0.980392156862745

> <s_lp_Force_Field>
OPLS_2005

> <r_lp_Energy>
19.342571

> <b_lp_Chiralities_Consistent>
1

> <s_lp_Variant>
CHEMBL2208_lig336-1

> <s_i_glide_gridfile>
glide-grid_3m2w

> <i_i_glide_lignum>
497

> <i_i_glide_rotatable_bonds>
5

> <r_i_docking_score>
-7.17619500820547

> <r_i_glide_ligand_efficiency>
-0.224256094006421

> <r_i_glide_ligand_efficiency_sa>
-0.711968718249645

> <r_i_glide_ligand_efficiency_ln>
-1.60694567802508

> <r_i_glide_gscore>
-7.17619500820547

> <r_i_glide_lipo>
-2.89765671930205

> <r_i_glide_hbond>
-0.13364623890944

> <r_i_glide_metal>
0

> <r_i_glide_rewards>
-0.791307638027299

> <r_i_glide_evdw>
-44.2616539001465

> <r_i_glide_ecoul>
-10.2388515472412

> <r_i_glide_erotb>
0.411645699079859

> <r_i_glide_esite>
-0.0163196839530263

> <r_i_glide_emodel>
-76.3659819082741

> <r_i_glide_energy>
-54.5005054473877

> <r_i_glide_einternal>
6.92790412902832

> <i_i_glide_confnum>
26

> <i_i_glide_posenum>
259

> <r_i_glide_eff_state_penalty>
0

> <s_user_duplicate_titles>
CHEMBL2208_lig336

> <s_m_subgroup_title>
dock_pv

> <s_m_subgroupid>
dock_pv

> <b_m_subgroup_collapsed>
1

$$$$
CHEMBL2208_lig163
                    3D
 Schrodinger Suite 2021-1.
 45 48  0  0  1  0            999 V2000
   34.9823    2.6186   14.5162 C   0  0  0  0  0  0
   34.5805    1.6664   15.4882 C   0  0  0  0  0  0
   33.6963    0.6454   15.1156 C   0  0  0  0  0  0
   33.1723    0.5770   13.8280 C   0  0  0  0  0  0
   33.5349    1.5273   12.8835 C   0  0  0  0  0  0
   34.4420    2.5260   13.2185 C   0  0  0  0  0  0
   38.2275    6.0962   19.5412 C   0  0  1  0  0  0
   38.6251    6.0427   14.0946 C   0  0  0  0  0  0
   37.6415    5.3583   14.8321 C   0  0  0  0  0  0
   37.5963    5.5175   16.2254 C   0  0  0  0  0  0
   39.5894    6.8541   14.6873 C   0  0  0  0  0  0
   39.5546    6.9575   16.0775 C   0  0  0  0  0  0
   38.5774    6.2818   16.8649 C   0  0  0  0  0  0
   40.3536    7.6571   16.9555 N   0  0  0  0  0  0
   39.9493    7.4415   18.2532 C   0  0  0  0  0  0
   38.8741    6.5594   18.2373 C   0  0  0  0  0  0
   39.2680    6.3092   20.6733 C   0  0  0  0  0  0
   39.8779    7.6540   20.5461 N   0  0  0  0  0  0
   40.5521    8.0251   19.4287 C   0  0  0  0  0  0
   41.4854    8.8243   19.4734 O   0  0  0  0  0  0
   36.9240    6.8393   19.8218 C   0  0  0  0  0  0
   36.6785    4.4417   14.1054 C   0  0  0  0  0  0
   35.9175    3.6248   14.8734 N   0  0  0  0  0  0
   36.6789    4.4285   12.8747 O   0  0  0  0  0  0
   35.0741    1.6639   16.9164 C   0  0  0  0  0  0
   35.0811    2.8256   17.5686 N   0  0  0  0  0  0
   35.4153    0.6227   17.4683 O   0  0  0  0  0  0
   33.3985   -0.1041   15.8340 H   0  0  0  0  0  0
   32.4834   -0.2117   13.5601 H   0  0  0  0  0  0
   33.1344    1.4829   11.8795 H   0  0  0  0  0  0
   34.6909    3.2274   12.4415 H   0  0  0  0  0  0
   38.0063    5.0267   19.4795 H   0  0  0  0  0  0
   38.6527    5.9369   13.0183 H   0  0  0  0  0  0
   36.8511    5.0275   16.8323 H   0  0  0  0  0  0
   40.3333    7.3691   14.0948 H   0  0  0  0  0  0
   41.1295    8.2603   16.7270 H   0  0  0  0  0  0
   40.0584    5.5564   20.6144 H   0  0  0  0  0  0
   38.8215    6.1938   21.6600 H   0  0  0  0  0  0
   40.1162    8.1353   21.4012 H   0  0  0  0  0  0
   36.2786    6.7496   18.9503 H   0  0  0  0  0  0
   36.3970    6.4369   20.6842 H   0  0  0  0  0  0
   37.1058    7.8997   19.9954 H   0  0  0  0  0  0
   36.1075    3.6577   15.8637 H   0  0  0  0  0  0
   35.3900    2.8337   18.5299 H   0  0  0  0  0  0
   34.6039    3.6379   17.1873 H   0  0  0  0  0  0
  1 23  1  0  0  0
  1  6  1  0  0  0
  1  2  2  0  0  0
  2  3  1  0  0  0
  2 25  1  0  0  0
  3  4  2  0  0  0
  3 28  1  0  0  0
  4  5  1  0  0  0
  4 29  1  0  0  0
  5  6  2  0  0  0
  5 30  1  0  0  0
  6 31  1  0  0  0
  7 16  1  0  0  0
  7 17  1  0  0  0
  7 21  1  0  0  0
  7 32  1  0  0  0
  8  9  2  0  0  0
  8 11  1  0  0  0
  8 33  1  0  0  0
  9 10  1  0  0  0
  9 22  1  0  0  0
 10 13  2  0  0  0
 10 34  1  0  0  0
 11 12  2  0  0  0
 11 35  1  0  0  0
 12 14  1  0  0  0
 12 13  1  0  0  0
 13 16  1  0  0  0
 14 15  1  0  0  0
 14 36  1  0  0  0
 15 16  2  0  0  0
 15 19  1  0  0  0
 17 18  1  0  0  0
 17 37  1  0  0  0
 17 38  1  0  0  0
 18 19  1  0  0  0
 18 39  1  0  0  0
 19 20  2  0  0  0
 21 40  1  0  0  0
 21 41  1  0  0  0
 21 42  1  0  0  0
 22 23  1  0  0  0
 22 24  2  0  0  0
 23 43  1  0  0  0
 25 26  1  0  0  0
 25 27  2  0  0  0
 26 44  1  0  0  0
 26 45  1  0  0  0
M  END
> <s_m_entry_id>
7578

> <s_m_entry_name>
dock_pv.139

> <s_m_Source_Path>
/home/csk/Desktop/cluster/DUD-E-result/mapk2

> <s_m_Source_File>
dock_pv.maegz

> <i_m_Source_File_Index>
139

> <chembl_id>
CHEMBL391983

> <chembl_pref_name>
None

> <i_lp_mmshare_version>
53161

> <i_f3d_flags>
0

> <r_lp_tautomer_probability>
1

> <s_lp_Force_Field>
OPLS_2005

> <r_lp_Energy>
37.559665

> <b_lp_Chiralities_Consistent>
1

> <s_lp_Variant>
CHEMBL2208_lig163-2

> <s_i_glide_gridfile>
glide-grid_3m2w

> <i_i_glide_lignum>
247

> <i_i_glide_rotatable_bonds>
4

> <r_i_docking_score>
-7.17253903438539

> <r_i_glide_ligand_efficiency>
-0.265649593866125

> <r_i_glide_ligand_efficiency_sa>
-0.796948780722839

> <r_i_glide_ligand_efficiency_ln>
-1.66964883865731

> <r_i_glide_gscore>
-7.17253903438539

> <r_i_glide_lipo>
-2.4876587539155

> <r_i_glide_hbond>
-0.48

> <r_i_glide_metal>
0

> <r_i_glide_rewards>
-1.29080773014476

> <r_i_glide_evdw>
-40.6249809265137

> <r_i_glide_ecoul>
-8.13096809387207

> <r_i_glide_erotb>
0.438651858152265

> <r_i_glide_esite>
-0.101830148070898

> <r_i_glide_emodel>
-69.1804971606883

> <r_i_glide_energy>
-48.7559490203857

> <r_i_glide_einternal>
2.54932641983032

> <i_i_glide_confnum>
1

> <i_i_glide_posenum>
38

> <r_i_glide_eff_state_penalty>
0

> <s_user_duplicate_titles>
CHEMBL2208_lig163

> <s_m_subgroup_title>
dock_pv

> <s_m_subgroupid>
dock_pv

> <b_m_subgroup_collapsed>
1

$$$$
CHEMBL2208_lig1529
                    3D
 Schrodinger Suite 2021-1.
 36 38  0  0  1  0            999 V2000
   37.3154    5.6980   16.3169 F   0  0  0  0  0  0
   37.8347    5.5557   13.6561 F   0  0  0  0  0  0
   35.4135    4.8850   20.2734 O   0  0  0  0  0  0
   39.7385    8.0423   20.2485 N   0  0  0  0  0  0
   38.9825    6.8633   22.2701 N   0  0  0  0  0  0
   39.7638    7.9726   18.9018 N   0  0  0  0  0  0
   38.2777    5.7449   22.5344 N   0  0  0  0  0  0
   37.2910    4.0247   21.2388 N   0  0  0  0  0  0
   38.4653    5.9909   20.2926 C   0  0  0  0  0  0
   39.1095    7.0712   20.9101 C   0  0  0  0  0  0
   39.1702    6.9471   18.2147 C   0  0  0  0  0  0
   37.9577    5.2181   21.3776 C   0  0  0  0  0  0
   39.3505    6.9306   16.7181 C   0  0  0  0  0  0
   38.4945    5.9254   18.8954 C   0  0  0  0  0  0
   38.4487    6.2721   15.8510 C   0  0  0  0  0  0
   38.6904    6.2104   14.4742 C   0  0  0  0  0  0
   40.4578    7.5658   16.1335 C   0  0  0  0  0  0
   36.0975    3.9196   20.6263 C   0  0  0  0  0  0
   39.8130    6.8251   13.9309 C   0  0  0  0  0  0
   40.6781    7.5257   14.7583 C   0  0  0  0  0  0
   35.5932    2.4908   20.3804 C   0  0  0  0  0  0
   34.7019    2.3081   19.1269 C   0  0  0  0  0  0
   35.4021    2.6049   17.7881 C   0  0  0  0  0  0
   39.4103    7.3816   23.0329 H   0  0  0  0  0  0
   37.7940    3.1738   21.4706 H   0  0  0  0  0  0
   38.0373    5.0905   18.3917 H   0  0  0  0  0  0
   41.1736    8.0950   16.7448 H   0  0  0  0  0  0
   39.9924    6.7850   12.8662 H   0  0  0  0  0  0
   41.5378    8.0246   14.3337 H   0  0  0  0  0  0
   35.0217    2.2005   21.2645 H   0  0  0  0  0  0
   36.4384    1.8000   20.3253 H   0  0  0  0  0  0
   33.8055    2.9255   19.2141 H   0  0  0  0  0  0
   34.3432    1.2774   19.1130 H   0  0  0  0  0  0
   34.7274    2.4262   16.9498 H   0  0  0  0  0  0
   36.2772    1.9694   17.6457 H   0  0  0  0  0  0
   35.7262    3.6444   17.7266 H   0  0  0  0  0  0
  1 15  1  0  0  0
  2 16  1  0  0  0
  3 18  2  0  0  0
  4  6  1  0  0  0
  4 10  2  0  0  0
  5  7  1  0  0  0
  5 10  1  0  0  0
  5 24  1  0  0  0
  6 11  2  0  0  0
  7 12  2  0  0  0
  8 12  1  0  0  0
  8 18  1  0  0  0
  8 25  1  0  0  0
  9 10  1  0  0  0
  9 12  1  0  0  0
  9 14  2  0  0  0
 11 13  1  0  0  0
 11 14  1  0  0  0
 13 15  1  0  0  0
 13 17  2  0  0  0
 14 26  1  0  0  0
 15 16  2  0  0  0
 16 19  1  0  0  0
 17 20  1  0  0  0
 17 27  1  0  0  0
 18 21  1  0  0  0
 19 20  2  0  0  0
 19 28  1  0  0  0
 20 29  1  0  0  0
 21 22  1  0  0  0
 21 30  1  0  0  0
 21 31  1  0  0  0
 22 23  1  0  0  0
 22 32  1  0  0  0
 22 33  1  0  0  0
 23 34  1  0  0  0
 23 35  1  0  0  0
 23 36  1  0  0  0
M  END
> <s_m_entry_id>
7579

> <s_m_entry_name>
dock_pv.140

> <s_m_Source_Path>
/home/csk/Desktop/cluster/DUD-E-result/mapk2

> <s_m_Source_File>
dock_pv.maegz

> <i_m_Source_File_Index>
140

> <chembl_id>
CHEMBL1979970

> <chembl_pref_name>
None

> <i_lp_mmshare_version>
53161

> <i_f3d_flags>
0

> <r_lp_tautomer_probability>
1

> <s_lp_Force_Field>
OPLS_2005

> <r_lp_Energy>
28.511558

> <b_lp_Chiralities_Consistent>
1

> <s_lp_Variant>
CHEMBL2208_lig1529-1

> <s_i_glide_gridfile>
glide-grid_3m2w

> <i_i_glide_lignum>
2134

> <i_i_glide_rotatable_bonds>
5

> <r_i_docking_score>
-7.17074795175839

> <r_i_glide_ligand_efficiency>
-0.311771650076452

> <r_i_glide_ligand_efficiency_sa>
-0.886637099979577

> <r_i_glide_ligand_efficiency_ln>
-1.73395187548275

> <r_i_glide_gscore>
-7.17074795175839

> <r_i_glide_lipo>
-2.11890484368298

> <r_i_glide_hbond>
-0.456

> <r_i_glide_metal>
0

> <r_i_glide_rewards>
-2.07951585800272

> <r_i_glide_evdw>
-35.392692565918

> <r_i_glide_ecoul>
-8.18625736236572

> <r_i_glide_erotb>
0.740156331747379

> <r_i_glide_esite>
-0.258910349169323

> <r_i_glide_emodel>
-61.2032906067871

> <r_i_glide_energy>
-43.5789499282837

> <r_i_glide_einternal>
5.25399684906006

> <i_i_glide_confnum>
23

> <i_i_glide_posenum>
363

> <r_i_glide_eff_state_penalty>
0

> <s_user_duplicate_titles>
CHEMBL2208_lig1529

> <s_m_subgroup_title>
dock_pv

> <s_m_subgroupid>
dock_pv

> <b_m_subgroup_collapsed>
1

$$$$
CHEMBL2208_lig654
                    3D
 Schrodinger Suite 2021-1.
 45 48  0  0  1  0            999 V2000
   39.2511    7.1692   17.4532 N   0  0  0  0  0  0
   39.6860    7.1850   16.1744 C   0  0  0  0  0  0
   39.0928    6.4378   15.1507 C   0  0  0  0  0  0
   38.1865    6.4036   17.7919 C   0  0  0  0  0  0
   37.5090    5.6228   16.8235 C   0  0  0  0  0  0
   37.9964    5.6732   15.5032 N   0  0  0  0  0  0
   37.1809    4.8116   14.8010 C   0  0  0  0  0  0
   36.3544    4.1872   15.7282 C   0  0  0  0  0  0
   36.4880    4.7306   16.9213 N   0  0  0  0  0  0
   39.6560    6.4212   13.7509 C   0  0  0  0  0  0
   40.6781    7.2241   13.4721 N   0  0  0  0  0  0
   39.1994    5.6934   12.8776 O   0  0  0  0  0  0
   35.4780    2.9955   15.4893 C   0  0  0  0  0  0
   37.8737    6.4418   19.1600 N   0  0  0  0  0  0
   35.1016    2.1611   16.5515 C   0  0  0  0  0  0
   34.3426    1.0180   16.3131 C   0  0  0  0  0  0
   33.9522    0.7076   15.0128 C   0  0  0  0  0  0
   34.3021    1.5374   13.9523 C   0  0  0  0  0  0
   35.0646    2.6784   14.1892 C   0  0  0  0  0  0
   36.8110    5.6642   19.7945 C   0  0  1  0  0  0
   37.3210    4.2349   20.0980 C   0  0  0  0  0  0
   36.2804    3.4783   20.9413 C   0  0  0  0  0  0
   35.8830    4.2608   22.2077 C   0  0  0  0  0  0
   35.4695    5.6245   21.8716 N   0  0  2  0  0  0
   36.4991    6.3564   21.1390 C   0  0  0  0  0  0
   33.2354   -0.4144   14.7769 F   0  0  0  0  0  0
   40.5527    7.8081   16.0092 H   0  0  0  0  0  0
   37.3151    4.5929   13.7544 H   0  0  0  0  0  0
   41.0728    7.1798   12.5342 H   0  0  0  0  0  0
   41.0549    7.8657   14.1488 H   0  0  0  0  0  0
   38.5746    6.8427   19.7660 H   0  0  0  0  0  0
   35.4123    2.3860   17.5617 H   0  0  0  0  0  0
   34.0661    0.3708   17.1329 H   0  0  0  0  0  0
   33.9906    1.2909   12.9472 H   0  0  0  0  0  0
   35.3441    3.3052   13.3545 H   0  0  0  0  0  0
   35.9137    5.6251   19.1721 H   0  0  0  0  0  0
   37.4806    3.6819   19.1742 H   0  0  0  0  0  0
   38.2793    4.2573   20.6214 H   0  0  0  0  0  0
   35.3894    3.2486   20.3543 H   0  0  0  0  0  0
   36.6776    2.5038   21.2297 H   0  0  0  0  0  0
   35.0598    3.7576   22.7160 H   0  0  0  0  0  0
   36.7197    4.2999   22.9073 H   0  0  0  0  0  0
   35.2023    6.1374   22.7147 H   0  0  0  0  0  0
   37.3954    6.4421   21.7573 H   0  0  0  0  0  0
   36.1403    7.3726   20.9653 H   0  0  0  0  0  0
  1  2  1  0  0  0
  1  4  2  0  0  0
  2  3  2  0  0  0
  2 27  1  0  0  0
  3  6  1  0  0  0
  3 10  1  0  0  0
  4  5  1  0  0  0
  4 14  1  0  0  0
  5  6  1  0  0  0
  5  9  2  0  0  0
  6  7  1  0  0  0
  7  8  2  0  0  0
  7 28  1  0  0  0
  8  9  1  0  0  0
  8 13  1  0  0  0
 10 11  1  0  0  0
 10 12  2  0  0  0
 11 29  1  0  0  0
 11 30  1  0  0  0
 13 15  2  0  0  0
 13 19  1  0  0  0
 14 20  1  0  0  0
 14 31  1  0  0  0
 15 16  1  0  0  0
 15 32  1  0  0  0
 16 17  2  0  0  0
 16 33  1  0  0  0
 17 18  1  0  0  0
 17 26  1  0  0  0
 18 19  2  0  0  0
 18 34  1  0  0  0
 19 35  1  0  0  0
 20 21  1  0  0  0
 20 25  1  0  0  0
 20 36  1  0  0  0
 21 22  1  0  0  0
 21 37  1  0  0  0
 21 38  1  0  0  0
 22 23  1  0  0  0
 22 39  1  0  0  0
 22 40  1  0  0  0
 23 24  1  0  0  0
 23 41  1  0  0  0
 23 42  1  0  0  0
 24 25  1  0  0  0
 24 43  1  0  0  0
 25 44  1  0  0  0
 25 45  1  0  0  0
M  END
> <s_m_entry_id>
7581

> <s_m_entry_name>
dock_pv.142

> <s_m_Source_Path>
/home/csk/Desktop/cluster/DUD-E-result/mapk2

> <s_m_Source_File>
dock_pv.maegz

> <i_m_Source_File_Index>
142

> <chembl_id>
CHEMBL2381605

> <chembl_pref_name>
None

> <i_lp_mmshare_version>
53161

> <i_f3d_flags>
0

> <r_lp_tautomer_probability>
1

> <s_lp_Force_Field>
OPLS_2005

> <r_lp_Energy>
21.888793

> <b_lp_Chiralities_Consistent>
1

> <s_lp_Variant>
CHEMBL2208_lig654-1

> <s_i_glide_gridfile>
glide-grid_3m2w

> <i_i_glide_lignum>
862

> <i_i_glide_rotatable_bonds>
4

> <r_i_docking_score>
-7.16942726732548

> <r_i_glide_ligand_efficiency>
-0.275747202589442

> <r_i_glide_ligand_efficiency_sa>
-0.816900002658371

> <r_i_glide_ligand_efficiency_ln>
-1.68371646892175

> <r_i_glide_gscore>
-7.16942726732548

> <r_i_glide_lipo>
-1.36865462722374

> <r_i_glide_hbond>
-0.880486352947973

> <r_i_glide_metal>
0

> <r_i_glide_rewards>
-2.04004257625672

> <r_i_glide_evdw>
-34.4924736022949

> <r_i_glide_ecoul>
-10.6650733947754

> <r_i_glide_erotb>
0.456452654261345

> <r_i_glide_esite>
-0.0123116758273387

> <r_i_glide_emodel>
-60.8429753227041

> <r_i_glide_energy>
-45.1575469970703

> <r_i_glide_einternal>
8.6907205581665

> <i_i_glide_confnum>
11

> <i_i_glide_posenum>
200

> <r_i_glide_eff_state_penalty>
0

> <s_user_duplicate_titles>
CHEMBL2208_lig654

> <s_m_subgroup_title>
dock_pv

> <s_m_subgroupid>
dock_pv

> <b_m_subgroup_collapsed>
1

$$$$
CHEMBL2208_lig285
                    3D
 Schrodinger Suite 2021-1.
 31 34  0  0  1  0            999 V2000
   39.4506    6.1138   13.5508 C   0  0  0  0  0  0
   40.2667    6.8176   14.4386 C   0  0  0  0  0  0
   38.7475    6.2957   16.3212 C   0  0  0  0  0  0
   39.9227    6.8931   15.8007 C   0  0  0  0  0  0
   40.8093    7.6832   17.0782 S   0  0  0  0  0  0
   39.1306    7.2374   20.6820 N   0  0  0  0  0  0
   37.9013    6.4505   20.8016 C   0  0  1  0  0  0
   37.6685    5.3725   19.7296 C   0  0  0  0  0  0
   39.8996    7.6648   19.6616 C   0  0  0  0  0  0
   39.6222    7.1965   18.3009 C   0  0  0  0  0  0
   38.5799    6.4573   17.7348 C   0  0  0  0  0  0
   37.5060    5.9213   18.3967 N   0  0  0  0  0  0
   37.8404    5.8270   22.2060 C   0  0  0  0  0  0
   40.8441    8.4234   19.8791 O   0  0  0  0  0  0
   38.2805    5.5331   14.0508 C   0  0  0  0  0  0
   37.9078    5.6080   15.4024 C   0  0  0  0  0  0
   36.6789    4.8932   15.5263 C   0  0  0  0  0  0
   36.4075    4.4295   14.2492 C   0  0  0  0  0  0
   37.3527    4.8247   13.3437 O   0  0  0  0  0  0
   39.7163    6.0416   12.5071 H   0  0  0  0  0  0
   41.1594    7.2992   14.0694 H   0  0  0  0  0  0
   39.4766    7.5884   21.5644 H   0  0  0  0  0  0
   37.0778    7.1658   20.7401 H   0  0  0  0  0  0
   36.7636    4.8101   19.9651 H   0  0  0  0  0  0
   38.4886    4.6509   19.7319 H   0  0  0  0  0  0
   36.9672    5.3065   17.8030 H   0  0  0  0  0  0
   36.9339    5.2338   22.3325 H   0  0  0  0  0  0
   38.6766    5.1477   22.3792 H   0  0  0  0  0  0
   37.8328    6.5863   22.9902 H   0  0  0  0  0  0
   36.0591    4.7165   16.3928 H   0  0  0  0  0  0
   35.6001    3.8360   13.8458 H   0  0  0  0  0  0
  1  2  1  0  0  0
  1 15  2  0  0  0
  1 20  1  0  0  0
  2  4  2  0  0  0
  2 21  1  0  0  0
  3 11  1  0  0  0
  3 16  2  0  0  0
  3  4  1  0  0  0
  4  5  1  0  0  0
  5 10  1  0  0  0
  6  7  1  0  0  0
  6  9  1  0  0  0
  6 22  1  0  0  0
  7  8  1  0  0  0
  7 13  1  0  0  0
  7 23  1  0  0  0
  8 12  1  0  0  0
  8 24  1  0  0  0
  8 25  1  0  0  0
  9 10  1  0  0  0
  9 14  2  0  0  0
 10 11  2  0  0  0
 11 12  1  0  0  0
 12 26  1  0  0  0
 13 27  1  0  0  0
 13 28  1  0  0  0
 13 29  1  0  0  0
 15 16  1  0  0  0
 15 19  1  0  0  0
 16 17  1  0  0  0
 17 18  2  0  0  0
 17 30  1  0  0  0
 18 19  1  0  0  0
 18 31  1  0  0  0
M  END
> <s_m_entry_id>
7582

> <s_m_entry_name>
dock_pv.143

> <s_m_Source_Path>
/home/csk/Desktop/cluster/DUD-E-result/mapk2

> <s_m_Source_File>
dock_pv.maegz

> <i_m_Source_File_Index>
143

> <chembl_id>
CHEMBL557318

> <chembl_pref_name>
None

> <i_lp_mmshare_version>
53161

> <i_f3d_flags>
0

> <r_lp_tautomer_probability>
1

> <s_lp_Force_Field>
OPLS_2005

> <r_lp_Energy>
48.433996

> <b_lp_Chiralities_Consistent>
1

> <s_lp_Variant>
CHEMBL2208_lig285-1

> <s_i_glide_gridfile>
glide-grid_3m2w

> <i_i_glide_lignum>
424

> <i_i_glide_rotatable_bonds>
0

> <r_i_docking_score>
-7.16903098837191

> <r_i_glide_ligand_efficiency>
-0.377317420440627

> <r_i_glide_ligand_efficiency_sa>
-1.00683442580709

> <r_i_glide_ligand_efficiency_ln>
-1.81750333221961

> <r_i_glide_gscore>
-7.16903098837191

> <r_i_glide_lipo>
-2.52677243407383

> <r_i_glide_hbond>
-0.120606510454843

> <r_i_glide_metal>
0

> <r_i_glide_rewards>
-1.71273279640178

> <r_i_glide_evdw>
-37.2635078430176

> <r_i_glide_ecoul>
-5.87489318847656

> <r_i_glide_erotb>
0

> <r_i_glide_esite>
-0.0645098770190957

> <r_i_glide_emodel>
-60.7434527604779

> <r_i_glide_energy>
-43.1384010314941

> <r_i_glide_einternal>
0

> <i_i_glide_confnum>
1

> <i_i_glide_posenum>
26

> <r_i_glide_eff_state_penalty>
0

> <s_user_duplicate_titles>
CHEMBL2208_lig285

> <s_m_subgroup_title>
dock_pv

> <s_m_subgroupid>
dock_pv

> <b_m_subgroup_collapsed>
1

$$$$
CHEMBL2208_lig224
                    3D
 Schrodinger Suite 2021-1.
 41 44  0  0  1  0            999 V2000
   39.3692    6.4245   13.8476 C   0  0  0  0  0  0
   38.2829    5.7899   14.4686 C   0  0  0  0  0  0
   38.1083    5.9184   15.8547 C   0  0  0  0  0  0
   40.2778    7.2186   14.5406 C   0  0  0  0  0  0
   37.3149    4.9850   13.6334 C   0  0  0  0  0  0
   37.4237    4.9905   12.4058 O   0  0  0  0  0  0
   36.3867    4.2916   14.3321 N   0  0  0  0  0  0
   35.3472    3.4549   13.9007 C   0  0  0  0  0  0
   40.0775    7.3352   15.9142 C   0  0  0  0  0  0
   39.0131    6.6782   16.5925 C   0  0  0  0  0  0
   40.7788    8.0247   16.8710 N   0  0  0  0  0  0
   40.2332    7.8120   18.1103 C   0  0  0  0  0  0
   39.1493    6.9694   17.9836 C   0  0  0  0  0  0
   38.3881    6.5110   19.2095 C   0  0  0  0  0  0
   38.5858    7.5660   20.3450 C   0  0  2  0  0  0
   39.9924    8.0248   20.3945 N   0  0  0  0  0  0
   40.7927    8.2848   19.3336 C   0  0  0  0  0  0
   41.8795    8.8261   19.4721 O   0  0  0  0  0  0
   34.9922    3.2250   12.5630 C   0  0  0  0  0  0
   33.8781    2.4250   12.2720 C   0  0  0  0  0  0
   33.1806    1.8391   13.3275 C   0  0  0  0  0  0
   33.5250    2.0228   14.6267 N   0  0  0  0  0  0
   34.5872    2.8247   14.8930 C   0  0  0  0  0  0
   38.0895    7.0419   21.7078 C   0  0  0  0  0  0
   36.6780    6.9745   21.7214 O   0  0  0  0  0  0
   39.5185    6.3232   12.7803 H   0  0  0  0  0  0
   37.2956    5.4444   16.3829 H   0  0  0  0  0  0
   41.0944    7.7091   14.0301 H   0  0  0  0  0  0
   36.4509    4.3722   15.3333 H   0  0  0  0  0  0
   41.6001    8.5978   16.7341 H   0  0  0  0  0  0
   38.7530    5.5321   19.5264 H   0  0  0  0  0  0
   37.3253    6.3936   18.9958 H   0  0  0  0  0  0
   38.0008    8.4561   20.0956 H   0  0  0  0  0  0
   40.3490    8.2927   21.2996 H   0  0  0  0  0  0
   35.5402    3.6584   11.7421 H   0  0  0  0  0  0
   33.5828    2.2489   11.2479 H   0  0  0  0  0  0
   32.3239    1.2067   13.1438 H   0  0  0  0  0  0
   34.8061    2.9724   15.9411 H   0  0  0  0  0  0
   38.4000    7.7128   22.5105 H   0  0  0  0  0  0
   38.5184    6.0653   21.9398 H   0  0  0  0  0  0
   36.3825    6.7228   22.6036 H   0  0  0  0  0  0
  1  2  2  0  0  0
  1  4  1  0  0  0
  1 26  1  0  0  0
  2  5  1  0  0  0
  2  3  1  0  0  0
  3 10  2  0  0  0
  3 27  1  0  0  0
  4  9  2  0  0  0
  4 28  1  0  0  0
  5  6  2  0  0  0
  5  7  1  0  0  0
  7  8  1  0  0  0
  7 29  1  0  0  0
  8 19  2  0  0  0
  8 23  1  0  0  0
  9 10  1  0  0  0
  9 11  1  0  0  0
 10 13  1  0  0  0
 11 12  1  0  0  0
 11 30  1  0  0  0
 12 13  2  0  0  0
 12 17  1  0  0  0
 13 14  1  0  0  0
 14 15  1  0  0  0
 14 31  1  0  0  0
 14 32  1  0  0  0
 15 16  1  0  0  0
 15 24  1  0  0  0
 15 33  1  0  0  0
 16 17  1  0  0  0
 16 34  1  0  0  0
 17 18  2  0  0  0
 19 20  1  0  0  0
 19 35  1  0  0  0
 20 21  2  0  0  0
 20 36  1  0  0  0
 21 22  1  0  0  0
 21 37  1  0  0  0
 22 23  2  0  0  0
 23 38  1  0  0  0
 24 25  1  0  0  0
 24 39  1  0  0  0
 24 40  1  0  0  0
 25 41  1  0  0  0
M  END
> <s_m_entry_id>
7583

> <s_m_entry_name>
dock_pv.144

> <s_m_Source_Path>
/home/csk/Desktop/cluster/DUD-E-result/mapk2

> <s_m_Source_File>
dock_pv.maegz

> <i_m_Source_File_Index>
144

> <chembl_id>
CHEMBL255606

> <chembl_pref_name>
None

> <i_lp_mmshare_version>
53161

> <i_f3d_flags>
0

> <r_lp_tautomer_probability>
1

> <s_lp_Force_Field>
OPLS_2005

> <r_lp_Energy>
28.171599

> <b_lp_Chiralities_Consistent>
1

> <s_lp_Variant>
CHEMBL2208_lig224-1

> <s_i_glide_gridfile>
glide-grid_3m2w

> <i_i_glide_lignum>
353

> <i_i_glide_rotatable_bonds>
5

> <r_i_docking_score>
-7.16654729572533

> <r_i_glide_ligand_efficiency>
-0.286661891829013

> <r_i_glide_ligand_efficiency_sa>
-0.838204455678333

> <r_i_glide_ligand_efficiency_ln>
-1.69868647317896

> <r_i_glide_gscore>
-7.16654729572533

> <r_i_glide_lipo>
-2.64377774113977

> <r_i_glide_hbond>
-0.556131880021384

> <r_i_glide_metal>
0

> <r_i_glide_rewards>
-1.30908838166528

> <r_i_glide_evdw>
-35.5257530212402

> <r_i_glide_ecoul>
-9.58551597595215

> <r_i_glide_erotb>
0.667746959250138

> <r_i_glide_esite>
-0.111181204694194

> <r_i_glide_emodel>
-63.7984509115527

> <r_i_glide_energy>
-45.1112689971924

> <r_i_glide_einternal>
1.45160937309265

> <i_i_glide_confnum>
6

> <i_i_glide_posenum>
104

> <r_i_glide_eff_state_penalty>
0

> <s_user_duplicate_titles>
CHEMBL2208_lig224

> <s_m_subgroup_title>
dock_pv

> <s_m_subgroupid>
dock_pv

> <b_m_subgroup_collapsed>
1

$$$$
CHEMBL2208_lig1343
                    3D
 Schrodinger Suite 2021-1.
 30 32  0  0  1  0            999 V2000
   39.5480    6.9365   17.1841 C   0  0  0  0  0  0
   40.5984    7.4366   16.4080 C   0  0  0  0  0  0
   40.6768    7.2128   15.0331 C   0  0  0  0  0  0
   38.5314    6.1766   16.5982 C   0  0  0  0  0  0
   38.5816    5.9307   15.2217 C   0  0  0  0  0  0
   39.6601    6.4465   14.4642 C   0  0  0  0  0  0
   39.4317    6.0250   13.1722 N   0  0  0  0  0  0
   38.2809    5.3301   13.0720 N   0  0  0  0  0  0
   37.7721    5.2470   14.2708 C   0  0  0  0  0  0
   39.4712    7.2389   18.6363 C   0  0  0  0  0  0
   38.7197    6.7402   19.6780 C   0  0  0  0  0  0
   39.0429    7.5245   20.7781 C   0  0  0  0  0  0
   39.9475    8.4240   20.4646 N   0  0  0  0  0  0
   40.2334    8.2559   19.1119 O   0  0  0  0  0  0
   38.4529    7.4899   22.1694 C   0  0  0  0  0  0
   37.0437    8.1012   22.2216 C   0  0  0  0  0  0
   36.9894    9.5735   21.7691 C   0  0  0  0  0  0
   41.3739    8.0249   16.8776 H   0  0  0  0  0  0
   41.4780    7.6252   14.4429 H   0  0  0  0  0  0
   37.7109    5.7974   17.1889 H   0  0  0  0  0  0
   40.0059    6.2105   12.3581 H   0  0  0  0  0  0
   36.8498    4.7130   14.4476 H   0  0  0  0  0  0
   38.0050    5.9330   19.6437 H   0  0  0  0  0  0
   39.0782    8.0347   22.8751 H   0  0  0  0  0  0
   38.4325    6.4646   22.5426 H   0  0  0  0  0  0
   36.6779    8.0230   23.2457 H   0  0  0  0  0  0
   36.3599    7.5064   21.6118 H   0  0  0  0  0  0
   35.9824    9.9796   21.8686 H   0  0  0  0  0  0
   37.2826    9.6832   20.7243 H   0  0  0  0  0  0
   37.6567   10.1953   22.3658 H   0  0  0  0  0  0
  1  2  2  0  0  0
  1  4  1  0  0  0
  1 10  1  0  0  0
  2  3  1  0  0  0
  2 18  1  0  0  0
  3  6  2  0  0  0
  3 19  1  0  0  0
  4  5  2  0  0  0
  4 20  1  0  0  0
  5  9  1  0  0  0
  5  6  1  0  0  0
  6  7  1  0  0  0
  7  8  1  0  0  0
  7 21  1  0  0  0
  8  9  2  0  0  0
  9 22  1  0  0  0
 10 14  1  0  0  0
 10 11  2  0  0  0
 11 12  1  0  0  0
 11 23  1  0  0  0
 12 13  2  0  0  0
 12 15  1  0  0  0
 13 14  1  0  0  0
 15 16  1  0  0  0
 15 24  1  0  0  0
 15 25  1  0  0  0
 16 17  1  0  0  0
 16 26  1  0  0  0
 16 27  1  0  0  0
 17 28  1  0  0  0
 17 29  1  0  0  0
 17 30  1  0  0  0
M  END
> <s_m_entry_id>
7584

> <s_m_entry_name>
dock_pv.145

> <s_m_Source_Path>
/home/csk/Desktop/cluster/DUD-E-result/mapk2

> <s_m_Source_File>
dock_pv.maegz

> <i_m_Source_File_Index>
145

> <chembl_id>
CHEMBL1682359

> <chembl_pref_name>
None

> <i_lp_mmshare_version>
53161

> <i_f3d_flags>
0

> <r_lp_tautomer_probability>
0.980392156862745

> <s_lp_Force_Field>
OPLS_2005

> <r_lp_Energy>
3.18069

> <b_lp_Chiralities_Consistent>
1

> <s_lp_Variant>
CHEMBL2208_lig1343-1

> <s_i_glide_gridfile>
glide-grid_3m2w

> <i_i_glide_lignum>
1827

> <i_i_glide_rotatable_bonds>
3

> <r_i_docking_score>
-7.16136847001433

> <r_i_glide_ligand_efficiency>
-0.421256968824373

> <r_i_glide_ligand_efficiency_sa>
-1.08317028785165

> <r_i_glide_ligand_efficiency_ln>
-1.86824155799175

> <r_i_glide_gscore>
-7.16136847001433

> <r_i_glide_lipo>
-2.38180829743145

> <r_i_glide_hbond>
-0.526733155927622

> <r_i_glide_metal>
0

> <r_i_glide_rewards>
-2.61212424307794

> <r_i_glide_evdw>
-31.279914855957

> <r_i_glide_ecoul>
-4.33112716674805

> <r_i_glide_erotb>
0.658831352743197

> <r_i_glide_esite>
-0.0858693085104666

> <r_i_glide_emodel>
-51.1738798122818

> <r_i_glide_energy>
-35.6110420227051

> <r_i_glide_einternal>
0.526726186275482

> <i_i_glide_confnum>
5

> <i_i_glide_posenum>
131

> <r_i_glide_eff_state_penalty>
0

> <s_user_duplicate_titles>
CHEMBL2208_lig1343,CHEMBL2208_lig1343

> <s_m_subgroup_title>
dock_pv

> <s_m_subgroupid>
dock_pv

> <b_m_subgroup_collapsed>
1

$$$$
CHEMBL2208_lig808
                    3D
 Schrodinger Suite 2021-1.
 50 54  0  0  1  0            999 V2000
   37.4932    6.2926   20.9572 C   0  0  1  0  0  0
   38.0505    5.0123   21.5835 C   0  0  0  0  0  0
   36.9979    4.6066   22.6158 C   0  0  0  0  0  0
   35.7337    5.2249   22.2261 N   0  0  2  0  0  0
   35.9871    6.0141   21.0292 C   0  0  0  0  0  0
   37.8747    7.5921   21.7393 C   0  0  0  0  0  0
   39.2777    7.9834   21.4721 N   0  0  0  0  0  0
   39.8790    7.9878   20.2538 C   0  0  0  0  0  0
   41.0182    8.4250   20.1153 O   0  0  0  0  0  0
   38.0001    6.5144   19.5418 C   0  0  0  0  0  0
   39.0821    7.3324   19.2532 C   0  0  0  0  0  0
   39.3014    7.2247   17.8759 C   0  0  0  0  0  0
   38.3123    6.4244   17.3153 C   0  0  0  0  0  0
   37.5410    5.9833   18.3673 N   0  0  0  0  0  0
   38.0774    6.0251   15.9051 C   0  0  0  0  0  0
   38.9368    6.4431   14.8828 C   0  0  0  0  0  0
   38.6801    6.0249   13.5784 C   0  0  0  0  0  0
   37.6344    5.2243   13.2559 N   0  0  0  0  0  0
   36.8304    4.7767   14.2586 C   0  0  0  0  0  0
   37.0017    5.1940   15.5833 C   0  0  0  0  0  0
   35.8741    3.8269   13.8730 N   0  0  0  0  0  0
   35.2967    2.8565   14.6244 C   0  0  0  0  0  0
   34.4339    1.8723   13.8657 C   0  0  0  0  0  0
   35.4778    2.6994   15.8315 O   0  0  0  0  0  0
   33.7859    2.2298   12.6714 C   0  0  0  0  0  0
   33.0155    1.3057   11.9684 C   0  0  0  0  0  0
   32.8888    0.0016   12.4418 C   0  0  0  0  0  0
   33.5263   -0.3758   13.6216 C   0  0  0  0  0  0
   34.2827    0.5566   14.3344 C   0  0  0  0  0  0
   33.4193   -1.6491   14.0652 F   0  0  0  0  0  0
   38.1642    4.2182   20.8418 H   0  0  0  0  0  0
   39.0441    5.1524   22.0122 H   0  0  0  0  0  0
   36.8653    3.5225   22.6209 H   0  0  0  0  0  0
   37.2915    4.9016   23.6243 H   0  0  0  0  0  0
   35.3832    5.8232   22.9726 H   0  0  0  0  0  0
   35.4066    6.9350   21.0243 H   0  0  0  0  0  0
   35.6553    5.4140   20.1809 H   0  0  0  0  0  0
   37.7382    7.4531   22.8130 H   0  0  0  0  0  0
   37.2301    8.4255   21.4506 H   0  0  0  0  0  0
   39.8790    8.0955   22.2790 H   0  0  0  0  0  0
   40.1068    7.7049   17.3390 H   0  0  0  0  0  0
   36.7635    5.3436   18.2872 H   0  0  0  0  0  0
   39.7837    7.0796   15.0889 H   0  0  0  0  0  0
   39.3236    6.3371   12.7677 H   0  0  0  0  0  0
   36.3264    4.8609   16.3541 H   0  0  0  0  0  0
   35.7375    3.7572   12.8777 H   0  0  0  0  0  0
   33.8769    3.2250   12.2629 H   0  0  0  0  0  0
   32.5253    1.5964   11.0501 H   0  0  0  0  0  0
   32.3034   -0.7196   11.8918 H   0  0  0  0  0  0
   34.7645    0.2454   15.2502 H   0  0  0  0  0  0
  1 10  1  0  0  0
  1  6  1  0  0  0
  1  5  1  0  0  0
  1  2  1  0  0  0
  2  3  1  0  0  0
  2 31  1  0  0  0
  2 32  1  0  0  0
  3  4  1  0  0  0
  3 33  1  0  0  0
  3 34  1  0  0  0
  4  5  1  0  0  0
  4 35  1  0  0  0
  5 36  1  0  0  0
  5 37  1  0  0  0
  6  7  1  0  0  0
  6 38  1  0  0  0
  6 39  1  0  0  0
  7  8  1  0  0  0
  7 40  1  0  0  0
  8 11  1  0  0  0
  8  9  2  0  0  0
 10 14  1  0  0  0
 10 11  2  0  0  0
 11 12  1  0  0  0
 12 13  2  0  0  0
 12 41  1  0  0  0
 13 15  1  0  0  0
 13 14  1  0  0  0
 14 42  1  0  0  0
 15 16  2  0  0  0
 15 20  1  0  0  0
 16 17  1  0  0  0
 16 43  1  0  0  0
 17 18  2  0  0  0
 17 44  1  0  0  0
 18 19  1  0  0  0
 19 20  2  0  0  0
 19 21  1  0  0  0
 20 45  1  0  0  0
 21 22  1  0  0  0
 21 46  1  0  0  0
 22 23  1  0  0  0
 22 24  2  0  0  0
 23 25  2  0  0  0
 23 29  1  0  0  0
 25 26  1  0  0  0
 25 47  1  0  0  0
 26 27  2  0  0  0
 26 48  1  0  0  0
 27 28  1  0  0  0
 27 49  1  0  0  0
 28 29  2  0  0  0
 28 30  1  0  0  0
 29 50  1  0  0  0
M  END
> <s_m_entry_id>
7585

> <s_m_entry_name>
dock_pv.146

> <s_m_Source_Path>
/home/csk/Desktop/cluster/DUD-E-result/mapk2

> <s_m_Source_File>
dock_pv.maegz

> <i_m_Source_File_Index>
146

> <chembl_id>
CHEMBL1933191

> <chembl_pref_name>
None

> <i_lp_mmshare_version>
53161

> <i_f3d_flags>
0

> <r_lp_tautomer_probability>
1

> <s_lp_Force_Field>
OPLS_2005

> <r_lp_Energy>
49.841775

> <b_lp_Chiralities_Consistent>
1

> <s_lp_Variant>
CHEMBL2208_lig808-1

> <s_i_glide_gridfile>
glide-grid_3m2w

> <i_i_glide_lignum>
1027

> <i_i_glide_rotatable_bonds>
4

> <r_i_docking_score>
-7.15938018655087

> <r_i_glide_ligand_efficiency>
-0.238646006218362

> <r_i_glide_ligand_efficiency_sa>
-0.741528627097067

> <r_i_glide_ligand_efficiency_ln>
-1.62668918607942

> <r_i_glide_gscore>
-7.15938018655087

> <r_i_glide_lipo>
-2.42758351456499

> <r_i_glide_hbond>
-0.542434287442812

> <r_i_glide_metal>
0

> <r_i_glide_rewards>
-0.956016632346612

> <r_i_glide_evdw>
-45.6637687683105

> <r_i_glide_ecoul>
-8.38321876525879

> <r_i_glide_erotb>
0.478254447928135

> <r_i_glide_esite>
-0.170928946920244

> <r_i_glide_emodel>
-74.8408092642849

> <r_i_glide_energy>
-54.0469875335693

> <r_i_glide_einternal>
5.81211566925049

> <i_i_glide_confnum>
103

> <i_i_glide_posenum>
298

> <r_i_glide_eff_state_penalty>
0

> <s_user_duplicate_titles>
CHEMBL2208_lig808

> <s_m_subgroup_title>
dock_pv

> <s_m_subgroupid>
dock_pv

> <b_m_subgroup_collapsed>
1

$$$$
CHEMBL2208_lig961
                    3D
 Schrodinger Suite 2021-1.
 38 40  0  0  1  0            999 V2000
   41.3964    8.0036   17.3531 C   0  0  0  0  0  0
   40.1081    7.4557   17.2377 C   0  0  0  0  0  0
   39.2875    7.4186   18.3200 N   0  0  0  0  0  0
   39.7712    7.8835   19.4973 C   0  0  0  0  0  0
   40.9999    8.4124   19.6753 N   0  0  0  0  0  0
   41.8125    8.4761   18.5967 C   0  0  0  0  0  0
   43.0795    8.9737   18.6481 O   0  0  0  0  0  0
   38.9794    7.8259   20.6441 N   0  0  0  0  0  0
   37.6267    7.2732   20.6410 C   0  0  0  0  0  0
   37.6511    5.7246   20.5963 C   0  0  0  0  0  0
   38.2777    5.1078   21.8603 C   0  0  0  0  0  0
   37.6115    5.6220   23.1524 C   0  0  0  0  0  0
   37.5519    7.1608   23.2071 C   0  0  0  0  0  0
   36.9257    7.7530   21.9215 C   0  0  0  0  0  0
   39.5819    6.8383   15.9764 C   0  0  0  0  0  0
   38.3974    6.0717   15.9606 C   0  0  0  0  0  0
   37.9553    5.4943   14.7677 C   0  0  0  0  0  0
   38.6223    5.6250   13.5965 N   0  0  0  0  0  0
   39.7591    6.3629   13.6085 C   0  0  0  0  0  0
   40.2604    6.9817   14.7539 C   0  0  0  0  0  0
   42.0703    8.0239   16.5130 H   0  0  0  0  0  0
   43.4616    9.0255   17.7714 H   0  0  0  0  0  0
   39.4612    7.8743   21.5314 H   0  0  0  0  0  0
   37.0956    7.6277   19.7563 H   0  0  0  0  0  0
   36.6330    5.3493   20.4837 H   0  0  0  0  0  0
   38.1882    5.3694   19.7162 H   0  0  0  0  0  0
   38.2121    4.0235   21.8180 H   0  0  0  0  0  0
   39.3441    5.3395   21.8727 H   0  0  0  0  0  0
   36.5993    5.2187   23.2210 H   0  0  0  0  0  0
   38.1522    5.2406   24.0214 H   0  0  0  0  0  0
   36.9860    7.4754   24.0822 H   0  0  0  0  0  0
   38.5581    7.5563   23.3472 H   0  0  0  0  0  0
   36.9255    8.8423   21.9755 H   0  0  0  0  0  0
   35.8794    7.4609   21.8710 H   0  0  0  0  0  0
   37.8235    5.9109   16.8621 H   0  0  0  0  0  0
   37.0508    4.9016   14.7484 H   0  0  0  0  0  0
   40.2783    6.4593   12.6722 H   0  0  0  0  0  0
   41.1603    7.5710   14.6660 H   0  0  0  0  0  0
  1  6  1  0  0  0
  1 21  1  0  0  0
  1  2  2  0  0  0
  2  3  1  0  0  0
  2 15  1  0  0  0
  3  4  2  0  0  0
  4  8  1  0  0  0
  4  5  1  0  0  0
  5  6  2  0  0  0
  6  7  1  0  0  0
  7 22  1  0  0  0
  8  9  1  0  0  0
  8 23  1  0  0  0
  9 14  1  0  0  0
  9 10  1  0  0  0
  9 24  1  0  0  0
 10 11  1  0  0  0
 10 25  1  0  0  0
 10 26  1  0  0  0
 11 12  1  0  0  0
 11 27  1  0  0  0
 11 28  1  0  0  0
 12 13  1  0  0  0
 12 29  1  0  0  0
 12 30  1  0  0  0
 13 14  1  0  0  0
 13 31  1  0  0  0
 13 32  1  0  0  0
 14 33  1  0  0  0
 14 34  1  0  0  0
 15 16  2  0  0  0
 15 20  1  0  0  0
 16 17  1  0  0  0
 16 35  1  0  0  0
 17 18  2  0  0  0
 17 36  1  0  0  0
 18 19  1  0  0  0
 19 20  2  0  0  0
 19 37  1  0  0  0
 20 38  1  0  0  0
M  END
> <s_m_entry_id>
7586

> <s_m_entry_name>
dock_pv.147

> <s_m_Source_Path>
/home/csk/Desktop/cluster/DUD-E-result/mapk2

> <s_m_Source_File>
dock_pv.maegz

> <i_m_Source_File_Index>
147

> <chembl_id>
CHEMBL1958401

> <chembl_pref_name>
None

> <i_lp_mmshare_version>
53161

> <i_f3d_flags>
0

> <r_lp_tautomer_probability>
0.0131372385381018

> <s_lp_Force_Field>
OPLS_2005

> <r_lp_Energy>
1.317227

> <b_lp_Chiralities_Consistent>
1

> <s_lp_Variant>
CHEMBL2208_lig961-3

> <s_i_glide_gridfile>
glide-grid_3m2w

> <i_i_glide_lignum>
1243

> <i_i_glide_rotatable_bonds>
4

> <r_i_docking_score>
-7.15891495078122

> <r_i_glide_ligand_efficiency>
-0.357945747539061

> <r_i_glide_ligand_efficiency_sa>
-0.971614241935029

> <r_i_glide_ligand_efficiency_ln>
-1.79164029536287

> <r_i_glide_gscore>
-7.15891495078122

> <r_i_glide_lipo>
-2.32265352844818

> <r_i_glide_hbond>
-0.40872728958117

> <r_i_glide_metal>
0

> <r_i_glide_rewards>
-2.43413431286695

> <r_i_glide_evdw>
-37.0490303039551

> <r_i_glide_ecoul>
-5.55753898620605

> <r_i_glide_erotb>
0.734184574603199

> <r_i_glide_esite>
-0.0415020313594524

> <r_i_glide_emodel>
-61.0809913120034

> <r_i_glide_energy>
-42.6065692901611

> <r_i_glide_einternal>
1.63611268997192

> <i_i_glide_confnum>
13

> <i_i_glide_posenum>
340

> <r_i_glide_eff_state_penalty>
0

> <s_user_duplicate_titles>
CHEMBL2208_lig961,CHEMBL2208_lig961

> <s_m_subgroup_title>
dock_pv

> <s_m_subgroupid>
dock_pv

> <b_m_subgroup_collapsed>
1

$$$$
CHEMBL2208_lig261
                    3D
 Schrodinger Suite 2021-1.
 38 40  0  0  1  0            999 V2000
   39.9082    8.2190   17.4867 C   0  0  0  0  0  0
   39.3062    6.8838   17.9094 C   0  0  0  0  0  0
   39.8444    6.9493   19.1590 C   0  0  0  0  0  0
   40.6777    8.1739   18.8534 C   0  0  0  0  0  0
   41.5562    8.8250   19.4189 O   0  0  0  0  0  0
   39.8349    8.9830   16.5254 O   0  0  0  0  0  0
   39.8698    6.2115   20.3154 N   0  0  0  0  0  0
   38.4653    6.0271   17.2265 N   0  0  0  0  0  0
   38.3319    5.8659   15.8381 C   0  0  0  0  0  0
   39.3311    6.2469   14.9287 C   0  0  0  0  0  0
   39.1290    6.0219   13.5681 C   0  0  0  0  0  0
   38.0115    5.4264   13.0833 N   0  0  0  0  0  0
   37.0636    5.0377   13.9722 C   0  0  0  0  0  0
   37.1814    5.2428   15.3472 C   0  0  0  0  0  0
   38.9582    6.3250   21.4554 C   0  0  2  0  0  0
   37.7727    5.3402   21.4094 C   0  0  0  0  0  0
   37.6770    4.3268   20.4419 C   0  0  0  0  0  0
   36.6779    3.3565   20.5273 C   0  0  0  0  0  0
   35.7609    3.3986   21.5747 C   0  0  0  0  0  0
   35.8134    4.4245   22.5109 C   0  0  0  0  0  0
   36.8206    5.3807   22.4364 C   0  0  0  0  0  0
   38.5439    7.7914   21.7193 C   0  0  0  0  0  0
   34.8080    2.4250   21.7168 O   0  0  0  0  0  0
   40.5028    5.4163   20.3738 H   0  0  0  0  0  0
   37.8672    5.4115   17.7591 H   0  0  0  0  0  0
   40.2566    6.6941   15.2547 H   0  0  0  0  0  0
   39.8783    6.3098   12.8428 H   0  0  0  0  0  0
   36.1954    4.5416   13.5635 H   0  0  0  0  0  0
   36.3942    4.9151   16.0117 H   0  0  0  0  0  0
   39.5368    6.0253   22.3309 H   0  0  0  0  0  0
   38.4102    4.2417   19.6540 H   0  0  0  0  0  0
   36.6412    2.5542   19.8049 H   0  0  0  0  0  0
   35.0999    4.4578   23.3210 H   0  0  0  0  0  0
   36.8700    6.1281   23.2137 H   0  0  0  0  0  0
   38.0242    7.9100   22.6690 H   0  0  0  0  0  0
   39.4227    8.4350   21.7719 H   0  0  0  0  0  0
   37.8930    8.1715   20.9311 H   0  0  0  0  0  0
   35.0782    1.5186   21.4719 H   0  0  0  0  0  0
  1  2  1  0  0  0
  1  6  2  0  0  0
  1  4  1  0  0  0
  2  3  2  0  0  0
  2  8  1  0  0  0
  3  7  1  0  0  0
  3  4  1  0  0  0
  4  5  2  0  0  0
  7 15  1  0  0  0
  7 24  1  0  0  0
  8  9  1  0  0  0
  8 25  1  0  0  0
  9 14  1  0  0  0
  9 10  2  0  0  0
 10 11  1  0  0  0
 10 26  1  0  0  0
 11 12  2  0  0  0
 11 27  1  0  0  0
 12 13  1  0  0  0
 13 14  2  0  0  0
 13 28  1  0  0  0
 14 29  1  0  0  0
 15 16  1  0  0  0
 15 22  1  0  0  0
 15 30  1  0  0  0
 16 17  2  0  0  0
 16 21  1  0  0  0
 17 18  1  0  0  0
 17 31  1  0  0  0
 18 19  2  0  0  0
 18 32  1  0  0  0
 19 20  1  0  0  0
 19 23  1  0  0  0
 20 21  2  0  0  0
 20 33  1  0  0  0
 21 34  1  0  0  0
 22 35  1  0  0  0
 22 36  1  0  0  0
 22 37  1  0  0  0
 23 38  1  0  0  0
M  END
> <s_m_entry_id>
7588

> <s_m_entry_name>
dock_pv.149

> <s_m_Source_Path>
/home/csk/Desktop/cluster/DUD-E-result/mapk2

> <s_m_Source_File>
dock_pv.maegz

> <i_m_Source_File_Index>
149

> <chembl_id>
CHEMBL512791

> <chembl_pref_name>
None

> <i_lp_mmshare_version>
53161

> <i_f3d_flags>
0

> <r_lp_tautomer_probability>
0.999999999997365

> <s_lp_Force_Field>
OPLS_2005

> <r_lp_Energy>
35.431526

> <b_lp_Chiralities_Consistent>
1

> <s_lp_Variant>
CHEMBL2208_lig261-1

> <s_i_glide_gridfile>
glide-grid_3m2w

> <i_i_glide_lignum>
396

> <i_i_glide_rotatable_bonds>
6

> <r_i_docking_score>
-7.15607847722299

> <r_i_glide_ligand_efficiency>
-0.311133846835782

> <r_i_glide_ligand_efficiency_sa>
-0.88482327240569

> <r_i_glide_ligand_efficiency_ln>
-1.73040466352464

> <r_i_glide_gscore>
-7.15607847722299

> <r_i_glide_lipo>
-1.84181879592941

> <r_i_glide_hbond>
-0.799209360619926

> <r_i_glide_metal>
0

> <r_i_glide_rewards>
-1.4093378628621

> <r_i_glide_evdw>
-39.628662109375

> <r_i_glide_ecoul>
-13.5850172042847

> <r_i_glide_erotb>
0.967535363034183

> <r_i_glide_esite>
-0.0540621347342883

> <r_i_glide_emodel>
-68.3955659068845

> <r_i_glide_energy>
-53.2136793136597

> <r_i_glide_einternal>
16.151517868042

> <i_i_glide_confnum>
117

> <i_i_glide_posenum>
297

> <r_i_glide_eff_state_penalty>
0

> <s_user_duplicate_titles>
CHEMBL2208_lig261

> <s_m_subgroup_title>
dock_pv

> <s_m_subgroupid>
dock_pv

> <b_m_subgroup_collapsed>
1

$$$$
CHEMBL2208_lig1217
                    3D
 Schrodinger Suite 2021-1.
 35 37  0  0  1  0            999 V2000
   39.7354    8.3406   19.1923 O   0  0  0  0  0  0
   39.4779    6.0256   13.2146 N   0  0  0  0  0  0
   38.3192    5.3493   13.0730 N   0  0  0  0  0  0
   39.4765    8.3433   20.5647 N   0  0  0  0  0  0
   36.6149    4.5944   14.5031 N   0  0  0  0  0  0
   38.5802    5.9170   15.2455 C   0  0  0  0  0  0
   39.5143    6.8921   17.2420 C   0  0  0  0  0  0
   39.6704    6.4481   14.5140 C   0  0  0  0  0  0
   39.4297    7.1127   18.7050 C   0  0  0  0  0  0
   38.5130    6.1326   16.6292 C   0  0  0  0  0  0
   37.7862    5.2523   14.2616 C   0  0  0  0  0  0
   40.5581    7.4351   16.4904 C   0  0  0  0  0  0
   40.6648    7.2257   15.1135 C   0  0  0  0  0  0
   39.0367    6.3172   19.7542 C   0  0  0  0  0  0
   39.0472    7.1380   20.8781 C   0  0  0  0  0  0
   38.6402    6.8281   22.3115 C   0  0  0  0  0  0
   37.3739    5.9422   22.4922 C   0  0  0  0  0  0
   37.6695    4.4299   22.4014 C   0  0  0  0  0  0
   36.1869    6.3440   21.5897 C   0  0  0  0  0  0
   40.0709    6.2202   12.4165 H   0  0  0  0  0  0
   36.0243    4.8215   15.2946 H   0  0  0  0  0  0
   36.1754    4.0548   13.7713 H   0  0  0  0  0  0
   37.6958    5.7245   17.2068 H   0  0  0  0  0  0
   41.3134    8.0264   16.9892 H   0  0  0  0  0  0
   41.4770    7.6512   14.5446 H   0  0  0  0  0  0
   38.7410    5.2829   19.7005 H   0  0  0  0  0  0
   38.4963    7.7538   22.8722 H   0  0  0  0  0  0
   39.4788    6.3397   22.8081 H   0  0  0  0  0  0
   37.0375    6.1130   23.5168 H   0  0  0  0  0  0
   38.0087    4.1264   21.4127 H   0  0  0  0  0  0
   36.7817    3.8386   22.6290 H   0  0  0  0  0  0
   38.4414    4.1339   23.1129 H   0  0  0  0  0  0
   36.3778    6.1343   20.5368 H   0  0  0  0  0  0
   35.2880    5.7926   21.8710 H   0  0  0  0  0  0
   35.9526    7.4058   21.6805 H   0  0  0  0  0  0
  1  4  1  0  0  0
  1  9  1  0  0  0
  2  3  1  0  0  0
  2  8  1  0  0  0
  2 20  1  0  0  0
  3 11  2  0  0  0
  4 15  2  0  0  0
  5 11  1  0  0  0
  5 21  1  0  0  0
  5 22  1  0  0  0
  6  8  1  0  0  0
  6 10  2  0  0  0
  6 11  1  0  0  0
  7  9  1  0  0  0
  7 10  1  0  0  0
  7 12  2  0  0  0
  8 13  2  0  0  0
  9 14  2  0  0  0
 10 23  1  0  0  0
 12 13  1  0  0  0
 12 24  1  0  0  0
 13 25  1  0  0  0
 14 15  1  0  0  0
 14 26  1  0  0  0
 15 16  1  0  0  0
 16 17  1  0  0  0
 16 27  1  0  0  0
 16 28  1  0  0  0
 17 18  1  0  0  0
 17 19  1  0  0  0
 17 29  1  0  0  0
 18 30  1  0  0  0
 18 31  1  0  0  0
 18 32  1  0  0  0
 19 33  1  0  0  0
 19 34  1  0  0  0
 19 35  1  0  0  0
M  END
> <s_m_entry_id>
7589

> <s_m_entry_name>
dock_pv.150

> <s_m_Source_Path>
/home/csk/Desktop/cluster/DUD-E-result/mapk2

> <s_m_Source_File>
dock_pv.maegz

> <i_m_Source_File_Index>
150

> <chembl_id>
CHEMBL1966343

> <chembl_pref_name>
None

> <i_lp_mmshare_version>
53161

> <i_f3d_flags>
0

> <r_lp_tautomer_probability>
1

> <s_lp_Force_Field>
OPLS_2005

> <r_lp_Energy>
5.05963

> <b_lp_Chiralities_Consistent>
1

> <s_lp_Variant>
CHEMBL2208_lig1217-1

> <s_i_glide_gridfile>
glide-grid_3m2w

> <i_i_glide_lignum>
1643

> <i_i_glide_rotatable_bonds>
3

> <r_i_docking_score>
-7.15455170654273

> <r_i_glide_ligand_efficiency>
-0.376555352975933

> <r_i_glide_ligand_efficiency_sa>
-1.00480092372986

> <r_i_glide_ligand_efficiency_ln>
-1.81383252328945

> <r_i_glide_gscore>
-7.15455170654273

> <r_i_glide_lipo>
-2.12334297165963

> <r_i_glide_hbond>
-0.532005554701184

> <r_i_glide_metal>
0

> <r_i_glide_rewards>
-2.45962125012157

> <r_i_glide_evdw>
-34.9412460327148

> <r_i_glide_ecoul>
-5.13078308105469

> <r_i_glide_erotb>
0.536565561565635

> <r_i_glide_esite>
-0.0594677278320294

> <r_i_glide_emodel>
-56.0829236201607

> <r_i_glide_energy>
-40.0720291137695

> <r_i_glide_einternal>
2.60062336921692

> <i_i_glide_confnum>
4

> <i_i_glide_posenum>
382

> <r_i_glide_eff_state_penalty>
0

> <s_user_duplicate_titles>
CHEMBL2208_lig1217

> <s_m_subgroup_title>
dock_pv

> <s_m_subgroupid>
dock_pv

> <b_m_subgroup_collapsed>
1

$$$$
CHEMBL2208_lig325
                    3D
 Schrodinger Suite 2021-1.
 40 44  0  0  1  0            999 V2000
   36.6645    5.5205   20.5726 C   0  0  0  0  0  0
   37.2689    6.2208   19.5227 C   0  0  0  0  0  0
   37.2512    5.7397   18.2104 C   0  0  0  0  0  0
   36.5943    4.5440   17.9260 C   0  0  0  0  0  0
   36.0346    4.2978   20.2887 C   0  0  0  0  0  0
   35.9847    3.8170   18.9480 C   0  0  0  0  0  0
   35.2625    2.5979   19.0136 C   0  0  0  0  0  0
   35.0312    2.4278   20.3593 N   0  0  0  0  0  0
   35.4464    3.4286   21.1620 N   0  0  0  0  0  0
   37.9801    6.4259   17.2213 N   0  0  0  0  0  0
   38.1255    6.2196   15.8403 C   0  0  0  0  0  0
   37.1481    5.6205   15.0305 C   0  0  0  0  0  0
   37.4857    5.3727   13.6988 C   0  0  0  0  0  0
   38.6787    5.7461   13.1719 N   0  0  0  0  0  0
   39.5106    6.4136   14.0082 C   0  0  0  0  0  0
   39.2951    6.6650   15.3194 N   0  0  0  0  0  0
   40.6771    6.9284   13.4728 N   0  0  0  0  0  0
   34.8324    1.6885   17.9556 C   0  0  0  0  0  0
   35.3754    1.5694   16.6873 C   0  0  0  0  0  0
   33.4354    0.6530   18.1731 S   0  0  0  0  0  0
   33.5032    0.1535   16.4911 C   0  0  0  0  0  0
   34.6067    0.7517   15.8167 C   0  0  0  0  0  0
   34.7861    0.4770   14.4486 C   0  0  0  0  0  0
   33.8808   -0.3574   13.7911 C   0  0  0  0  0  0
   32.8176   -0.9417   14.4723 C   0  0  0  0  0  0
   32.6127   -0.7038   15.8294 C   0  0  0  0  0  0
   36.7110    5.8962   21.5848 H   0  0  0  0  0  0
   37.7886    7.1408   19.7488 H   0  0  0  0  0  0
   36.6248    4.1146   16.9448 H   0  0  0  0  0  0
   34.6482    1.5713   20.7468 H   0  0  0  0  0  0
   38.6533    7.0806   17.5866 H   0  0  0  0  0  0
   36.1681    5.3558   15.3956 H   0  0  0  0  0  0
   36.7953    4.8743   13.0337 H   0  0  0  0  0  0
   40.8933    6.8164   12.4862 H   0  0  0  0  0  0
   41.2789    7.4701   14.0785 H   0  0  0  0  0  0
   36.2616    2.0895   16.3616 H   0  0  0  0  0  0
   35.6071    0.9266   13.9079 H   0  0  0  0  0  0
   34.0084   -0.5557   12.7360 H   0  0  0  0  0  0
   32.1278   -1.5755   13.9346 H   0  0  0  0  0  0
   31.7775   -1.1482   16.3530 H   0  0  0  0  0  0
  1  5  1  0  0  0
  1 27  1  0  0  0
  1  2  2  0  0  0
  2  3  1  0  0  0
  2 28  1  0  0  0
  3 10  1  0  0  0
  3  4  2  0  0  0
  4 29  1  0  0  0
  4  6  1  0  0  0
  5  9  2  0  0  0
  5  6  1  0  0  0
  6  7  2  0  0  0
  7 18  1  0  0  0
  7  8  1  0  0  0
  8 30  1  0  0  0
  8  9  1  0  0  0
 10 11  1  0  0  0
 10 31  1  0  0  0
 11 16  1  0  0  0
 11 12  2  0  0  0
 12 13  1  0  0  0
 12 32  1  0  0  0
 13 14  2  0  0  0
 13 33  1  0  0  0
 14 15  1  0  0  0
 15 16  2  0  0  0
 15 17  1  0  0  0
 17 34  1  0  0  0
 17 35  1  0  0  0
 18 19  2  0  0  0
 18 20  1  0  0  0
 19 22  1  0  0  0
 19 36  1  0  0  0
 20 21  1  0  0  0
 21 22  2  0  0  0
 21 26  1  0  0  0
 22 23  1  0  0  0
 23 24  2  0  0  0
 23 37  1  0  0  0
 24 25  1  0  0  0
 24 38  1  0  0  0
 25 26  2  0  0  0
 25 39  1  0  0  0
 26 40  1  0  0  0
M  END
> <s_m_entry_id>
7590

> <s_m_entry_name>
dock_pv.151

> <s_m_Source_Path>
/home/csk/Desktop/cluster/DUD-E-result/mapk2

> <s_m_Source_File>
dock_pv.maegz

> <i_m_Source_File_Index>
151

> <chembl_id>
CHEMBL600081

> <chembl_pref_name>
None

> <i_lp_mmshare_version>
53161

> <i_f3d_flags>
0

> <r_lp_tautomer_probability>
0.01682948890584

> <s_lp_Force_Field>
OPLS_2005

> <r_lp_Energy>
25.86385

> <b_lp_Chiralities_Consistent>
1

> <s_lp_Variant>
CHEMBL2208_lig325-2

> <s_i_glide_gridfile>
glide-grid_3m2w

> <i_i_glide_lignum>
476

> <i_i_glide_rotatable_bonds>
3

> <r_i_docking_score>
-7.15129423666962

> <r_i_glide_ligand_efficiency>
-0.275049778333447

> <r_i_glide_ligand_efficiency_sa>
-0.81483388604422

> <r_i_glide_ligand_efficiency_ln>
-1.67945798617155

> <r_i_glide_gscore>
-7.15129423666962

> <r_i_glide_lipo>
-1.39110250809633

> <r_i_glide_hbond>
-0.620860316154088

> <r_i_glide_metal>
0

> <r_i_glide_rewards>
-2.2572724915866

> <r_i_glide_evdw>
-36.179328918457

> <r_i_glide_ecoul>
-8.7882137298584

> <r_i_glide_erotb>
0.313132511859784

> <r_i_glide_esite>
-0.0679929272907807

> <r_i_glide_emodel>
-62.3567015764085

> <r_i_glide_energy>
-44.9675426483154

> <r_i_glide_einternal>
4.26239633560181

> <i_i_glide_confnum>
10

> <i_i_glide_posenum>
377

> <r_i_glide_eff_state_penalty>
0

> <s_user_duplicate_titles>
CHEMBL2208_lig325,590221

> <s_m_subgroup_title>
dock_pv

> <s_m_subgroupid>
dock_pv

> <b_m_subgroup_collapsed>
1

$$$$
CHEMBL2208_lig225
                    3D
 Schrodinger Suite 2021-1.
 42 45  0  0  1  0            999 V2000
   39.2137    6.1047   13.9668 C   0  0  0  0  0  0
   38.0696    5.6163   14.6161 C   0  0  0  0  0  0
   37.9035    5.8421   15.9891 C   0  0  0  0  0  0
   40.2149    6.8079   14.6357 C   0  0  0  0  0  0
   37.0477    4.8204   13.8425 C   0  0  0  0  0  0
   37.0780    4.8250   12.6103 O   0  0  0  0  0  0
   36.2140    4.0691   14.6074 N   0  0  0  0  0  0
   35.2226    3.1246   14.2777 C   0  0  0  0  0  0
   40.0419    6.9905   16.0090 C   0  0  0  0  0  0
   38.8987    6.5056   16.7006 C   0  0  0  0  0  0
   40.8164    7.6250   16.9526 N   0  0  0  0  0  0
   40.2185    7.5626   18.1907 C   0  0  0  0  0  0
   39.0481    6.8457   18.0754 C   0  0  0  0  0  0
   38.1475    6.6041   19.2636 C   0  0  0  0  0  0
   38.8981    6.9188   20.5955 C   0  0  1  0  0  0
   39.8778    8.0252   20.4279 N   0  0  0  0  0  0
   40.7308    8.1690   19.3802 C   0  0  0  0  0  0
   41.7648    8.8250   19.4723 O   0  0  0  0  0  0
   34.6365    2.4265   15.3413 C   0  0  0  0  0  0
   33.6286    1.4926   15.0956 C   0  0  0  0  0  0
   33.2278    1.2798   13.7768 C   0  0  0  0  0  0
   33.7811    1.9335   12.7254 N   0  0  0  0  0  0
   34.7708    2.8267   12.9839 C   0  0  0  0  0  0
   37.8594    7.0871   21.7440 C   0  0  0  0  0  0
   38.2781    7.9453   22.8433 N   0  0  0  0  0  0
   39.3447    5.9406   12.9059 H   0  0  0  0  0  0
   37.0307    5.5035   16.5276 H   0  0  0  0  0  0
   41.0779    7.1843   14.1061 H   0  0  0  0  0  0
   36.3505    4.1666   15.5997 H   0  0  0  0  0  0
   41.6855    8.1180   16.8026 H   0  0  0  0  0  0
   37.7930    5.5725   19.2804 H   0  0  0  0  0  0
   37.2581    7.2250   19.1614 H   0  0  0  0  0  0
   39.5163    6.0549   20.8556 H   0  0  0  0  0  0
   40.1950    8.4257   21.2968 H   0  0  0  0  0  0
   34.9438    2.6144   16.3603 H   0  0  0  0  0  0
   33.1634    0.9579   15.9106 H   0  0  0  0  0  0
   32.4433    0.5748   13.5446 H   0  0  0  0  0  0
   35.1884    3.3174   12.1178 H   0  0  0  0  0  0
   37.5935    6.1070   22.1438 H   0  0  0  0  0  0
   36.9369    7.5245   21.3596 H   0  0  0  0  0  0
   37.5942    7.9048   23.5852 H   0  0  0  0  0  0
   39.1507    7.6253   23.2700 H   0  0  0  0  0  0
  1  2  2  0  0  0
  1  4  1  0  0  0
  1 26  1  0  0  0
  2  5  1  0  0  0
  2  3  1  0  0  0
  3 10  2  0  0  0
  3 27  1  0  0  0
  4  9  2  0  0  0
  4 28  1  0  0  0
  5  6  2  0  0  0
  5  7  1  0  0  0
  7  8  1  0  0  0
  7 29  1  0  0  0
  8 19  2  0  0  0
  8 23  1  0  0  0
  9 10  1  0  0  0
  9 11  1  0  0  0
 10 13  1  0  0  0
 11 12  1  0  0  0
 11 30  1  0  0  0
 12 13  2  0  0  0
 12 17  1  0  0  0
 13 14  1  0  0  0
 14 15  1  0  0  0
 14 31  1  0  0  0
 14 32  1  0  0  0
 15 16  1  0  0  0
 15 24  1  0  0  0
 15 33  1  0  0  0
 16 17  1  0  0  0
 16 34  1  0  0  0
 17 18  2  0  0  0
 19 20  1  0  0  0
 19 35  1  0  0  0
 20 21  2  0  0  0
 20 36  1  0  0  0
 21 22  1  0  0  0
 21 37  1  0  0  0
 22 23  2  0  0  0
 23 38  1  0  0  0
 24 25  1  0  0  0
 24 39  1  0  0  0
 24 40  1  0  0  0
 25 41  1  0  0  0
 25 42  1  0  0  0
M  END
> <s_m_entry_id>
7591

> <s_m_entry_name>
dock_pv.152

> <s_m_Source_Path>
/home/csk/Desktop/cluster/DUD-E-result/mapk2

> <s_m_Source_File>
dock_pv.maegz

> <i_m_Source_File_Index>
152

> <chembl_id>
CHEMBL255605

> <chembl_pref_name>
None

> <i_lp_mmshare_version>
53161

> <i_f3d_flags>
0

> <r_lp_tautomer_probability>
1

> <s_lp_Force_Field>
OPLS_2005

> <r_lp_Energy>
29.712537

> <b_lp_Chiralities_Consistent>
1

> <s_lp_Variant>
CHEMBL2208_lig225-2

> <s_i_glide_gridfile>
glide-grid_3m2w

> <i_i_glide_lignum>
356

> <i_i_glide_rotatable_bonds>
4

> <r_i_docking_score>
-7.14711011130538

> <r_i_glide_ligand_efficiency>
-0.285884404452215

> <r_i_glide_ligand_efficiency_sa>
-0.83593106879978

> <r_i_glide_ligand_efficiency_ln>
-1.69407927798602

> <r_i_glide_gscore>
-7.14711011130538

> <r_i_glide_lipo>
-2.40128188046602

> <r_i_glide_hbond>
-0.439917893588745

> <r_i_glide_metal>
0

> <r_i_glide_rewards>
-1.33666377432228

> <r_i_glide_evdw>
-39.6181182861328

> <r_i_glide_ecoul>
-9.19604396820068

> <r_i_glide_erotb>
0.50341694382946

> <r_i_glide_esite>
-0.112350997221062

> <r_i_glide_emodel>
-66.7150289055248

> <r_i_glide_energy>
-48.8141622543335

> <r_i_glide_einternal>
4.72126531600952

> <i_i_glide_confnum>
1

> <i_i_glide_posenum>
383

> <r_i_glide_eff_state_penalty>
0

> <s_user_duplicate_titles>
CHEMBL2208_lig225,434081

> <s_m_subgroup_title>
dock_pv

> <s_m_subgroupid>
dock_pv

> <b_m_subgroup_collapsed>
1

$$$$
CHEMBL2208_lig199
                    3D
 Schrodinger Suite 2021-1.
 41 44  0  0  1  0            999 V2000
   39.1417    6.0960   14.5369 C   0  0  0  0  0  0
   37.9158    5.5450   14.9338 C   0  0  0  0  0  0
   37.5001    5.6386   16.2733 C   0  0  0  0  0  0
   39.9856    6.7358   15.4418 C   0  0  0  0  0  0
   37.0570    4.8250   13.9190 C   0  0  0  0  0  0
   37.2764    4.9503   12.7111 O   0  0  0  0  0  0
   36.1123    4.0139   14.4543 N   0  0  0  0  0  0
   35.1833    3.2251   13.7994 C   0  0  0  0  0  0
   39.6044    6.8072   16.7875 C   0  0  0  0  0  0
   38.3638    6.2419   17.1886 C   0  0  0  0  0  0
   40.1887    7.3713   17.9570 C   0  0  0  0  0  0
   34.8981    3.2250   12.5188 N   0  0  0  0  0  0
   33.8780    2.4250   12.2569 C   0  0  0  0  0  0
   33.3582    1.7112   13.3327 C   0  0  0  0  0  0
   34.2313    2.1487   14.7695 S   0  0  0  0  0  0
   38.2353    6.4439   18.5537 N   0  0  0  0  0  0
   39.3672    7.0806   19.0386 C   0  0  0  0  0  0
   39.5917    7.4448   20.4224 C   0  0  0  0  0  0
   37.0401    6.1585   19.3468 C   0  0  0  0  0  0
   39.0780    6.6421   21.3778 N   0  0  0  0  0  0
   37.2522    5.1132   20.4631 C   0  0  2  0  0  0
   38.5901    5.2672   21.2326 C   0  0  0  0  0  0
   40.2780    8.4250   20.6720 O   0  0  0  0  0  0
   37.0676    3.6753   19.9320 C   0  0  0  0  0  0
   36.6780    2.8250   20.9831 O   0  0  0  0  0  0
   39.4581    6.0288   13.5040 H   0  0  0  0  0  0
   36.5528    5.2427   16.6069 H   0  0  0  0  0  0
   40.9202    7.1635   15.1102 H   0  0  0  0  0  0
   36.1078    3.9263   15.4574 H   0  0  0  0  0  0
   41.1245    7.9055   18.0221 H   0  0  0  0  0  0
   33.5211    2.3586   11.2394 H   0  0  0  0  0  0
   32.5448    1.0010   13.3554 H   0  0  0  0  0  0
   36.2236    5.8740   18.6888 H   0  0  0  0  0  0
   36.7314    7.1050   19.7952 H   0  0  0  0  0  0
   39.2400    6.9655   22.3235 H   0  0  0  0  0  0
   36.4482    5.3081   21.1765 H   0  0  0  0  0  0
   38.4982    4.8160   22.2225 H   0  0  0  0  0  0
   39.3877    4.7052   20.7398 H   0  0  0  0  0  0
   37.9777    3.2925   19.4720 H   0  0  0  0  0  0
   36.2806    3.6281   19.1780 H   0  0  0  0  0  0
   37.4577    2.3647   21.3269 H   0  0  0  0  0  0
  1  2  2  0  0  0
  1  4  1  0  0  0
  1 26  1  0  0  0
  2  5  1  0  0  0
  2  3  1  0  0  0
  3 10  2  0  0  0
  3 27  1  0  0  0
  4  9  2  0  0  0
  4 28  1  0  0  0
  5  6  2  0  0  0
  5  7  1  0  0  0
  7  8  1  0  0  0
  7 29  1  0  0  0
  8 12  2  0  0  0
  8 15  1  0  0  0
  9 10  1  0  0  0
  9 11  1  0  0  0
 10 16  1  0  0  0
 11 17  2  0  0  0
 11 30  1  0  0  0
 12 13  1  0  0  0
 13 14  2  0  0  0
 13 31  1  0  0  0
 14 15  1  0  0  0
 14 32  1  0  0  0
 16 17  1  0  0  0
 16 19  1  0  0  0
 17 18  1  0  0  0
 18 20  1  0  0  0
 18 23  2  0  0  0
 19 21  1  0  0  0
 19 33  1  0  0  0
 19 34  1  0  0  0
 20 22  1  0  0  0
 20 35  1  0  0  0
 21 22  1  0  0  0
 21 24  1  0  0  0
 21 36  1  0  0  0
 22 37  1  0  0  0
 22 38  1  0  0  0
 24 25  1  0  0  0
 24 39  1  0  0  0
 24 40  1  0  0  0
 25 41  1  0  0  0
M  END
> <s_m_entry_id>
7592

> <s_m_entry_name>
dock_pv.153

> <s_m_Source_Path>
/home/csk/Desktop/cluster/DUD-E-result/mapk2

> <s_m_Source_File>
dock_pv.maegz

> <i_m_Source_File_Index>
153

> <chembl_id>
CHEMBL403193

> <chembl_pref_name>
None

> <i_lp_mmshare_version>
53161

> <i_f3d_flags>
0

> <r_lp_tautomer_probability>
0.999000488399163

> <s_lp_Force_Field>
OPLS_2005

> <r_lp_Energy>
27.707625

> <b_lp_Chiralities_Consistent>
1

> <s_lp_Variant>
CHEMBL2208_lig199-1

> <s_i_glide_gridfile>
glide-grid_3m2w

> <i_i_glide_lignum>
311

> <i_i_glide_rotatable_bonds>
5

> <r_i_docking_score>
-7.13734459036891

> <r_i_glide_ligand_efficiency>
-0.285493783614756

> <r_i_glide_ligand_efficiency_sa>
-0.834788886543359

> <r_i_glide_ligand_efficiency_ln>
-1.69176455687503

> <r_i_glide_gscore>
-7.13734459036891

> <r_i_glide_lipo>
-2.28104905143957

> <r_i_glide_hbond>
-0.567472054001902

> <r_i_glide_metal>
0

> <r_i_glide_rewards>
-1.33021196152939

> <r_i_glide_evdw>
-36.3133926391602

> <r_i_glide_ecoul>
-10.9647703170776

> <r_i_glide_erotb>
0.602480333214305

> <r_i_glide_esite>
-0.100706677092698

> <r_i_glide_emodel>
-65.4812089045433

> <r_i_glide_energy>
-47.2781629562378

> <r_i_glide_einternal>
3.71908617019653

> <i_i_glide_confnum>
20

> <i_i_glide_posenum>
37

> <r_i_glide_eff_state_penalty>
0

> <s_user_duplicate_titles>
CHEMBL2208_lig199,434479

> <s_m_subgroup_title>
dock_pv

> <s_m_subgroupid>
dock_pv

> <b_m_subgroup_collapsed>
1

$$$$
CHEMBL2208_lig209
                    3D
 Schrodinger Suite 2021-1.
 45 48  0  0  1  0            999 V2000
   38.7942    5.8326   14.1943 C   0  0  0  0  0  0
   37.6793    5.3571   14.9004 C   0  0  0  0  0  0
   37.4960    5.6950   16.2480 C   0  0  0  0  0  0
   39.7844    6.5937   14.8064 C   0  0  0  0  0  0
   36.7062    4.4400   14.2054 C   0  0  0  0  0  0
   36.6780    4.4250   12.9750 O   0  0  0  0  0  0
   35.9892    3.6252   15.0142 N   0  0  0  0  0  0
   35.0780    2.6544   14.6402 C   0  0  0  0  0  0
   39.6664    6.8679   16.1726 C   0  0  0  0  0  0
   38.5134    6.4151   16.8734 C   0  0  0  0  0  0
   40.4781    7.5515   17.1221 C   0  0  0  0  0  0
   39.8780    7.4217   18.3628 C   0  0  0  0  0  0
   38.6453    6.8250   18.1838 N   0  0  0  0  0  0
   37.6729    6.6911   19.2642 C   0  0  0  0  0  0
   38.4583    6.4033   20.5667 C   0  0  2  0  0  0
   39.5595    7.3952   20.6743 N   0  0  0  0  0  0
   40.2930    7.9128   19.6531 C   0  0  0  0  0  0
   41.2330    8.6702   19.8720 O   0  0  0  0  0  0
   34.5909    2.4250   13.4429 N   0  0  0  0  0  0
   33.7550    1.4045   13.4503 C   0  0  0  0  0  0
   33.5513    0.7818   14.6788 C   0  0  0  0  0  0
   34.5108    1.5874   15.8836 S   0  0  0  0  0  0
   38.9117    4.9296   20.7053 C   0  0  0  0  0  0
   37.8780    4.0250   21.2115 N   0  0  1  0  0  0
   36.7486    3.7674   20.3331 C   0  0  0  0  0  0
   36.0325    2.4997   20.8013 C   0  0  0  0  0  0
   38.9181    5.5924   13.1474 H   0  0  0  0  0  0
   36.6285    5.3736   16.8059 H   0  0  0  0  0  0
   40.6403    6.9360   14.2425 H   0  0  0  0  0  0
   36.1681    3.6895   16.0031 H   0  0  0  0  0  0
   41.4282    8.0324   16.9431 H   0  0  0  0  0  0
   36.9274    5.9458   19.0129 H   0  0  0  0  0  0
   37.1444    7.6250   19.4185 H   0  0  0  0  0  0
   37.7899    6.6272   21.4012 H   0  0  0  0  0  0
   39.9122    7.5795   21.6039 H   0  0  0  0  0  0
   33.2844    1.1157   12.5217 H   0  0  0  0  0  0
   32.9163   -0.0559   14.9268 H   0  0  0  0  0  0
   39.7212    4.8933   21.4360 H   0  0  0  0  0  0
   39.3427    4.5492   19.7776 H   0  0  0  0  0  0
   38.2946    3.1201   21.4720 H   0  0  0  0  0  0
   37.0781    3.6372   19.3008 H   0  0  0  0  0  0
   36.0471    4.5999   20.3831 H   0  0  0  0  0  0
   35.1485    2.3053   20.1940 H   0  0  0  0  0  0
   36.6780    1.6250   20.7201 H   0  0  0  0  0  0
   35.7067    2.5774   21.8395 H   0  0  0  0  0  0
  1  2  2  0  0  0
  1  4  1  0  0  0
  1 27  1  0  0  0
  2  5  1  0  0  0
  2  3  1  0  0  0
  3 10  2  0  0  0
  3 28  1  0  0  0
  4  9  2  0  0  0
  4 29  1  0  0  0
  5  6  2  0  0  0
  5  7  1  0  0  0
  7  8  1  0  0  0
  7 30  1  0  0  0
  8 19  2  0  0  0
  8 22  1  0  0  0
  9 10  1  0  0  0
  9 11  1  0  0  0
 10 13  1  0  0  0
 11 12  2  0  0  0
 11 31  1  0  0  0
 12 17  1  0  0  0
 12 13  1  0  0  0
 13 14  1  0  0  0
 14 15  1  0  0  0
 14 32  1  0  0  0
 14 33  1  0  0  0
 15 16  1  0  0  0
 15 23  1  0  0  0
 15 34  1  0  0  0
 16 17  1  0  0  0
 16 35  1  0  0  0
 17 18  2  0  0  0
 19 20  1  0  0  0
 20 21  2  0  0  0
 20 36  1  0  0  0
 21 22  1  0  0  0
 21 37  1  0  0  0
 23 24  1  0  0  0
 23 38  1  0  0  0
 23 39  1  0  0  0
 24 25  1  0  0  0
 24 40  1  0  0  0
 25 26  1  0  0  0
 25 41  1  0  0  0
 25 42  1  0  0  0
 26 43  1  0  0  0
 26 44  1  0  0  0
 26 45  1  0  0  0
M  END
> <s_m_entry_id>
7593

> <s_m_entry_name>
dock_pv.154

> <s_m_Source_Path>
/home/csk/Desktop/cluster/DUD-E-result/mapk2

> <s_m_Source_File>
dock_pv.maegz

> <i_m_Source_File_Index>
154

> <chembl_id>
CHEMBL401748

> <chembl_pref_name>
None

> <i_lp_mmshare_version>
53161

> <i_f3d_flags>
0

> <r_lp_tautomer_probability>
0.999000488399163

> <s_lp_Force_Field>
OPLS_2005

> <r_lp_Energy>
22.901465

> <b_lp_Chiralities_Consistent>
1

> <s_lp_Variant>
CHEMBL2208_lig209-1

> <s_i_glide_gridfile>
glide-grid_3m2w

> <i_i_glide_lignum>
329

> <i_i_glide_rotatable_bonds>
6

> <r_i_docking_score>
-7.1362721489945

> <r_i_glide_ligand_efficiency>
-0.274472005730558

> <r_i_glide_ligand_efficiency_sa>
-0.813122236981586

> <r_i_glide_ligand_efficiency_ln>
-1.67593009817254

> <r_i_glide_gscore>
-7.1362721489945

> <r_i_glide_lipo>
-2.41224298798337

> <r_i_glide_hbond>
-0.48

> <r_i_glide_metal>
0

> <r_i_glide_rewards>
-1.32691922187816

> <r_i_glide_evdw>
-38.1184005737305

> <r_i_glide_ecoul>
-10.7946166992188

> <r_i_glide_erotb>
0.706331189396969

> <r_i_glide_esite>
-0.0983285949606039

> <r_i_glide_emodel>
-66.3868849658404

> <r_i_glide_energy>
-48.9130172729492

> <r_i_glide_einternal>
4.95623207092285

> <i_i_glide_confnum>
19

> <i_i_glide_posenum>
97

> <r_i_glide_eff_state_penalty>
0

> <s_user_duplicate_titles>
CHEMBL2208_lig209

> <s_m_subgroup_title>
dock_pv

> <s_m_subgroupid>
dock_pv

> <b_m_subgroup_collapsed>
1

$$$$
CHEMBL2208_lig194
                    3D
 Schrodinger Suite 2021-1.
 47 50  0  0  1  0            999 V2000
   38.7459    6.4467   14.7231 C   0  0  0  0  0  0
   37.6871    5.6265   15.1344 C   0  0  0  0  0  0
   37.3482    5.5522   16.4960 C   0  0  0  0  0  0
   39.4869    7.2047   15.6266 C   0  0  0  0  0  0
   36.9232    4.8248   14.1008 C   0  0  0  0  0  0
   37.2247    4.9034   12.9063 O   0  0  0  0  0  0
   35.9408    4.0275   14.5871 N   0  0  0  0  0  0
   35.0780    3.2214   13.8708 C   0  0  0  0  0  0
   39.1880    7.1097   16.9909 C   0  0  0  0  0  0
   38.1270    6.2615   17.4107 C   0  0  0  0  0  0
   39.7288    7.7023   18.1684 C   0  0  0  0  0  0
   34.8767    3.2249   12.5732 N   0  0  0  0  0  0
   33.8776    2.4249   12.2466 C   0  0  0  0  0  0
   33.2953    1.7034   13.2841 C   0  0  0  0  0  0
   34.0740    2.1353   14.7735 S   0  0  0  0  0  0
   38.0741    6.3105   18.7952 N   0  0  0  0  0  0
   39.0920    7.1355   19.2648 C   0  0  0  0  0  0
   39.4142    7.3498   20.6656 C   0  0  0  0  0  0
   37.1068    5.5906   19.6411 C   0  0  0  0  0  0
   39.2302    6.2897   21.4797 N   0  0  0  0  0  0
   37.7543    4.4693   20.4977 C   0  0  1  0  0  0
   39.1304    4.8800   21.0688 C   0  0  0  0  0  0
   39.8771    8.4250   21.0293 O   0  0  0  0  0  0
   36.8217    3.9737   21.6313 C   0  0  0  0  0  0
   35.6941    3.1772   21.1501 N   0  0  0  0  0  0
   34.4630    3.6480   20.9117 C   0  0  0  0  0  0
   33.4300    2.6474   20.4114 C   0  0  0  0  0  0
   34.1455    4.8251   21.0725 O   0  0  0  0  0  0
   39.0087    6.5060   13.6762 H   0  0  0  0  0  0
   36.5407    4.9330   16.8546 H   0  0  0  0  0  0
   40.2895    7.8388   15.2817 H   0  0  0  0  0  0
   35.8155    4.0098   15.5856 H   0  0  0  0  0  0
   40.5455    8.4046   18.2280 H   0  0  0  0  0  0
   33.5878    2.3664   11.2072 H   0  0  0  0  0  0
   32.4841    0.9916   13.2485 H   0  0  0  0  0  0
   36.2909    5.2016   19.0340 H   0  0  0  0  0  0
   36.6496    6.3378   20.2945 H   0  0  0  0  0  0
   39.4324    6.4685   22.4551 H   0  0  0  0  0  0
   37.9458    3.6305   19.8262 H   0  0  0  0  0  0
   39.4287    4.2093   21.8718 H   0  0  0  0  0  0
   39.8779    4.7255   20.2896 H   0  0  0  0  0  0
   36.4896    4.8121   22.2495 H   0  0  0  0  0  0
   37.3705    3.3218   22.3121 H   0  0  0  0  0  0
   35.8443    2.1783   21.0727 H   0  0  0  0  0  0
   33.8582    1.6524   20.2882 H   0  0  0  0  0  0
   32.6029    2.5777   21.1162 H   0  0  0  0  0  0
   33.0357    2.9724   19.4502 H   0  0  0  0  0  0
  1  2  2  0  0  0
  1  4  1  0  0  0
  1 29  1  0  0  0
  2  5  1  0  0  0
  2  3  1  0  0  0
  3 10  2  0  0  0
  3 30  1  0  0  0
  4  9  2  0  0  0
  4 31  1  0  0  0
  5  6  2  0  0  0
  5  7  1  0  0  0
  7  8  1  0  0  0
  7 32  1  0  0  0
  8 15  1  0  0  0
  8 12  2  0  0  0
  9 10  1  0  0  0
  9 11  1  0  0  0
 10 16  1  0  0  0
 11 17  2  0  0  0
 11 33  1  0  0  0
 12 13  1  0  0  0
 13 14  2  0  0  0
 13 34  1  0  0  0
 14 15  1  0  0  0
 14 35  1  0  0  0
 16 17  1  0  0  0
 16 19  1  0  0  0
 17 18  1  0  0  0
 18 20  1  0  0  0
 18 23  2  0  0  0
 19 21  1  0  0  0
 19 36  1  0  0  0
 19 37  1  0  0  0
 20 22  1  0  0  0
 20 38  1  0  0  0
 21 22  1  0  0  0
 21 24  1  0  0  0
 21 39  1  0  0  0
 22 40  1  0  0  0
 22 41  1  0  0  0
 24 25  1  0  0  0
 24 42  1  0  0  0
 24 43  1  0  0  0
 25 26  1  0  0  0
 25 44  1  0  0  0
 26 27  1  0  0  0
 26 28  2  0  0  0
 27 45  1  0  0  0
 27 46  1  0  0  0
 27 47  1  0  0  0
M  END
> <s_m_entry_id>
7594

> <s_m_entry_name>
dock_pv.155

> <s_m_Source_Path>
/home/csk/Desktop/cluster/DUD-E-result/mapk2

> <s_m_Source_File>
dock_pv.maegz

> <i_m_Source_File_Index>
155

> <chembl_id>
CHEMBL404756

> <chembl_pref_name>
None

> <i_lp_mmshare_version>
53161

> <i_f3d_flags>
0

> <r_lp_tautomer_probability>
0.999000488399163

> <s_lp_Force_Field>
OPLS_2005

> <r_lp_Energy>
27.908011

> <b_lp_Chiralities_Consistent>
1

> <s_lp_Variant>
CHEMBL2208_lig194-2

> <s_i_glide_gridfile>
glide-grid_3m2w

> <i_i_glide_lignum>
302

> <i_i_glide_rotatable_bonds>
6

> <r_i_docking_score>
-7.13177080465206

> <r_i_glide_ligand_efficiency>
-0.254706100166145

> <r_i_glide_ligand_efficiency_sa>
-0.773437733974889

> <r_i_glide_ligand_efficiency_ln>
-1.64622209960343

> <r_i_glide_gscore>
-7.13177080465206

> <r_i_glide_lipo>
-2.13510019584679

> <r_i_glide_hbond>
-0.391690892002316

> <r_i_glide_metal>
0

> <r_i_glide_rewards>
-1.13919005630759

> <r_i_glide_evdw>
-40.2533493041992

> <r_i_glide_ecoul>
-12.5260000228882

> <r_i_glide_erotb>
0.619584430556323

> <r_i_glide_esite>
-0.193806622408491

> <r_i_glide_emodel>
-74.266590932361

> <r_i_glide_energy>
-52.7793493270874

> <r_i_glide_einternal>
3.74646782875061

> <i_i_glide_confnum>
23

> <i_i_glide_posenum>
179

> <r_i_glide_eff_state_penalty>
0

> <s_user_duplicate_titles>
CHEMBL2208_lig194

> <s_m_subgroup_title>
dock_pv

> <s_m_subgroupid>
dock_pv

> <b_m_subgroup_collapsed>
1

$$$$
CHEMBL2208_lig1547
                    3D
 Schrodinger Suite 2021-1.
 49 51  0  0  1  0            999 V2000
   40.8925    6.3296   15.8147 F   0  0  0  0  0  0
   39.9531    8.0486   20.1007 O   0  0  0  0  0  0
   36.7246    7.7374   21.7283 O   0  0  0  0  0  0
   34.5465    2.8205   23.0495 O   0  0  0  0  0  0
   38.3883    6.2980   22.3532 N   0  0  0  0  0  0
   38.7113    5.6250   13.0183 N   0  0  0  0  0  0
   37.9644    6.6864   20.0258 C   0  0  0  0  0  0
   38.3235    6.2377   17.2700 C   0  0  0  0  0  0
   39.0620    7.2728   19.3740 C   0  0  0  0  0  0
   38.4860    6.0252   15.7988 C   0  0  0  0  0  0
   39.1909    7.0685   17.9906 C   0  0  0  0  0  0
   37.6497    6.9737   21.4556 C   0  0  0  0  0  0
   37.0863    5.8597   19.3237 C   0  0  0  0  0  0
   37.2772    5.6249   17.9699 C   0  0  0  0  0  0
   39.7360    6.1094   15.1467 C   0  0  0  0  0  0
   38.1680    6.2478   23.8078 C   0  0  2  0  0  0
   37.3626    5.7246   15.0076 C   0  0  0  0  0  0
   37.0479    5.3040   24.2911 C   0  0  0  0  0  0
   39.7939    5.9416   13.7659 C   0  0  0  0  0  0
   36.3390    4.4741   23.4082 C   0  0  0  0  0  0
   37.5188    5.5126   13.6421 C   0  0  0  0  0  0
   35.2995    3.6451   23.8609 C   0  0  0  0  0  0
   36.7213    5.2577   25.6537 C   0  0  0  0  0  0
   34.9895    3.6368   25.2202 C   0  0  0  0  0  0
   35.6991    4.4319   26.1164 C   0  0  0  0  0  0
   38.0602    7.6587   24.4208 C   0  0  0  0  0  0
   41.1744    8.4482   19.4816 C   0  0  0  0  0  0
   34.8526    2.7472   21.6611 C   0  0  0  0  0  0
   39.1215    5.6944   22.0084 H   0  0  0  0  0  0
   39.9701    7.5843   17.4586 H   0  0  0  0  0  0
   36.2450    5.3969   19.8215 H   0  0  0  0  0  0
   36.5847    4.9618   17.4729 H   0  0  0  0  0  0
   39.0794    5.8053   24.2000 H   0  0  0  0  0  0
   36.3726    5.6470   15.4335 H   0  0  0  0  0  0
   40.7341    6.0243   13.2392 H   0  0  0  0  0  0
   36.5924    4.4823   22.3617 H   0  0  0  0  0  0
   36.6785    5.2379   13.0251 H   0  0  0  0  0  0
   37.2574    5.8655   26.3667 H   0  0  0  0  0  0
   34.1956    3.0017   25.5837 H   0  0  0  0  0  0
   35.4550    4.4067   27.1685 H   0  0  0  0  0  0
   38.2999    7.6845   25.4834 H   0  0  0  0  0  0
   38.6781    8.3912   23.9125 H   0  0  0  0  0  0
   37.0661    8.0250   24.2723 H   0  0  0  0  0  0
   41.8764    8.8250   20.2222 H   0  0  0  0  0  0
   41.6778    7.6250   18.9865 H   0  0  0  0  0  0
   41.0008    9.2250   18.7397 H   0  0  0  0  0  0
   34.1887    2.0270   21.1836 H   0  0  0  0  0  0
   34.7049    3.7088   21.1674 H   0  0  0  0  0  0
   35.8767    2.4098   21.4926 H   0  0  0  0  0  0
  1 15  1  0  0  0
  2  9  1  0  0  0
  2 27  1  0  0  0
  3 12  2  0  0  0
  4 22  1  0  0  0
  4 28  1  0  0  0
  5 12  1  0  0  0
  5 16  1  0  0  0
  5 29  1  0  0  0
  6 19  1  0  0  0
  6 21  2  0  0  0
  7  9  1  0  0  0
  7 12  1  0  0  0
  7 13  2  0  0  0
  8 10  1  0  0  0
  8 11  1  0  0  0
  8 14  2  0  0  0
  9 11  2  0  0  0
 10 15  1  0  0  0
 10 17  2  0  0  0
 11 30  1  0  0  0
 13 14  1  0  0  0
 13 31  1  0  0  0
 14 32  1  0  0  0
 15 19  2  0  0  0
 16 18  1  0  0  0
 16 26  1  0  0  0
 16 33  1  0  0  0
 17 21  1  0  0  0
 17 34  1  0  0  0
 18 20  2  0  0  0
 18 23  1  0  0  0
 19 35  1  0  0  0
 20 22  1  0  0  0
 20 36  1  0  0  0
 21 37  1  0  0  0
 22 24  2  0  0  0
 23 25  2  0  0  0
 23 38  1  0  0  0
 24 25  1  0  0  0
 24 39  1  0  0  0
 25 40  1  0  0  0
 26 41  1  0  0  0
 26 42  1  0  0  0
 26 43  1  0  0  0
 27 44  1  0  0  0
 27 45  1  0  0  0
 27 46  1  0  0  0
 28 47  1  0  0  0
 28 48  1  0  0  0
 28 49  1  0  0  0
M  END
> <s_m_entry_id>
7595

> <s_m_entry_name>
dock_pv.156

> <s_m_Source_Path>
/home/csk/Desktop/cluster/DUD-E-result/mapk2

> <s_m_Source_File>
dock_pv.maegz

> <i_m_Source_File_Index>
156

> <chembl_id>
CHEMBL1991188

> <chembl_pref_name>
None

> <i_lp_mmshare_version>
53161

> <i_f3d_flags>
0

> <r_lp_tautomer_probability>
1

> <s_lp_Force_Field>
OPLS_2005

> <r_lp_Energy>
24.644861

> <b_lp_Chiralities_Consistent>
1

> <s_lp_Variant>
CHEMBL2208_lig1547-1

> <s_i_glide_gridfile>
glide-grid_3m2w

> <i_i_glide_lignum>
2162

> <i_i_glide_rotatable_bonds>
7

> <r_i_docking_score>
-7.13010688466401

> <r_i_glide_ligand_efficiency>
-0.254646674452286

> <r_i_glide_ligand_efficiency_sa>
-0.77325728250774

> <r_i_glide_ligand_efficiency_ln>
-1.64583801801537

> <r_i_glide_gscore>
-7.13010688466401

> <r_i_glide_lipo>
-2.75437620376803

> <r_i_glide_hbond>
-0.32

> <r_i_glide_metal>
0

> <r_i_glide_rewards>
-2.05384630706177

> <r_i_glide_evdw>
-41.6248893737793

> <r_i_glide_ecoul>
-3.47394204139709

> <r_i_glide_erotb>
0.670297718318091

> <r_i_glide_esite>
-0.0698463172537742

> <r_i_glide_emodel>
-59.2950562273849

> <r_i_glide_energy>
-45.0988314151764

> <r_i_glide_einternal>
9.97332286834717

> <i_i_glide_confnum>
119

> <i_i_glide_posenum>
400

> <r_i_glide_eff_state_penalty>
0

> <s_user_duplicate_titles>
CHEMBL2208_lig1547

> <s_m_subgroup_title>
dock_pv

> <s_m_subgroupid>
dock_pv

> <b_m_subgroup_collapsed>
1

$$$$
CHEMBL2208_lig216
                    3D
 Schrodinger Suite 2021-1.
 40 43  0  0  1  0            999 V2000
   39.2314    6.1228   13.8727 C   0  0  0  0  0  0
   38.1354    5.6250   14.5928 C   0  0  0  0  0  0
   38.0364    5.8454   15.9767 C   0  0  0  0  0  0
   40.2468    6.8463   14.4850 C   0  0  0  0  0  0
   37.0860    4.8214   13.8654 C   0  0  0  0  0  0
   37.0780    4.8250   12.6327 O   0  0  0  0  0  0
   36.2779    4.0754   14.6603 N   0  0  0  0  0  0
   35.2831    3.1264   14.3564 C   0  0  0  0  0  0
   40.1687    7.0696   15.8618 C   0  0  0  0  0  0
   39.0628    6.5568   16.5942 C   0  0  0  0  0  0
   40.9982    7.7332   16.8011 C   0  0  0  0  0  0
   40.3837    7.6774   18.0333 C   0  0  0  0  0  0
   39.2585    6.8867   17.9230 N   0  0  0  0  0  0
   38.4960    6.4261   19.0774 C   0  0  0  0  0  0
   38.5747    7.5032   20.1936 C   0  0  2  0  0  0
   39.9278    8.0826   20.2864 N   0  0  0  0  0  0
   40.8233    8.2318   19.2821 C   0  0  0  0  0  0
   41.8780    8.8250   19.4720 O   0  0  0  0  0  0
   34.8051    2.8250   13.0720 C   0  0  0  0  0  0
   33.7910    1.8786   12.9120 C   0  0  0  0  0  0
   33.2946    1.2340   14.0444 C   0  0  0  0  0  0
   33.7505    1.4906   15.2951 N   0  0  0  0  0  0
   34.7256    2.4250   15.4332 C   0  0  0  0  0  0
   38.0826    6.9476   21.5378 C   0  0  0  0  0  0
   39.3121    5.9540   12.8076 H   0  0  0  0  0  0
   37.2067    5.4825   16.5644 H   0  0  0  0  0  0
   41.0780    7.2231   13.9064 H   0  0  0  0  0  0
   36.4431    4.1785   15.6476 H   0  0  0  0  0  0
   41.9324    8.2372   16.6132 H   0  0  0  0  0  0
   38.9449    5.4929   19.4236 H   0  0  0  0  0  0
   37.4618    6.2197   18.8007 H   0  0  0  0  0  0
   37.9116    8.3288   19.9261 H   0  0  0  0  0  0
   40.2171    8.4077   21.1967 H   0  0  0  0  0  0
   35.1990    3.3211   12.1983 H   0  0  0  0  0  0
   33.4077    1.6463   11.9294 H   0  0  0  0  0  0
   32.5123    0.4939   13.9612 H   0  0  0  0  0  0
   35.0465    2.6130   16.4477 H   0  0  0  0  0  0
   37.0980    6.4901   21.4354 H   0  0  0  0  0  0
   38.7509    6.1732   21.9194 H   0  0  0  0  0  0
   37.9938    7.7325   22.2898 H   0  0  0  0  0  0
  1  2  2  0  0  0
  1  4  1  0  0  0
  1 25  1  0  0  0
  2  5  1  0  0  0
  2  3  1  0  0  0
  3 10  2  0  0  0
  3 26  1  0  0  0
  4  9  2  0  0  0
  4 27  1  0  0  0
  5  6  2  0  0  0
  5  7  1  0  0  0
  7  8  1  0  0  0
  7 28  1  0  0  0
  8 19  2  0  0  0
  8 23  1  0  0  0
  9 11  1  0  0  0
  9 10  1  0  0  0
 10 13  1  0  0  0
 11 12  2  0  0  0
 11 29  1  0  0  0
 12 13  1  0  0  0
 12 17  1  0  0  0
 13 14  1  0  0  0
 14 15  1  0  0  0
 14 30  1  0  0  0
 14 31  1  0  0  0
 15 16  1  0  0  0
 15 24  1  0  0  0
 15 32  1  0  0  0
 16 17  1  0  0  0
 16 33  1  0  0  0
 17 18  2  0  0  0
 19 20  1  0  0  0
 19 34  1  0  0  0
 20 21  2  0  0  0
 20 35  1  0  0  0
 21 22  1  0  0  0
 21 36  1  0  0  0
 22 23  2  0  0  0
 23 37  1  0  0  0
 24 38  1  0  0  0
 24 39  1  0  0  0
 24 40  1  0  0  0
M  END
> <s_m_entry_id>
7596

> <s_m_entry_name>
dock_pv.157

> <s_m_Source_Path>
/home/csk/Desktop/cluster/DUD-E-result/mapk2

> <s_m_Source_File>
dock_pv.maegz

> <i_m_Source_File_Index>
157

> <chembl_id>
CHEMBL257321

> <chembl_pref_name>
None

> <i_lp_mmshare_version>
53161

> <i_f3d_flags>
0

> <r_lp_tautomer_probability>
1

> <s_lp_Force_Field>
OPLS_2005

> <r_lp_Energy>
26.13496

> <b_lp_Chiralities_Consistent>
1

> <s_lp_Variant>
CHEMBL2208_lig216-1

> <s_i_glide_gridfile>
glide-grid_3m2w

> <i_i_glide_lignum>
340

> <i_i_glide_rotatable_bonds>
3

> <r_i_docking_score>
-7.12914736834548

> <r_i_glide_ligand_efficiency>
-0.297047807014395

> <r_i_glide_ligand_efficiency_sa>
-0.85683414314685

> <r_i_glide_ligand_efficiency_ln>
-1.70633210050139

> <r_i_glide_gscore>
-7.12914736834548

> <r_i_glide_lipo>
-2.68983083121657

> <r_i_glide_hbond>
-0.308779421938521

> <r_i_glide_metal>
0

> <r_i_glide_rewards>
-1.62011345623856

> <r_i_glide_evdw>
-40.0319442749023

> <r_i_glide_ecoul>
-6.36886215209961

> <r_i_glide_erotb>
0.545836948123788

> <r_i_glide_esite>
-0.0993340705155561

> <r_i_glide_emodel>
-66.0181424227527

> <r_i_glide_energy>
-46.400806427002

> <r_i_glide_einternal>
0.391225278377533

> <i_i_glide_confnum>
5

> <i_i_glide_posenum>
269

> <r_i_glide_eff_state_penalty>
0

> <s_user_duplicate_titles>
CHEMBL2208_lig216

> <s_m_subgroup_title>
dock_pv

> <s_m_subgroupid>
dock_pv

> <b_m_subgroup_collapsed>
1

$$$$
CHEMBL2208_lig763 
                    3D
 Schrodinger Suite 2021-1.
 46 49  0  0  1  0            999 V2000
   35.1056    2.7596   15.2375 C   0  0  0  0  0  0
   35.7040    3.2294   16.4079 C   0  0  0  0  0  0
   36.6039    4.2601   16.4372 N   0  0  0  0  0  0
   35.4780    3.3405   14.0293 C   0  0  0  0  0  0
   36.4616    4.2963   14.0571 N   0  0  0  0  0  0
   37.0226    4.7513   15.2588 C   0  0  0  0  0  0
   38.0416    5.6723   14.8679 C   0  0  0  0  0  0
   37.9844    5.6250   13.4720 C   0  0  0  0  0  0
   37.0780    4.8251   12.9791 N   0  0  0  0  0  0
   38.9808    6.4258   15.6997 C   0  0  0  0  0  0
   40.1678    7.0352   15.2739 C   0  0  0  0  0  0
   41.0779    7.6250   16.6357 S   0  0  0  0  0  0
   39.8004    7.2736   17.7284 C   0  0  0  0  0  0
   38.7574    6.6299   17.0610 C   0  0  0  0  0  0
   39.8851    7.6367   19.1181 C   0  0  0  0  0  0
   40.7071    8.4250   19.5928 O   0  0  0  0  0  0
   38.9992    6.9316   19.8161 N   0  0  0  0  0  0
   38.7212    6.8447   21.2402 C   0  0  1  0  0  0
   40.7196    7.2109   13.8863 C   0  0  0  0  0  0
   37.6323    7.8386   21.7130 C   0  0  0  0  0  0
   36.2780    7.4807   21.0720 C   0  0  0  0  0  0
   35.8675    6.0247   21.3840 C   0  0  0  0  0  0
   36.9400    5.0134   20.9730 C   0  0  0  0  0  0
   38.3235    5.3738   21.5557 C   0  0  1  0  0  0
   39.3034    4.4250   21.0720 N   0  0  0  0  0  0
   33.9459    1.4838   15.2818 Cl  0  0  0  0  0  0
   37.9467    9.0952   21.3918 F   0  0  0  0  0  0
   37.5180    7.7791   23.0411 F   0  0  0  0  0  0
   35.4241    2.8170   17.3670 H   0  0  0  0  0  0
   35.1142    3.0260   13.0625 H   0  0  0  0  0  0
   38.6203    6.1453   12.7798 H   0  0  0  0  0  0
   37.8558    6.2941   17.5515 H   0  0  0  0  0  0
   38.4702    6.2599   19.2832 H   0  0  0  0  0  0
   39.6438    7.0783   21.7752 H   0  0  0  0  0  0
   39.9930    7.6249   13.2040 H   0  0  0  0  0  0
   41.5527    7.9124   13.8659 H   0  0  0  0  0  0
   41.0766    6.2688   13.4704 H   0  0  0  0  0  0
   35.5143    8.1710   21.4237 H   0  0  0  0  0  0
   36.3307    7.6224   19.9918 H   0  0  0  0  0  0
   35.6846    5.9146   22.4527 H   0  0  0  0  0  0
   34.9285    5.7799   20.8883 H   0  0  0  0  0  0
   36.6420    4.0114   21.2873 H   0  0  0  0  0  0
   36.9846    5.0044   19.8823 H   0  0  0  0  0  0
   38.2732    5.2812   22.6427 H   0  0  0  0  0  0
   40.1593    4.5747   21.6006 H   0  0  0  0  0  0
   39.0241    3.4725   21.3020 H   0  0  0  0  0  0
  1  2  1  0  0  0
  1  4  2  0  0  0
  1 26  1  0  0  0
  2  3  2  0  0  0
  2 29  1  0  0  0
  3  6  1  0  0  0
  4  5  1  0  0  0
  4 30  1  0  0  0
  5  6  1  0  0  0
  5  9  1  0  0  0
  6  7  2  0  0  0
  7  8  1  0  0  0
  7 10  1  0  0  0
  8  9  2  0  0  0
  8 31  1  0  0  0
 10 11  2  0  0  0
 10 14  1  0  0  0
 11 12  1  0  0  0
 11 19  1  0  0  0
 12 13  1  0  0  0
 13 14  2  0  0  0
 13 15  1  0  0  0
 14 32  1  0  0  0
 15 16  2  0  0  0
 15 17  1  0  0  0
 17 18  1  0  0  0
 17 33  1  0  0  0
 18 20  1  0  0  0
 18 24  1  0  0  0
 18 34  1  0  0  0
 19 35  1  0  0  0
 19 36  1  0  0  0
 19 37  1  0  0  0
 20 21  1  0  0  0
 20 27  1  0  0  0
 20 28  1  0  0  0
 21 22  1  0  0  0
 21 38  1  0  0  0
 21 39  1  0  0  0
 22 23  1  0  0  0
 22 40  1  0  0  0
 22 41  1  0  0  0
 23 24  1  0  0  0
 23 42  1  0  0  0
 23 43  1  0  0  0
 24 25  1  0  0  0
 24 44  1  0  0  0
 25 45  1  0  0  0
 25 46  1  0  0  0
M  END
> <s_m_entry_id>
7597

> <s_m_entry_name>
dock_pv.158

> <s_m_Source_Path>
/home/csk/Desktop/cluster/DUD-E-result/mapk2

> <s_m_Source_File>
dock_pv.maegz

> <i_m_Source_File_Index>
158

> <chembl_id>
CHEMBL4552628

> <chembl_pref_name>
None

> <i_lp_mmshare_version>
53161

> <i_f3d_flags>
0

> <r_lp_tautomer_probability>
1

> <s_lp_Force_Field>
OPLS_2005

> <r_lp_Energy>
23.554812

> <b_lp_Chiralities_Consistent>
1

> <s_lp_Variant>
CHEMBL2208_lig763 -1

> <s_i_glide_gridfile>
glide-grid_3m2w

> <i_i_glide_lignum>
974

> <i_i_glide_rotatable_bonds>
4

> <r_i_docking_score>
-7.12664758661282

> <r_i_glide_ligand_efficiency>
-0.254523128093315

> <r_i_glide_ligand_efficiency_sa>
-0.772882122996989

> <r_i_glide_ligand_efficiency_ln>
-1.64503951045575

> <r_i_glide_gscore>
-7.12664758661282

> <r_i_glide_lipo>
-2.49710140240578

> <r_i_glide_hbond>
-0.604934719844308

> <r_i_glide_metal>
0

> <r_i_glide_rewards>
-1.1105269660357

> <r_i_glide_evdw>
-37.5064888000488

> <r_i_glide_ecoul>
-9.74764347076416

> <r_i_glide_erotb>
0.437567371652079

> <r_i_glide_esite>
-0.0141809093620372

> <r_i_glide_emodel>
-64.7766986122766

> <r_i_glide_energy>
-47.254132270813

> <r_i_glide_einternal>
2.29871702194214

> <i_i_glide_confnum>
2

> <i_i_glide_posenum>
3

> <r_i_glide_eff_state_penalty>
0

> <s_user_duplicate_titles>
CHEMBL2208_lig763 

> <s_m_subgroup_title>
dock_pv

> <s_m_subgroupid>
dock_pv

> <b_m_subgroup_collapsed>
1

$$$$
CHEMBL2208_lig317
                    3D
 Schrodinger Suite 2021-1.
 47 49  0  0  1  0            999 V2000
   40.8471    7.4221   16.2938 C   0  0  0  0  0  0
   40.2724    7.0200   15.1535 N   0  0  0  0  0  0
   39.0729    6.3886   15.2386 C   0  0  0  0  0  0
   40.4120    7.2905   17.5558 N   0  0  0  0  0  0
   39.2194    6.6457   17.6064 C   0  0  0  0  0  0
   38.4995    6.1874   16.5169 C   0  0  0  0  0  0
   37.3415    5.6253   16.9017 N   0  0  0  0  0  0
   37.3556    5.7240   18.2090 C   0  0  0  0  0  0
   38.4702    6.3071   18.6989 N   0  0  0  0  0  0
   38.4749    5.9787   14.0530 N   0  0  0  0  0  0
   38.7793    6.6667   20.1387 C   0  0  2  0  0  0
   38.7533    5.5336   20.9398 O   0  0  0  0  0  0
   38.5433    5.8922   22.2969 C   0  0  1  0  0  0
   37.7784    7.2216   22.2517 C   0  0  2  0  0  0
   37.8146    7.6643   20.7774 C   0  0  1  0  0  0
   38.2772    8.9739   20.5152 O   0  0  0  0  0  0
   38.2778    8.1879   23.1744 O   0  0  0  0  0  0
   37.8884    4.7100   23.0394 C   0  0  0  0  0  0
   36.9198    4.0108   22.2718 O   0  0  0  0  0  0
   35.3890    4.5170   22.0582 P   0  0  1  0  0  0
   34.6380    3.1494   21.6732 O   0  0  0  0  0  0
   34.8649    4.8250   23.5579 O   0  0  0  0  0  0
   35.1843    5.6244   21.0856 O   0  0  0  0  0  0
   33.1071    2.5220   21.3462 P   0  0  1  0  0  0
   33.2206    2.1337   19.7012 O   0  0  0  0  0  0
   33.0778    1.0218   22.1459 O   0  0  0  0  0  0
   31.9640    3.4509   21.6854 O   0  0  0  0  0  0
   34.3870    2.0663   18.5908 P   0  0  0  0  0  0
   34.6761    3.6252   18.2726 O   0  0  0  0  0  0
   34.0977    1.2112   17.4099 O   0  0  0  0  0  0
   35.6713    1.6251   19.4719 O   0  0  0  0  0  0
   41.7993    7.9195   16.1830 H   0  0  0  0  0  0
   36.5773    5.3813   18.8770 H   0  0  0  0  0  0
   37.6257    5.4335   14.0959 H   0  0  0  0  0  0
   38.9635    6.1575   13.1903 H   0  0  0  0  0  0
   39.8079    7.0363   20.1665 H   0  0  0  0  0  0
   39.5134    6.0806   22.7489 H   0  0  0  0  0  0
   36.7360    7.0593   22.5232 H   0  0  0  0  0  0
   36.8263    7.5264   20.3363 H   0  0  0  0  0  0
   37.6843    9.5822   20.9642 H   0  0  0  0  0  0
   39.1892    7.9751   23.4359 H   0  0  0  0  0  0
   37.4971    5.0135   24.0112 H   0  0  0  0  0  0
   38.6710    3.9769   23.2462 H   0  0  0  0  0  0
   34.6291    5.7745   23.6958 H   0  0  0  0  0  0
   33.7932    0.3680   21.9440 H   0  0  0  0  0  0
   34.2806    3.9760   17.4432 H   0  0  0  0  0  0
   35.5020    0.8907   20.1137 H   0  0  0  0  0  0
  1  2  2  0  0  0
  1  4  1  0  0  0
  1 32  1  0  0  0
  2  3  1  0  0  0
  3  6  2  0  0  0
  3 10  1  0  0  0
  4  5  2  0  0  0
  5  6  1  0  0  0
  5  9  1  0  0  0
  6  7  1  0  0  0
  7  8  2  0  0  0
  8  9  1  0  0  0
  8 33  1  0  0  0
  9 11  1  0  0  0
 10 34  1  0  0  0
 10 35  1  0  0  0
 11 12  1  0  0  0
 11 15  1  0  0  0
 11 36  1  0  0  0
 12 13  1  0  0  0
 13 14  1  0  0  0
 13 18  1  0  0  0
 13 37  1  0  0  0
 14 15  1  0  0  0
 14 17  1  0  0  0
 14 38  1  0  0  0
 15 16  1  0  0  0
 15 39  1  0  0  0
 16 40  1  0  0  0
 17 41  1  0  0  0
 18 19  1  0  0  0
 18 42  1  0  0  0
 18 43  1  0  0  0
 19 20  1  0  0  0
 20 21  1  0  0  0
 20 22  1  0  0  0
 20 23  2  0  0  0
 21 24  1  0  0  0
 22 44  1  0  0  0
 24 25  1  0  0  0
 24 26  1  0  0  0
 24 27  2  0  0  0
 25 28  1  0  0  0
 26 45  1  0  0  0
 28 29  1  0  0  0
 28 30  2  0  0  0
 28 31  1  0  0  0
 29 46  1  0  0  0
 31 47  1  0  0  0
M  END
> <s_m_entry_id>
7598

> <s_m_entry_name>
dock_pv.159

> <s_m_Source_Path>
/home/csk/Desktop/cluster/DUD-E-result/mapk2

> <s_m_Source_File>
dock_pv.maegz

> <i_m_Source_File_Index>
159

> <chembl_id>
CHEMBL14249

> <chembl_pref_name>
ADENOSINE TRIPHOSPHATE

> <i_lp_mmshare_version>
53161

> <i_f3d_flags>
0

> <r_lp_tautomer_probability>
0.999997216410988

> <s_lp_Force_Field>
OPLS_2005

> <r_lp_Energy>
24.776731

> <b_lp_Chiralities_Consistent>
1

> <s_lp_Variant>
CHEMBL2208_lig317-4

> <s_i_glide_gridfile>
glide-grid_3m2w

> <i_i_glide_lignum>
460

> <i_i_glide_rotatable_bonds>
14

> <r_i_docking_score>
-7.12474115235518

> <r_i_glide_ligand_efficiency>
-0.229830359753393

> <r_i_glide_ligand_efficiency_sa>
-0.721984644635034

> <r_i_glide_ligand_efficiency_ln>
-1.60684747694992

> <r_i_glide_gscore>
-7.12474115235518

> <r_i_glide_lipo>
-0.517267905038168

> <r_i_glide_hbond>
-0.247800713063532

> <r_i_glide_metal>
0

> <r_i_glide_rewards>
-1.04953095816369

> <r_i_glide_evdw>
-37.4721908569336

> <r_i_glide_ecoul>
-31.4004955291748

> <r_i_glide_erotb>
0.636465534809362

> <r_i_glide_esite>
-0.0729975680524786

> <r_i_glide_emodel>
-97.4796654110318

> <r_i_glide_energy>
-68.8726863861084

> <r_i_glide_einternal>
13.2666893005371

> <i_i_glide_confnum>
97

> <i_i_glide_posenum>
242

> <r_i_glide_eff_state_penalty>
0

> <s_user_duplicate_titles>
CHEMBL2208_lig317

> <s_m_subgroup_title>
dock_pv

> <s_m_subgroupid>
dock_pv

> <b_m_subgroup_collapsed>
1

$$$$
CHEMBL2208_lig55
                    3D
 Schrodinger Suite 2021-1.
 37 39  0  0  1  0            999 V2000
   36.6723    4.7029   20.8929 C   0  0  0  0  0  0
   36.3111    4.6824   19.5194 C   0  0  0  0  0  0
   37.0764    5.3998   18.5738 C   0  0  0  0  0  0
   37.8348    5.3926   21.2926 C   0  0  0  0  0  0
   38.1740    6.1440   19.0343 C   0  0  0  0  0  0
   38.5797    6.0999   20.3593 C   0  0  0  0  0  0
   38.9204    6.9532   18.2042 O   0  0  0  0  0  0
   38.9264    6.7145   16.8502 C   0  0  0  0  0  0
   37.9225    5.9556   16.2329 C   0  0  0  0  0  0
   36.7490    5.4535   17.0727 C   0  0  0  0  0  0
   35.8264    4.0679   21.9137 C   0  0  0  0  0  0
   39.9896    7.2453   16.1221 C   0  0  0  0  0  0
   35.1602    3.5728   22.7197 N   0  0  0  0  0  0
   40.0590    7.0378   14.7464 C   0  0  0  0  0  0
   38.0184    5.7379   14.8526 C   0  0  0  0  0  0
   39.0833    6.2601   14.1121 C   0  0  0  0  0  0
   35.1482    4.0253   19.0587 N   0  0  0  0  0  0
   38.2778    5.4404   22.6182 N   0  0  0  0  0  0
   41.0777    7.6250   14.0397 O   0  0  0  0  0  0
   39.1457    6.0148   12.7641 O   0  0  0  0  0  0
   35.0528    2.5742   19.1899 C   0  0  0  0  0  0
   35.3309    1.8475   17.8718 C   0  0  0  0  0  0
   39.4551    6.6534   20.6666 H   0  0  0  0  0  0
   36.4571    4.4655   16.7160 H   0  0  0  0  0  0
   35.8915    6.1087   16.9169 H   0  0  0  0  0  0
   40.7448    7.8352   16.6194 H   0  0  0  0  0  0
   37.2593    5.1563   14.3488 H   0  0  0  0  0  0
   34.7909    4.3605   18.1733 H   0  0  0  0  0  0
   39.2536    5.6589   22.7926 H   0  0  0  0  0  0
   37.8055    4.8448   23.2824 H   0  0  0  0  0  0
   41.2967    7.1995   13.2072 H   0  0  0  0  0  0
   39.8963    6.4248   12.3232 H   0  0  0  0  0  0
   34.0410    2.3337   19.5175 H   0  0  0  0  0  0
   35.7141    2.1923   19.9688 H   0  0  0  0  0  0
   35.3284    0.7679   18.0190 H   0  0  0  0  0  0
   36.2954    2.1238   17.4555 H   0  0  0  0  0  0
   34.5678    2.0816   17.1302 H   0  0  0  0  0  0
  1  2  2  0  0  0
  1  4  1  0  0  0
  1 11  1  0  0  0
  2  3  1  0  0  0
  2 17  1  0  0  0
  3 10  1  0  0  0
  3  5  2  0  0  0
  4  6  2  0  0  0
  4 18  1  0  0  0
  5  6  1  0  0  0
  5  7  1  0  0  0
  6 23  1  0  0  0
  7  8  1  0  0  0
  8 12  2  0  0  0
  8  9  1  0  0  0
  9 10  1  0  0  0
  9 15  2  0  0  0
 10 24  1  0  0  0
 10 25  1  0  0  0
 11 13  3  0  0  0
 12 14  1  0  0  0
 12 26  1  0  0  0
 14 19  1  0  0  0
 14 16  2  0  0  0
 15 16  1  0  0  0
 15 27  1  0  0  0
 16 20  1  0  0  0
 17 21  1  0  0  0
 17 28  1  0  0  0
 18 29  1  0  0  0
 18 30  1  0  0  0
 19 31  1  0  0  0
 20 32  1  0  0  0
 21 22  1  0  0  0
 21 33  1  0  0  0
 21 34  1  0  0  0
 22 35  1  0  0  0
 22 36  1  0  0  0
 22 37  1  0  0  0
M  END
> <s_m_entry_id>
7599

> <s_m_entry_name>
dock_pv.160

> <s_m_Source_Path>
/home/csk/Desktop/cluster/DUD-E-result/mapk2

> <s_m_Source_File>
dock_pv.maegz

> <i_m_Source_File_Index>
160

> <chembl_id>
CHEMBL3706769

> <chembl_pref_name>
None

> <i_lp_mmshare_version>
53161

> <i_f3d_flags>
0

> <r_lp_tautomer_probability>
0.999999724415991

> <s_lp_Force_Field>
OPLS_2005

> <r_lp_Energy>
30.794202

> <b_lp_Chiralities_Consistent>
1

> <s_lp_Variant>
CHEMBL2208_lig55-1

> <s_i_glide_gridfile>
glide-grid_3m2w

> <i_i_glide_lignum>
61

> <i_i_glide_rotatable_bonds>
4

> <r_i_docking_score>
-7.12327203783812

> <r_i_glide_ligand_efficiency>
-0.323785092629005

> <r_i_glide_ligand_efficiency_sa>
-0.907258563291579

> <r_i_glide_ligand_efficiency_ln>
-1.74118751370831

> <r_i_glide_gscore>
-7.12327203783812

> <r_i_glide_lipo>
-1.97133239813285

> <r_i_glide_hbond>
-0.341242096345657

> <r_i_glide_metal>
0

> <r_i_glide_rewards>
-1.9543027787856

> <r_i_glide_evdw>
-33.3635673522949

> <r_i_glide_ecoul>
-8.84878635406494

> <r_i_glide_erotb>
0.20741045621564

> <r_i_glide_esite>
-0.0683089000651638

> <r_i_glide_emodel>
-57.7748880415066

> <r_i_glide_energy>
-42.2123537063599

> <r_i_glide_einternal>
3.8900089263916

> <i_i_glide_confnum>
3

> <i_i_glide_posenum>
191

> <r_i_glide_eff_state_penalty>
0

> <s_user_duplicate_titles>
CHEMBL2208_lig55

> <s_m_subgroup_title>
dock_pv

> <s_m_subgroupid>
dock_pv

> <b_m_subgroup_collapsed>
1

$$$$
CHEMBL2208_lig205
                    3D
 Schrodinger Suite 2021-1.
 44 47  0  0  1  0            999 V2000
   38.5576    6.1585   14.2007 C   0  0  0  0  0  0
   37.6225    5.4433   14.9626 C   0  0  0  0  0  0
   37.5939    5.5973   16.3564 C   0  0  0  0  0  0
   39.4711    7.0374   14.7797 C   0  0  0  0  0  0
   36.6905    4.4712   14.2717 C   0  0  0  0  0  0
   36.6780    4.4251   13.0414 O   0  0  0  0  0  0
   35.9554    3.6651   15.0721 N   0  0  0  0  0  0
   35.0801    2.6684   14.6795 C   0  0  0  0  0  0
   39.4845    7.1694   16.1723 C   0  0  0  0  0  0
   38.5577    6.4177   16.9408 C   0  0  0  0  0  0
   40.2715    7.9098   17.1030 C   0  0  0  0  0  0
   39.8305    7.6051   18.3805 C   0  0  0  0  0  0
   38.8734    6.6183   18.2681 N   0  0  0  0  0  0
   38.4030    5.8471   19.4066 C   0  0  0  0  0  0
   38.3241    6.7830   20.6433 C   0  0  2  0  0  0
   39.5047    7.6850   20.6909 N   0  0  0  0  0  0
   40.3289    8.0250   19.6660 C   0  0  0  0  0  0
   41.3420    8.6862   19.8720 O   0  0  0  0  0  0
   34.6264    2.4249   13.4721 N   0  0  0  0  0  0
   33.8184    1.3814   13.4631 C   0  0  0  0  0  0
   33.6017    0.7559   14.6875 C   0  0  0  0  0  0
   34.5113    1.5894   15.9119 S   0  0  0  0  0  0
   38.1125    6.0016   21.9735 C   0  0  0  0  0  0
   37.2968    4.7794   21.9232 N   0  0  0  0  0  0
   36.0206    4.6803   21.5212 C   0  0  0  0  0  0
   35.3615    5.6250   21.0875 O   0  0  0  0  0  0
   35.4054    3.2877   21.5991 C   0  0  0  0  0  0
   38.5915    6.0252   13.1279 H   0  0  0  0  0  0
   36.8961    5.0607   16.9811 H   0  0  0  0  0  0
   40.1784    7.5762   14.1671 H   0  0  0  0  0  0
   36.0702    3.7700   16.0663 H   0  0  0  0  0  0
   41.0777    8.5905   16.8816 H   0  0  0  0  0  0
   39.1197    5.0438   19.5936 H   0  0  0  0  0  0
   37.4362    5.3980   19.1853 H   0  0  0  0  0  0
   37.4500    7.4246   20.5114 H   0  0  0  0  0  0
   39.7789    8.0249   21.6026 H   0  0  0  0  0  0
   33.3783    1.0810   12.5236 H   0  0  0  0  0  0
   32.9835   -0.0977   14.9225 H   0  0  0  0  0  0
   37.7176    6.6677   22.7431 H   0  0  0  0  0  0
   39.0819    5.6747   22.3456 H   0  0  0  0  0  0
   37.7576    3.9298   22.2243 H   0  0  0  0  0  0
   35.9475    2.5892   20.9591 H   0  0  0  0  0  0
   35.4369    2.9101   22.6221 H   0  0  0  0  0  0
   34.3644    3.3051   21.2774 H   0  0  0  0  0  0
  1  2  2  0  0  0
  1  4  1  0  0  0
  1 28  1  0  0  0
  2  3  1  0  0  0
  2  5  1  0  0  0
  3 10  2  0  0  0
  3 29  1  0  0  0
  4  9  2  0  0  0
  4 30  1  0  0  0
  5  6  2  0  0  0
  5  7  1  0  0  0
  7  8  1  0  0  0
  7 31  1  0  0  0
  8 19  2  0  0  0
  8 22  1  0  0  0
  9 10  1  0  0  0
  9 11  1  0  0  0
 10 13  1  0  0  0
 11 12  2  0  0  0
 11 32  1  0  0  0
 12 17  1  0  0  0
 12 13  1  0  0  0
 13 14  1  0  0  0
 14 15  1  0  0  0
 14 33  1  0  0  0
 14 34  1  0  0  0
 15 16  1  0  0  0
 15 23  1  0  0  0
 15 35  1  0  0  0
 16 17  1  0  0  0
 16 36  1  0  0  0
 17 18  2  0  0  0
 19 20  1  0  0  0
 20 21  2  0  0  0
 20 37  1  0  0  0
 21 22  1  0  0  0
 21 38  1  0  0  0
 23 24  1  0  0  0
 23 39  1  0  0  0
 23 40  1  0  0  0
 24 25  1  0  0  0
 24 41  1  0  0  0
 25 26  2  0  0  0
 25 27  1  0  0  0
 27 42  1  0  0  0
 27 43  1  0  0  0
 27 44  1  0  0  0
M  END
> <s_m_entry_id>
7601

> <s_m_entry_name>
dock_pv.162

> <s_m_Source_Path>
/home/csk/Desktop/cluster/DUD-E-result/mapk2

> <s_m_Source_File>
dock_pv.maegz

> <i_m_Source_File_Index>
162

> <chembl_id>
CHEMBL436652

> <chembl_pref_name>
None

> <i_lp_mmshare_version>
53161

> <i_f3d_flags>
0

> <r_lp_tautomer_probability>
0.999000488399163

> <s_lp_Force_Field>
OPLS_2005

> <r_lp_Energy>
24.195717

> <b_lp_Chiralities_Consistent>
1

> <s_lp_Variant>
CHEMBL2208_lig205-1

> <s_i_glide_gridfile>
glide-grid_3m2w

> <i_i_glide_lignum>
321

> <i_i_glide_rotatable_bonds>
6

> <r_i_docking_score>
-7.1180919440057

> <r_i_glide_ligand_efficiency>
-0.263633034963174

> <r_i_glide_ligand_efficiency_sa>
-0.790899104020631

> <r_i_glide_ligand_efficiency_ln>
-1.65697445364736

> <r_i_glide_gscore>
-7.1180919440057

> <r_i_glide_lipo>
-2.37444210279233

> <r_i_glide_hbond>
-0.300959755352689

> <r_i_glide_metal>
0

> <r_i_glide_rewards>
-1.27932030781703

> <r_i_glide_evdw>
-42.9919395446777

> <r_i_glide_ecoul>
-10.3446645736694

> <r_i_glide_erotb>
0.660885141508508

> <r_i_glide_esite>
-0.122958256267856

> <r_i_glide_emodel>
-71.8302686242294

> <r_i_glide_energy>
-53.3366041183472

> <r_i_glide_einternal>
9.35165691375732

> <i_i_glide_confnum>
22

> <i_i_glide_posenum>
368

> <r_i_glide_eff_state_penalty>
0

> <s_user_duplicate_titles>
CHEMBL2208_lig205

> <s_m_subgroup_title>
dock_pv

> <s_m_subgroupid>
dock_pv

> <b_m_subgroup_collapsed>
1

$$$$
CHEMBL2208_lig1234
                    3D
 Schrodinger Suite 2021-1.
 34 37  0  0  1  0            999 V2000
   39.3507    7.1261   20.4438 C   0  0  0  0  0  0
   39.1284    5.7939   20.6864 N   0  0  0  0  0  0
   38.8718    7.9213   21.3644 N   0  0  0  0  0  0
   39.9449    6.9739   15.7162 C   0  0  0  0  0  0
   40.0125    6.6302   13.4723 N   0  0  0  0  0  0
   40.6300    7.2254   14.5416 C   0  0  0  0  0  0
   38.4045    5.7142   21.8507 C   0  0  0  0  0  0
   38.2784    7.0680   22.2628 C   0  0  0  0  0  0
   38.7850    6.2065   15.3114 C   0  0  0  0  0  0
   39.5657    7.2067   18.0434 N   0  0  0  0  0  0
   38.8492    6.0260   13.8931 C   0  0  0  0  0  0
   40.0309    7.5285   19.3213 N   0  0  0  0  0  0
   40.3342    7.4042   17.0557 C   0  0  0  0  0  0
   37.6894    5.6514   16.0004 C   0  0  0  0  0  0
   37.8625    4.6526   22.5802 C   0  0  0  0  0  0
   37.6067    7.3637   23.4562 C   0  0  0  0  0  0
   37.8521    5.3550   13.1775 C   0  0  0  0  0  0
   36.7114    4.9616   15.2915 C   0  0  0  0  0  0
   37.2003    4.9830   23.7642 C   0  0  0  0  0  0
   37.0786    6.3031   24.1969 C   0  0  0  0  0  0
   36.7919    4.8246   13.9110 C   0  0  0  0  0  0
   39.4584    5.0588   20.0801 H   0  0  0  0  0  0
   40.3842    6.6872   12.5294 H   0  0  0  0  0  0
   41.5331    7.7928   14.3749 H   0  0  0  0  0  0
   41.0225    7.7139   19.3595 H   0  0  0  0  0  0
   41.3156    7.8702   17.1147 H   0  0  0  0  0  0
   37.5996    5.7515   17.0719 H   0  0  0  0  0  0
   37.9618    3.6254   22.2615 H   0  0  0  0  0  0
   37.5171    8.3825   23.7993 H   0  0  0  0  0  0
   37.8780    5.2466   12.1053 H   0  0  0  0  0  0
   35.8776    4.5263   15.8236 H   0  0  0  0  0  0
   36.7735    4.1935   24.3654 H   0  0  0  0  0  0
   36.5556    6.5070   25.1195 H   0  0  0  0  0  0
   36.0124    4.2813   13.3956 H   0  0  0  0  0  0
  1  2  1  0  0  0
  1  3  2  0  0  0
  1 12  1  0  0  0
  2  7  1  0  0  0
  2 22  1  0  0  0
  3  8  1  0  0  0
  4 13  1  0  0  0
  4  6  2  0  0  0
  4  9  1  0  0  0
  5  6  1  0  0  0
  5 11  1  0  0  0
  5 23  1  0  0  0
  6 24  1  0  0  0
  7 15  2  0  0  0
  7  8  1  0  0  0
  8 16  2  0  0  0
  9 11  2  0  0  0
  9 14  1  0  0  0
 10 12  1  0  0  0
 10 13  2  3  0  0
 11 17  1  0  0  0
 12 25  1  0  0  0
 13 26  1  0  0  0
 14 18  2  0  0  0
 14 27  1  0  0  0
 15 19  1  0  0  0
 15 28  1  0  0  0
 16 20  1  0  0  0
 16 29  1  0  0  0
 17 21  2  0  0  0
 17 30  1  0  0  0
 18 21  1  0  0  0
 18 31  1  0  0  0
 19 20  2  0  0  0
 19 32  1  0  0  0
 20 33  1  0  0  0
 21 34  1  0  0  0
M  END
> <s_m_entry_id>
7602

> <s_m_entry_name>
dock_pv.163

> <s_m_Source_Path>
/home/csk/Desktop/cluster/DUD-E-result/mapk2

> <s_m_Source_File>
dock_pv.maegz

> <i_m_Source_File_Index>
163

> <chembl_id>
CHEMBL535331

> <chembl_pref_name>
None

> <i_lp_mmshare_version>
53161

> <i_f3d_flags>
0

> <r_lp_tautomer_probability>
1

> <s_lp_Force_Field>
OPLS_2005

> <r_lp_Energy>
12.01718

> <b_lp_Chiralities_Consistent>
1

> <s_lp_Variant>
CHEMBL2208_lig1234-1

> <s_i_glide_gridfile>
glide-grid_3m2w

> <i_i_glide_lignum>
1670

> <i_i_glide_rotatable_bonds>
3

> <r_i_docking_score>
-7.11734359263196

> <r_i_glide_ligand_efficiency>
-0.338921123458665

> <r_i_glide_ligand_efficiency_sa>
-0.935057680447426

> <r_i_glide_ligand_efficiency_ln>
-1.75974882133134

> <r_i_glide_gscore>
-7.11734359263196

> <r_i_glide_lipo>
-1.95227721019021

> <r_i_glide_hbond>
-0.32

> <r_i_glide_metal>
0

> <r_i_glide_rewards>
-2.73645901563685

> <r_i_glide_evdw>
-38.8997688293457

> <r_i_glide_ecoul>
-1.96989512443542

> <r_i_glide_erotb>
0.237115339219974

> <r_i_glide_esite>
-0.105249995892272

> <r_i_glide_emodel>
-58.7642369518043

> <r_i_glide_energy>
-40.8696639537811

> <r_i_glide_einternal>
1.63879799842834

> <i_i_glide_confnum>
1

> <i_i_glide_posenum>
12

> <r_i_glide_eff_state_penalty>
0

> <s_user_duplicate_titles>
CHEMBL2208_lig1234

> <s_m_subgroup_title>
dock_pv

> <s_m_subgroupid>
dock_pv

> <b_m_subgroup_collapsed>
1

$$$$
CHEMBL2208_lig216
                    3D
 Schrodinger Suite 2021-1.
 40 43  0  0  1  0            999 V2000
   39.1864    6.1630   14.0197 C   0  0  0  0  0  0
   38.0721    5.6273   14.6808 C   0  0  0  0  0  0
   37.9223    5.8151   16.0666 C   0  0  0  0  0  0
   40.1690    6.8869   14.6909 C   0  0  0  0  0  0
   37.0565    4.8230   13.9009 C   0  0  0  0  0  0
   37.0811    4.8278   12.6682 O   0  0  0  0  0  0
   36.2176    4.0663   14.6533 N   0  0  0  0  0  0
   35.1992    3.1614   14.2914 C   0  0  0  0  0  0
   40.0522    7.0564   16.0748 C   0  0  0  0  0  0
   38.9309    6.4993   16.7455 C   0  0  0  0  0  0
   40.8298    7.7196   17.0701 C   0  0  0  0  0  0
   40.2248    7.5176   18.2972 C   0  0  0  0  0  0
   39.0726    6.7790   18.0925 N   0  0  0  0  0  0
   38.1331    6.4444   19.1595 C   0  0  0  0  0  0
   38.9213    6.3637   20.4926 C   0  0  1  0  0  0
   39.8385    7.5107   20.6064 N   0  0  0  0  0  0
   40.5866    8.0232   19.6021 C   0  0  0  0  0  0
   41.4783    8.8195   19.8690 O   0  0  0  0  0  0
   34.7792    2.8831   12.9813 C   0  0  0  0  0  0
   33.7108    2.0146   12.7604 C   0  0  0  0  0  0
   33.1123    1.4012   13.8616 C   0  0  0  0  0  0
   33.5174    1.6249   15.1370 N   0  0  0  0  0  0
   34.5408    2.4953   15.3320 C   0  0  0  0  0  0
   37.9802    6.2397   21.6974 C   0  0  0  0  0  0
   39.3059    6.0256   12.9542 H   0  0  0  0  0  0
   37.0752    5.4317   16.6138 H   0  0  0  0  0  0
   41.0100    7.2982   14.1524 H   0  0  0  0  0  0
   36.3458    4.1477   15.6484 H   0  0  0  0  0  0
   41.7377    8.2835   16.9193 H   0  0  0  0  0  0
   37.6369    5.4970   18.9436 H   0  0  0  0  0  0
   37.3701    7.2221   19.2078 H   0  0  0  0  0  0
   39.5497    5.4673   20.4829 H   0  0  0  0  0  0
   40.1382    7.7536   21.5394 H   0  0  0  0  0  0
   35.2496    3.3482   12.1296 H   0  0  0  0  0  0
   33.3680    1.8100   11.7575 H   0  0  0  0  0  0
   32.2880    0.7149   13.7320 H   0  0  0  0  0  0
   34.8095    2.6719   16.3646 H   0  0  0  0  0  0
   37.3004    5.3960   21.5766 H   0  0  0  0  0  0
   38.5402    6.0725   22.6197 H   0  0  0  0  0  0
   37.3617    7.1301   21.8167 H   0  0  0  0  0  0
  1  2  2  0  0  0
  1  4  1  0  0  0
  1 25  1  0  0  0
  2  5  1  0  0  0
  2  3  1  0  0  0
  3 10  2  0  0  0
  3 26  1  0  0  0
  4  9  2  0  0  0
  4 27  1  0  0  0
  5  6  2  0  0  0
  5  7  1  0  0  0
  7  8  1  0  0  0
  7 28  1  0  0  0
  8 19  2  0  0  0
  8 23  1  0  0  0
  9 11  1  0  0  0
  9 10  1  0  0  0
 10 13  1  0  0  0
 11 12  2  0  0  0
 11 29  1  0  0  0
 12 13  1  0  0  0
 12 17  1  0  0  0
 13 14  1  0  0  0
 14 15  1  0  0  0
 14 30  1  0  0  0
 14 31  1  0  0  0
 15 16  1  0  0  0
 15 24  1  0  0  0
 15 32  1  0  0  0
 16 17  1  0  0  0
 16 33  1  0  0  0
 17 18  2  0  0  0
 19 20  1  0  0  0
 19 34  1  0  0  0
 20 21  2  0  0  0
 20 35  1  0  0  0
 21 22  1  0  0  0
 21 36  1  0  0  0
 22 23  2  0  0  0
 23 37  1  0  0  0
 24 38  1  0  0  0
 24 39  1  0  0  0
 24 40  1  0  0  0
M  END
> <s_m_entry_id>
7603

> <s_m_entry_name>
dock_pv.164

> <s_m_Source_Path>
/home/csk/Desktop/cluster/DUD-E-result/mapk2

> <s_m_Source_File>
dock_pv.maegz

> <i_m_Source_File_Index>
164

> <chembl_id>
CHEMBL257321

> <chembl_pref_name>
None

> <i_lp_mmshare_version>
53161

> <i_f3d_flags>
0

> <r_lp_tautomer_probability>
1

> <s_lp_Force_Field>
OPLS_2005

> <r_lp_Energy>
26.134961

> <b_lp_Chiralities_Consistent>
1

> <s_lp_Variant>
CHEMBL2208_lig216-2

> <s_i_glide_gridfile>
glide-grid_3m2w

> <i_i_glide_lignum>
341

> <i_i_glide_rotatable_bonds>
3

> <r_i_docking_score>
-7.11655412457335

> <r_i_glide_ligand_efficiency>
-0.296523088523889

> <r_i_glide_ligand_efficiency_sa>
-0.855320593113525

> <r_i_glide_ligand_efficiency_ln>
-1.70331795940041

> <r_i_glide_gscore>
-7.11655412457335

> <r_i_glide_lipo>
-2.63391386126884

> <r_i_glide_hbond>
-0.246235341206325

> <r_i_glide_metal>
0

> <r_i_glide_rewards>
-1.61081930281281

> <r_i_glide_evdw>
-36.2503471374512

> <r_i_glide_ecoul>
-8.35080528259277

> <r_i_glide_erotb>
0.545836948123788

> <r_i_glide_esite>
-0.106284418147684

> <r_i_glide_emodel>
-63.6709189810994

> <r_i_glide_energy>
-44.6011524200439

> <r_i_glide_einternal>
0.538899838924408

> <i_i_glide_confnum>
5

> <i_i_glide_posenum>
7

> <r_i_glide_eff_state_penalty>
0

> <s_user_duplicate_titles>
CHEMBL2208_lig216

> <s_m_subgroup_title>
dock_pv

> <s_m_subgroupid>
dock_pv

> <b_m_subgroup_collapsed>
1

$$$$
CHEMBL2208_lig655
                    3D
 Schrodinger Suite 2021-1.
 51 55  0  0  1  0            999 V2000
   34.8115    3.4524   23.2968 N   0  0  0  0  0  0
   35.5570    4.0265   24.2689 C   0  0  0  0  0  0
   36.6101    4.9066   24.0121 C   0  0  0  0  0  0
   35.0496    3.7612   21.9983 C   0  0  0  0  0  0
   36.0874    4.6583   21.6441 C   0  0  0  0  0  0
   36.8636    5.2021   22.6864 N   0  0  0  0  0  0
   37.7931    5.9988   22.0483 C   0  0  0  0  0  0
   37.5713    5.8577   20.6733 C   0  0  0  0  0  0
   36.5127    5.1156   20.4422 N   0  0  0  0  0  0
   37.3600    5.5184   25.1626 C   0  0  0  0  0  0
   38.6782    5.6250   25.0370 N   0  0  0  0  0  0
   36.7802    5.8940   26.1782 O   0  0  0  0  0  0
   38.3625    6.3996   19.5197 C   0  0  0  0  0  0
   34.1955    3.1121   21.0848 N   0  0  0  0  0  0
   38.0348    6.0248   18.2086 C   0  0  0  0  0  0
   40.2153    7.7139   18.6625 C   0  0  0  0  0  0
   39.4516    7.2473   19.7312 C   0  0  0  0  0  0
   34.3095    3.2263   19.6283 C   0  0  1  0  0  0
   35.4297    2.2899   19.1149 C   0  0  0  0  0  0
   35.4519    2.2971   17.5768 C   0  0  0  0  0  0
   34.0661    1.9483   16.9930 C   0  0  0  0  0  0
   33.0259    2.8249   17.5354 N   0  0  1  0  0  0
   32.9768    2.7481   18.9990 C   0  0  0  0  0  0
   39.9098    7.3196   17.3354 C   0  0  0  0  0  0
   38.7995    6.4578   17.1048 C   0  0  0  0  0  0
   38.4964    6.0485   15.7808 C   0  0  0  0  0  0
   39.2745    6.4917   14.7149 C   0  0  0  0  0  0
   40.3528    7.3420   14.9372 C   0  0  0  0  0  0
   40.6756    7.7524   16.2287 C   0  0  0  0  0  0
   35.2930    3.7551   25.2825 H   0  0  0  0  0  0
   38.5535    6.5451   22.5839 H   0  0  0  0  0  0
   39.2118    6.1296   25.7307 H   0  0  0  0  0  0
   39.1796    5.2106   24.2597 H   0  0  0  0  0  0
   33.7286    2.2924   21.4486 H   0  0  0  0  0  0
   37.2009    5.3646   18.0177 H   0  0  0  0  0  0
   41.0583    8.3638   18.8412 H   0  0  0  0  0  0
   39.7199    7.5379   20.7362 H   0  0  0  0  0  0
   34.5018    4.2593   19.3370 H   0  0  0  0  0  0
   35.2703    1.2706   19.4707 H   0  0  0  0  0  0
   36.4037    2.5909   19.5006 H   0  0  0  0  0  0
   36.1899    1.5771   17.2217 H   0  0  0  0  0  0
   35.7868    3.2603   17.1893 H   0  0  0  0  0  0
   33.8088    0.9095   17.2083 H   0  0  0  0  0  0
   34.0798    2.0591   15.9076 H   0  0  0  0  0  0
   33.2716    3.7770   17.2545 H   0  0  0  0  0  0
   32.1534    3.3739   19.3469 H   0  0  0  0  0  0
   32.7425    1.7257   19.3053 H   0  0  0  0  0  0
   37.6581    5.3888   15.6049 H   0  0  0  0  0  0
   39.0397    6.1754   13.7088 H   0  0  0  0  0  0
   40.9433    7.6868   14.1004 H   0  0  0  0  0  0
   41.5052    8.4203   16.3977 H   0  0  0  0  0  0
  1  2  1  0  0  0
  1  4  2  0  0  0
  2  3  2  0  0  0
  2 30  1  0  0  0
  3  6  1  0  0  0
  3 10  1  0  0  0
  4  5  1  0  0  0
  4 14  1  0  0  0
  5  6  1  0  0  0
  5  9  2  0  0  0
  6  7  1  0  0  0
  7  8  2  0  0  0
  7 31  1  0  0  0
  8  9  1  0  0  0
  8 13  1  0  0  0
 10 11  1  0  0  0
 10 12  2  0  0  0
 11 32  1  0  0  0
 11 33  1  0  0  0
 13 15  2  0  0  0
 13 17  1  0  0  0
 14 18  1  0  0  0
 14 34  1  0  0  0
 15 25  1  0  0  0
 15 35  1  0  0  0
 16 24  1  0  0  0
 16 17  2  0  0  0
 16 36  1  0  0  0
 17 37  1  0  0  0
 18 19  1  0  0  0
 18 23  1  0  0  0
 18 38  1  0  0  0
 19 20  1  0  0  0
 19 39  1  0  0  0
 19 40  1  0  0  0
 20 21  1  0  0  0
 20 41  1  0  0  0
 20 42  1  0  0  0
 21 22  1  0  0  0
 21 43  1  0  0  0
 21 44  1  0  0  0
 22 23  1  0  0  0
 22 45  1  0  0  0
 23 46  1  0  0  0
 23 47  1  0  0  0
 24 25  1  0  0  0
 24 29  2  0  0  0
 25 26  2  0  0  0
 26 27  1  0  0  0
 26 48  1  0  0  0
 27 28  2  0  0  0
 27 49  1  0  0  0
 28 29  1  0  0  0
 28 50  1  0  0  0
 29 51  1  0  0  0
M  END
> <s_m_entry_id>
7604

> <s_m_entry_name>
dock_pv.165

> <s_m_Source_Path>
/home/csk/Desktop/cluster/DUD-E-result/mapk2

> <s_m_Source_File>
dock_pv.maegz

> <i_m_Source_File_Index>
165

> <chembl_id>
CHEMBL2381604

> <chembl_pref_name>
None

> <i_lp_mmshare_version>
53161

> <i_f3d_flags>
0

> <r_lp_tautomer_probability>
1

> <s_lp_Force_Field>
OPLS_2005

> <r_lp_Energy>
27.132036

> <b_lp_Chiralities_Consistent>
1

> <s_lp_Variant>
CHEMBL2208_lig655-1

> <s_i_glide_gridfile>
glide-grid_3m2w

> <i_i_glide_lignum>
863

> <i_i_glide_rotatable_bonds>
4

> <r_i_docking_score>
-7.11410110627232

> <r_i_glide_ligand_efficiency>
-0.24531383125077

> <r_i_glide_ligand_efficiency_sa>
-0.753681810479242

> <r_i_glide_ligand_efficiency_ln>
-1.62894875529747

> <r_i_glide_gscore>
-7.11410110627232

> <r_i_glide_lipo>
-2.24303789381574

> <r_i_glide_hbond>
-0.608

> <r_i_glide_metal>
0

> <r_i_glide_rewards>
-1.11847495113858

> <r_i_glide_evdw>
-42.354248046875

> <r_i_glide_ecoul>
-8.52987766265869

> <r_i_glide_erotb>
0.390981730991403

> <r_i_glide_esite>
-0.138375940566844

> <r_i_glide_emodel>
-67.8672037652555

> <r_i_glide_energy>
-50.8841257095337

> <r_i_glide_einternal>
11.0920457839966

> <i_i_glide_confnum>
23

> <i_i_glide_posenum>
330

> <r_i_glide_eff_state_penalty>
0

> <s_user_duplicate_titles>
CHEMBL2208_lig655

> <s_m_subgroup_title>
dock_pv

> <s_m_subgroupid>
dock_pv

> <b_m_subgroup_collapsed>
1

$$$$
CHEMBL2208_lig263
                    3D
 Schrodinger Suite 2021-1.
 39 41  0  0  1  0            999 V2000
   39.7828    7.6917   19.6606 C   0  0  0  0  0  0
   39.2226    6.9079   18.4871 C   0  0  0  0  0  0
   38.2329    6.3323   19.2363 C   0  0  0  0  0  0
   38.5484    7.1641   20.4735 C   0  0  0  0  0  0
   38.0648    7.3659   21.5868 O   0  0  0  0  0  0
   40.7501    8.4249   19.8720 O   0  0  0  0  0  0
   37.2485    5.3883   19.0271 N   0  0  0  0  0  0
   39.7512    6.8828   17.2081 N   0  0  0  0  0  0
   39.2097    6.4273   15.9948 C   0  0  0  0  0  0
   40.0526    6.4281   14.8784 C   0  0  0  0  0  0
   39.5491    6.0250   13.6413 C   0  0  0  0  0  0
   38.2653    5.6245   13.4679 N   0  0  0  0  0  0
   37.4511    5.6252   14.5541 C   0  0  0  0  0  0
   37.8780    6.0250   15.8226 C   0  0  0  0  0  0
   37.0206    4.1628   19.7803 C   0  0  1  0  0  0
   36.6276    4.3192   21.2395 C   0  0  0  0  0  0
   35.2848    4.3451   21.6500 C   0  0  0  0  0  0
   34.9557    4.4250   23.0024 C   0  0  0  0  0  0
   35.9629    4.5267   23.9599 C   0  0  0  0  0  0
   37.2979    4.5446   23.5652 C   0  0  0  0  0  0
   37.6276    4.4250   22.2157 C   0  0  0  0  0  0
   36.1152    3.2217   18.9190 C   0  0  0  0  0  0
   35.6680    2.0926   19.4718 N   0  0  0  0  0  0
   35.8785    3.4718   17.7363 O   0  0  0  0  0  0
   38.2791    4.6833   24.5078 O   0  0  0  0  0  0
   37.1117    5.1421   18.0544 H   0  0  0  0  0  0
   40.6591    7.3042   17.0767 H   0  0  0  0  0  0
   41.0793    6.7476   14.9578 H   0  0  0  0  0  0
   40.1801    6.0261   12.7626 H   0  0  0  0  0  0
   36.4291    5.3112   14.3925 H   0  0  0  0  0  0
   37.1627    6.0566   16.6245 H   0  0  0  0  0  0
   37.9474    3.5869   19.7284 H   0  0  0  0  0  0
   34.4882    4.2810   20.9238 H   0  0  0  0  0  0
   33.9206    4.4314   23.3103 H   0  0  0  0  0  0
   35.7072    4.6116   25.0057 H   0  0  0  0  0  0
   38.6684    4.4122   21.9244 H   0  0  0  0  0  0
   35.1004    1.4666   18.9229 H   0  0  0  0  0  0
   35.8802    1.8371   20.4285 H   0  0  0  0  0  0
   39.1686    4.7467   24.1290 H   0  0  0  0  0  0
  1  6  2  0  0  0
  1  4  1  0  0  0
  1  2  1  0  0  0
  2  3  2  0  0  0
  2  8  1  0  0  0
  3  7  1  0  0  0
  3  4  1  0  0  0
  4  5  2  0  0  0
  7 15  1  0  0  0
  7 26  1  0  0  0
  8  9  1  0  0  0
  8 27  1  0  0  0
  9 14  1  0  0  0
  9 10  2  0  0  0
 10 11  1  0  0  0
 10 28  1  0  0  0
 11 12  2  0  0  0
 11 29  1  0  0  0
 12 13  1  0  0  0
 13 14  2  0  0  0
 13 30  1  0  0  0
 14 31  1  0  0  0
 15 16  1  0  0  0
 15 22  1  0  0  0
 15 32  1  0  0  0
 16 17  2  0  0  0
 16 21  1  0  0  0
 17 18  1  0  0  0
 17 33  1  0  0  0
 18 19  2  0  0  0
 18 34  1  0  0  0
 19 20  1  0  0  0
 19 35  1  0  0  0
 20 21  2  0  0  0
 20 25  1  0  0  0
 21 36  1  0  0  0
 22 23  1  0  0  0
 22 24  2  0  0  0
 23 37  1  0  0  0
 23 38  1  0  0  0
 25 39  1  0  0  0
M  END
> <s_m_entry_id>
7605

> <s_m_entry_name>
dock_pv.166

> <s_m_Source_Path>
/home/csk/Desktop/cluster/DUD-E-result/mapk2

> <s_m_Source_File>
dock_pv.maegz

> <i_m_Source_File_Index>
166

> <chembl_id>
CHEMBL511410

> <chembl_pref_name>
None

> <i_lp_mmshare_version>
53161

> <i_f3d_flags>
0

> <r_lp_tautomer_probability>
0.999999999997365

> <s_lp_Force_Field>
OPLS_2005

> <r_lp_Energy>
34.611097

> <b_lp_Chiralities_Consistent>
1

> <s_lp_Variant>
CHEMBL2208_lig263-2

> <s_i_glide_gridfile>
glide-grid_3m2w

> <i_i_glide_lignum>
401

> <i_i_glide_rotatable_bonds>
7

> <r_i_docking_score>
-7.10966152540584

> <r_i_glide_ligand_efficiency>
-0.284386461016234

> <r_i_glide_ligand_efficiency_sa>
-0.831551055626829

> <r_i_glide_ligand_efficiency_ln>
-1.68520284088427

> <r_i_glide_gscore>
-7.10966152540584

> <r_i_glide_lipo>
-1.78837737897256

> <r_i_glide_hbond>
-0.444334886767764

> <r_i_glide_metal>
0

> <r_i_glide_rewards>
-1.9592849010779

> <r_i_glide_evdw>
-43.3613815307617

> <r_i_glide_ecoul>
-10.054012298584

> <r_i_glide_erotb>
0.826081519167806

> <r_i_glide_esite>
-0.0675749564297441

> <r_i_glide_emodel>
-68.7077237909366

> <r_i_glide_energy>
-53.4153938293457

> <r_i_glide_einternal>
15.1064720153809

> <i_i_glide_confnum>
13

> <i_i_glide_posenum>
337

> <r_i_glide_eff_state_penalty>
0

> <s_user_duplicate_titles>
CHEMBL2208_lig263,480931

> <s_m_subgroup_title>
dock_pv

> <s_m_subgroupid>
dock_pv

> <b_m_subgroup_collapsed>
1

$$$$
CHEMBL2208_lig219
                    3D
 Schrodinger Suite 2021-1.
 37 40  0  0  1  0            999 V2000
   39.1867    6.1899   13.8742 C   0  0  0  0  0  0
   38.1160    5.6487   14.6008 C   0  0  0  0  0  0
   38.0255    5.8528   15.9887 C   0  0  0  0  0  0
   40.1742    6.9566   14.4790 C   0  0  0  0  0  0
   37.0823    4.8250   13.8720 C   0  0  0  0  0  0
   37.0780    4.8250   12.6392 O   0  0  0  0  0  0
   36.2766    4.0752   14.6652 N   0  0  0  0  0  0
   35.2834    3.1256   14.3579 C   0  0  0  0  0  0
   40.0988    7.1737   15.8565 C   0  0  0  0  0  0
   39.0285    6.6029   16.6001 C   0  0  0  0  0  0
   40.9058    7.8760   16.7872 C   0  0  0  0  0  0
   40.3265    7.7661   18.0298 C   0  0  0  0  0  0
   39.2376    6.9217   17.9304 N   0  0  0  0  0  0
   38.5329    6.4124   19.1038 C   0  0  0  0  0  0
   38.5571    7.5394   20.1647 C   0  0  0  0  0  0
   39.9210    8.0897   20.3071 N   0  0  0  0  0  0
   40.7976    8.2773   19.2878 C   0  0  0  0  0  0
   41.8780    8.8250   19.4720 O   0  0  0  0  0  0
   34.8084    2.8250   13.0720 C   0  0  0  0  0  0
   33.7939    1.8794   12.9094 C   0  0  0  0  0  0
   33.2941    1.2351   14.0404 C   0  0  0  0  0  0
   33.7467    1.4914   15.2924 N   0  0  0  0  0  0
   34.7222    2.4250   15.4332 C   0  0  0  0  0  0
   39.2658    6.0250   12.8082 H   0  0  0  0  0  0
   37.2203    5.4499   16.5842 H   0  0  0  0  0  0
   40.9833    7.3704   13.8943 H   0  0  0  0  0  0
   36.4373    4.1799   15.6529 H   0  0  0  0  0  0
   41.8137    8.4247   16.5949 H   0  0  0  0  0  0
   39.1003    5.5530   19.4670 H   0  0  0  0  0  0
   37.5168    6.1095   18.8510 H   0  0  0  0  0  0
   38.1892    7.1904   21.1309 H   0  0  0  0  0  0
   37.9159    8.3726   19.8720 H   0  0  0  0  0  0
   40.3437    8.0313   21.2234 H   0  0  0  0  0  0
   35.2044    3.3209   12.1992 H   0  0  0  0  0  0
   33.4130    1.6476   11.9258 H   0  0  0  0  0  0
   32.5114    0.4957   13.9551 H   0  0  0  0  0  0
   35.0399    2.6133   16.4486 H   0  0  0  0  0  0
  1  2  2  0  0  0
  1  4  1  0  0  0
  1 24  1  0  0  0
  2  5  1  0  0  0
  2  3  1  0  0  0
  3 10  2  0  0  0
  3 25  1  0  0  0
  4  9  2  0  0  0
  4 26  1  0  0  0
  5  6  2  0  0  0
  5  7  1  0  0  0
  7  8  1  0  0  0
  7 27  1  0  0  0
  8 19  2  0  0  0
  8 23  1  0  0  0
  9 11  1  0  0  0
  9 10  1  0  0  0
 10 13  1  0  0  0
 11 12  2  0  0  0
 11 28  1  0  0  0
 12 13  1  0  0  0
 12 17  1  0  0  0
 13 14  1  0  0  0
 14 15  1  0  0  0
 14 29  1  0  0  0
 14 30  1  0  0  0
 15 16  1  0  0  0
 15 31  1  0  0  0
 15 32  1  0  0  0
 16 17  1  0  0  0
 16 33  1  0  0  0
 17 18  2  0  0  0
 19 20  1  0  0  0
 19 34  1  0  0  0
 20 21  2  0  0  0
 20 35  1  0  0  0
 21 22  1  0  0  0
 21 36  1  0  0  0
 22 23  2  0  0  0
 23 37  1  0  0  0
M  END
> <s_m_entry_id>
7606

> <s_m_entry_name>
dock_pv.167

> <s_m_Source_Path>
/home/csk/Desktop/cluster/DUD-E-result/mapk2

> <s_m_Source_File>
dock_pv.maegz

> <i_m_Source_File_Index>
167

> <chembl_id>
CHEMBL404908

> <chembl_pref_name>
None

> <i_lp_mmshare_version>
53161

> <i_f3d_flags>
0

> <r_lp_tautomer_probability>
1

> <s_lp_Force_Field>
OPLS_2005

> <r_lp_Energy>
26.60606

> <b_lp_Chiralities_Consistent>
1

> <s_lp_Variant>
CHEMBL2208_lig219-1

> <s_i_glide_gridfile>
glide-grid_3m2w

> <i_i_glide_lignum>
344

> <i_i_glide_rotatable_bonds>
3

> <r_i_docking_score>
-7.1095374788487

> <r_i_glide_ligand_efficiency>
-0.309110325167335

> <r_i_glide_ligand_efficiency_sa>
-0.879068645955792

> <r_i_glide_ligand_efficiency_ln>
-1.7191506281073

> <r_i_glide_gscore>
-7.1095374788487

> <r_i_glide_lipo>
-2.67515932409367

> <r_i_glide_hbond>
-0.306466396396693

> <r_i_glide_metal>
0

> <r_i_glide_rewards>
-1.70419901197706

> <r_i_glide_evdw>
-37.500057220459

> <r_i_glide_ecoul>
-6.92579030990601

> <r_i_glide_erotb>
0.590537006201492

> <r_i_glide_esite>
-0.100378345073921

> <r_i_glide_emodel>
-62.6567915601903

> <r_i_glide_energy>
-44.425847530365

> <r_i_glide_einternal>
0.327806174755096

> <i_i_glide_confnum>
5

> <i_i_glide_posenum>
187

> <r_i_glide_eff_state_penalty>
0

> <s_user_duplicate_titles>
CHEMBL2208_lig219

> <s_m_subgroup_title>
dock_pv

> <s_m_subgroupid>
dock_pv

> <b_m_subgroup_collapsed>
1

$$$$
CHEMBL2208_lig221
                    3D
 Schrodinger Suite 2021-1.
 42 45  0  0  1  0            999 V2000
   39.2853    6.2274   13.9036 C   0  0  0  0  0  0
   38.1981    5.6254   14.5565 C   0  0  0  0  0  0
   38.0537    5.7829   15.9433 C   0  0  0  0  0  0
   40.2186    7.0226   14.5653 C   0  0  0  0  0  0
   37.1993    4.8250   13.7519 C   0  0  0  0  0  0
   37.2728    4.8278   12.5201 O   0  0  0  0  0  0
   36.2885    4.1103   14.4555 N   0  0  0  0  0  0
   35.2893    3.3076   13.9298 C   0  0  0  0  0  0
   40.0478    7.1737   15.9412 C   0  0  0  0  0  0
   38.9874    6.5440   16.6506 C   0  0  0  0  0  0
   40.7715    7.8819   16.8724 N   0  0  0  0  0  0
   40.2370    7.7187   18.1274 C   0  0  0  0  0  0
   39.1584    6.8625   18.0326 C   0  0  0  0  0  0
   38.4210    6.4253   19.2781 C   0  0  0  0  0  0
   38.5784    7.5271   20.3727 C   0  0  2  0  0  0
   39.9764    8.0252   20.4021 N   0  0  0  0  0  0
   40.7895    8.2521   19.3385 C   0  0  0  0  0  0
   41.8687    8.8250   19.4720 O   0  0  0  0  0  0
   38.0988    7.0643   21.7733 C   0  0  0  0  0  0
   36.6781    6.7130   21.8132 N   0  0  1  0  0  0
   34.9181    3.2247   12.6721 N   0  0  0  0  0  0
   33.8780    2.4239   12.5267 C   0  0  0  0  0  0
   33.4177    1.7980   13.6819 C   0  0  0  0  0  0
   34.3876    2.3164   15.0292 S   0  0  0  0  0  0
   36.4598    5.2746   21.7307 C   0  0  0  0  0  0
   39.4173    6.0937   12.8383 H   0  0  0  0  0  0
   37.2385    5.3336   16.4905 H   0  0  0  0  0  0
   41.0299    7.4943   14.0291 H   0  0  0  0  0  0
   36.3678    4.1058   15.4591 H   0  0  0  0  0  0
   41.5890    8.4533   16.7078 H   0  0  0  0  0  0
   38.8254    5.4751   19.6311 H   0  0  0  0  0  0
   37.3638    6.2640   19.0651 H   0  0  0  0  0  0
   37.9607    8.3803   20.0831 H   0  0  0  0  0  0
   40.3159    8.3490   21.2947 H   0  0  0  0  0  0
   38.2400    7.8940   22.4678 H   0  0  0  0  0  0
   38.7273    6.2552   22.1546 H   0  0  0  0  0  0
   36.2236    7.0725   22.6479 H   0  0  0  0  0  0
   33.4644    2.2883   11.5381 H   0  0  0  0  0  0
   32.5994    1.1039   13.8054 H   0  0  0  0  0  0
   35.3922    5.0615   21.7818 H   0  0  0  0  0  0
   36.8363    4.8485   20.8021 H   0  0  0  0  0  0
   36.9359    4.7575   22.5655 H   0  0  0  0  0  0
  1  2  2  0  0  0
  1  4  1  0  0  0
  1 26  1  0  0  0
  2  5  1  0  0  0
  2  3  1  0  0  0
  3 10  2  0  0  0
  3 27  1  0  0  0
  4  9  2  0  0  0
  4 28  1  0  0  0
  5  6  2  0  0  0
  5  7  1  0  0  0
  7  8  1  0  0  0
  7 29  1  0  0  0
  8 21  2  0  0  0
  8 24  1  0  0  0
  9 10  1  0  0  0
  9 11  1  0  0  0
 10 13  1  0  0  0
 11 12  1  0  0  0
 11 30  1  0  0  0
 12 13  2  0  0  0
 12 17  1  0  0  0
 13 14  1  0  0  0
 14 15  1  0  0  0
 14 31  1  0  0  0
 14 32  1  0  0  0
 15 16  1  0  0  0
 15 19  1  0  0  0
 15 33  1  0  0  0
 16 17  1  0  0  0
 16 34  1  0  0  0
 17 18  2  0  0  0
 19 20  1  0  0  0
 19 35  1  0  0  0
 19 36  1  0  0  0
 20 25  1  0  0  0
 20 37  1  0  0  0
 21 22  1  0  0  0
 22 23  2  0  0  0
 22 38  1  0  0  0
 23 24  1  0  0  0
 23 39  1  0  0  0
 25 40  1  0  0  0
 25 41  1  0  0  0
 25 42  1  0  0  0
M  END
> <s_m_entry_id>
7607

> <s_m_entry_name>
dock_pv.168

> <s_m_Source_Path>
/home/csk/Desktop/cluster/DUD-E-result/mapk2

> <s_m_Source_File>
dock_pv.maegz

> <i_m_Source_File_Index>
168

> <chembl_id>
CHEMBL269988

> <chembl_pref_name>
None

> <i_lp_mmshare_version>
53161

> <i_f3d_flags>
0

> <r_lp_tautomer_probability>
0.999000488399163

> <s_lp_Force_Field>
OPLS_2005

> <r_lp_Energy>
23.921982

> <b_lp_Chiralities_Consistent>
1

> <s_lp_Variant>
CHEMBL2208_lig221-1

> <s_i_glide_gridfile>
glide-grid_3m2w

> <i_i_glide_lignum>
347

> <i_i_glide_rotatable_bonds>
5

> <r_i_docking_score>
-7.10405708786138

> <r_i_glide_ligand_efficiency>
-0.284162283514455

> <r_i_glide_ligand_efficiency_sa>
-0.830895556635824

> <r_i_glide_ligand_efficiency_ln>
-1.68387442123479

> <r_i_glide_gscore>
-7.10405708786138

> <r_i_glide_lipo>
-2.56950525526668

> <r_i_glide_hbond>
-0.651789514096134

> <r_i_glide_metal>
0

> <r_i_glide_rewards>
-1.14057407146009

> <r_i_glide_evdw>
-38.9208908081055

> <r_i_glide_ecoul>
-8.60136699676514

> <r_i_glide_erotb>
0.60545601807089

> <r_i_glide_esite>
-0.111394675189321

> <r_i_glide_emodel>
-67.3703887827945

> <r_i_glide_energy>
-47.5222578048706

> <r_i_glide_einternal>
1.52031123638153

> <i_i_glide_confnum>
8

> <i_i_glide_posenum>
60

> <r_i_glide_eff_state_penalty>
0

> <s_user_duplicate_titles>
CHEMBL2208_lig221

> <s_m_subgroup_title>
dock_pv

> <s_m_subgroupid>
dock_pv

> <b_m_subgroup_collapsed>
1

$$$$
CHEMBL2208_lig158
                    3D
 Schrodinger Suite 2021-1.
 40 43  0  0  1  0            999 V2000
   38.2953    6.0771   19.3585 C   0  0  1  0  0  0
   39.3239    6.4249   14.0112 C   0  0  0  0  0  0
   38.2509    5.7215   14.5819 C   0  0  0  0  0  0
   38.0856    5.7322   15.9757 C   0  0  0  0  0  0
   40.2288    7.1658   14.7704 C   0  0  0  0  0  0
   40.0355    7.1645   16.1524 C   0  0  0  0  0  0
   38.9806    6.4395   16.7731 C   0  0  0  0  0  0
   40.7184    7.7944   17.1662 N   0  0  0  0  0  0
   40.1688    7.4771   18.3857 C   0  0  0  0  0  0
   39.0995    6.6211   18.1836 C   0  0  0  0  0  0
   39.2130    6.1604   20.6108 C   0  0  0  0  0  0
   39.8777    7.4812   20.6720 N   0  0  0  0  0  0
   40.6117    7.9861   19.6523 C   0  0  0  0  0  0
   41.4780    8.8250   19.8539 O   0  0  0  0  0  0
   36.9717    6.8249   19.5674 C   0  0  0  0  0  0
   37.2895    4.9624   13.6947 C   0  0  0  0  0  0
   36.3248    4.2750   14.3510 N   0  0  0  0  0  0
   37.4331    4.9976   12.4707 O   0  0  0  0  0  0
   35.2937    3.4493   13.8821 C   0  0  0  0  0  0
   34.4955    2.8250   14.8472 C   0  0  0  0  0  0
   33.4376    2.0298   14.5454 N   0  0  0  0  0  0
   33.1404    1.8442   13.2361 C   0  0  0  0  0  0
   33.8780    2.4250   12.2056 C   0  0  0  0  0  0
   34.9836    3.2250   12.5332 C   0  0  0  0  0  0
   38.0640    5.0246   19.1865 H   0  0  0  0  0  0
   39.4664    6.4177   12.9385 H   0  0  0  0  0  0
   37.2852    5.2040   16.4703 H   0  0  0  0  0  0
   41.0346    7.7131   14.3021 H   0  0  0  0  0  0
   41.5086    8.4177   17.0785 H   0  0  0  0  0  0
   39.9728    5.3776   20.5829 H   0  0  0  0  0  0
   38.6464    5.9928   21.5283 H   0  0  0  0  0  0
   40.0183    7.8826   21.5884 H   0  0  0  0  0  0
   36.3806    6.8264   18.6513 H   0  0  0  0  0  0
   36.3732    6.3517   20.3467 H   0  0  0  0  0  0
   37.1359    7.8597   19.8720 H   0  0  0  0  0  0
   36.3518    4.3512   15.3536 H   0  0  0  0  0  0
   34.6780    2.9718   15.9022 H   0  0  0  0  0  0
   32.2893    1.2152   13.0207 H   0  0  0  0  0  0
   33.6162    2.2507   11.1723 H   0  0  0  0  0  0
   35.5665    3.6544   11.7338 H   0  0  0  0  0  0
  1 10  1  0  0  0
  1 11  1  0  0  0
  1 15  1  0  0  0
  1 25  1  0  0  0
  2  3  2  0  0  0
  2  5  1  0  0  0
  2 26  1  0  0  0
  3  4  1  0  0  0
  3 16  1  0  0  0
  4  7  2  0  0  0
  4 27  1  0  0  0
  5  6  2  0  0  0
  5 28  1  0  0  0
  6  8  1  0  0  0
  6  7  1  0  0  0
  7 10  1  0  0  0
  8  9  1  0  0  0
  8 29  1  0  0  0
  9 13  1  0  0  0
  9 10  2  0  0  0
 11 12  1  0  0  0
 11 30  1  0  0  0
 11 31  1  0  0  0
 12 13  1  0  0  0
 12 32  1  0  0  0
 13 14  2  0  0  0
 15 33  1  0  0  0
 15 34  1  0  0  0
 15 35  1  0  0  0
 16 17  1  0  0  0
 16 18  2  0  0  0
 17 19  1  0  0  0
 17 36  1  0  0  0
 19 20  2  0  0  0
 19 24  1  0  0  0
 20 21  1  0  0  0
 20 37  1  0  0  0
 21 22  2  0  0  0
 22 23  1  0  0  0
 22 38  1  0  0  0
 23 24  2  0  0  0
 23 39  1  0  0  0
 24 40  1  0  0  0
M  END
> <s_m_entry_id>
7608

> <s_m_entry_name>
dock_pv.169

> <s_m_Source_Path>
/home/csk/Desktop/cluster/DUD-E-result/mapk2

> <s_m_Source_File>
dock_pv.maegz

> <i_m_Source_File_Index>
169

> <chembl_id>
CHEMBL437943

> <chembl_pref_name>
None

> <i_lp_mmshare_version>
53161

> <i_f3d_flags>
0

> <r_lp_tautomer_probability>
1

> <s_lp_Force_Field>
OPLS_2005

> <r_lp_Energy>
26.525188

> <b_lp_Chiralities_Consistent>
1

> <s_lp_Variant>
CHEMBL2208_lig158-2

> <s_i_glide_gridfile>
glide-grid_3m2w

> <i_i_glide_lignum>
238

> <i_i_glide_rotatable_bonds>
3

> <r_i_docking_score>
-7.09754582832165

> <r_i_glide_ligand_efficiency>
-0.295731076180069

> <r_i_glide_ligand_efficiency_sa>
-0.853036034190839

> <r_i_glide_ligand_efficiency_ln>
-1.6987684018735

> <r_i_glide_gscore>
-7.09754582832165

> <r_i_glide_lipo>
-2.59636989635801

> <r_i_glide_hbond>
-0.48

> <r_i_glide_metal>
0

> <r_i_glide_rewards>
-1.41899333482319

> <r_i_glide_evdw>
-31.6996669769287

> <r_i_glide_ecoul>
-9.71903800964355

> <r_i_glide_erotb>
0.545836948123788

> <r_i_glide_esite>
-0.105180494971268

> <r_i_glide_emodel>
-59.8967777517033

> <r_i_glide_energy>
-41.4187049865723

> <r_i_glide_einternal>
0.0542890131473541

> <i_i_glide_confnum>
1

> <i_i_glide_posenum>
244

> <r_i_glide_eff_state_penalty>
0

> <s_user_duplicate_titles>
CHEMBL2208_lig158,412025

> <s_m_subgroup_title>
dock_pv

> <s_m_subgroupid>
dock_pv

> <b_m_subgroup_collapsed>
1

$$$$
CHEMBL2208_lig1513
                    3D
 Schrodinger Suite 2021-1.
 36 39  0  0  1  0            999 V2000
   37.6390    5.7788   17.3735 C   0  0  0  0  0  0
   36.8111    5.1637   16.4293 C   0  0  0  0  0  0
   37.1428    5.1237   15.0747 C   0  0  0  0  0  0
   38.8183    6.4161   16.9670 C   0  0  0  0  0  0
   39.1850    6.3771   15.6113 C   0  0  0  0  0  0
   38.3450    5.7153   14.6619 C   0  0  0  0  0  0
   40.0091    6.4246   13.5499 N   0  0  0  0  0  0
   40.2720    6.8505   14.8295 C   0  0  0  0  0  0
   37.2830    5.7397   18.8255 C   0  0  0  0  0  0
   36.9030    4.6082   19.4037 N   0  0  0  0  0  0
   37.3293    6.8278   19.6916 C   0  0  0  0  0  0
   36.7649    6.3749   21.2645 S   0  0  0  0  0  0
   36.6231    4.7454   20.6785 C   0  0  0  0  0  0
   35.5750    3.7046   22.7804 C   0  0  0  0  0  0
   36.2904    4.4016   23.9423 C   0  0  0  0  0  0
   37.6814    4.5677   23.9804 C   0  0  0  0  0  0
   38.2782    5.2169   25.0596 C   0  0  0  0  0  0
   37.4942    5.6657   26.1180 C   0  0  0  0  0  0
   36.1168    5.4630   26.1124 C   0  0  0  0  0  0
   35.5188    4.8263   25.0282 C   0  0  0  0  0  0
   38.8626    5.7416   13.3966 N   0  0  0  0  0  0
   36.2677    3.6912   21.4901 N   0  0  0  0  0  0
   35.8970    4.6866   16.7546 H   0  0  0  0  0  0
   36.4973    4.6233   14.3676 H   0  0  0  0  0  0
   39.4586    6.8934   17.6938 H   0  0  0  0  0  0
   41.1680    7.4116   15.0492 H   0  0  0  0  0  0
   37.6280    7.8419   19.4836 H   0  0  0  0  0  0
   35.3909    2.6707   23.0726 H   0  0  0  0  0  0
   34.5914    4.1515   22.6317 H   0  0  0  0  0  0
   38.3023    4.2175   23.1679 H   0  0  0  0  0  0
   39.3477    5.3800   25.0717 H   0  0  0  0  0  0
   37.9603    6.1764   26.9473 H   0  0  0  0  0  0
   35.5125    5.8047   26.9396 H   0  0  0  0  0  0
   34.4481    4.6836   25.0241 H   0  0  0  0  0  0
   40.6191    6.6022   12.7599 H   0  0  0  0  0  0
   36.2256    2.7718   21.0701 H   0  0  0  0  0  0
  1  2  1  0  0  0
  1  9  1  0  0  0
  1  4  2  0  0  0
  2  3  2  0  0  0
  2 23  1  0  0  0
  3  6  1  0  0  0
  3 24  1  0  0  0
  4 25  1  0  0  0
  4  5  1  0  0  0
  5  6  1  0  0  0
  5  8  2  0  0  0
  6 21  2  0  0  0
  7 35  1  0  0  0
  7 21  1  0  0  0
  7  8  1  0  0  0
  8 26  1  0  0  0
  9 10  1  0  0  0
  9 11  2  0  0  0
 10 13  2  0  0  0
 11 12  1  0  0  0
 11 27  1  0  0  0
 12 13  1  0  0  0
 13 22  1  0  0  0
 14 15  1  0  0  0
 14 22  1  0  0  0
 14 28  1  0  0  0
 14 29  1  0  0  0
 15 16  2  0  0  0
 15 20  1  0  0  0
 16 17  1  0  0  0
 16 30  1  0  0  0
 17 18  2  0  0  0
 17 31  1  0  0  0
 18 19  1  0  0  0
 18 32  1  0  0  0
 19 20  2  0  0  0
 19 33  1  0  0  0
 20 34  1  0  0  0
 22 36  1  0  0  0
M  END
> <s_m_entry_id>
7609

> <s_m_entry_name>
dock_pv.170

> <s_m_Source_Path>
/home/csk/Desktop/cluster/DUD-E-result/mapk2

> <s_m_Source_File>
dock_pv.maegz

> <i_m_Source_File_Index>
170

> <chembl_id>
CHEMBL1682546

> <chembl_pref_name>
None

> <i_lp_mmshare_version>
53161

> <i_f3d_flags>
0

> <r_lp_tautomer_probability>
0.0196078431372549

> <s_lp_Force_Field>
OPLS_2005

> <r_lp_Energy>
21.464582

> <b_lp_Chiralities_Consistent>
1

> <s_lp_Variant>
CHEMBL2208_lig1513-2

> <s_i_glide_gridfile>
glide-grid_3m2w

> <i_i_glide_lignum>
2116

> <i_i_glide_rotatable_bonds>
4

> <r_i_docking_score>
-7.0954995296191

> <r_i_glide_ligand_efficiency>
-0.322522705891777

> <r_i_glide_ligand_efficiency_sa>
-0.903721306007013

> <r_i_glide_ligand_efficiency_ln>
-1.73439889967273

> <r_i_glide_gscore>
-7.0954995296191

> <r_i_glide_lipo>
-1.98523372468355

> <r_i_glide_hbond>
-0.403887874763274

> <r_i_glide_metal>
0

> <r_i_glide_rewards>
-2.92009640909091

> <r_i_glide_evdw>
-36.973934173584

> <r_i_glide_ecoul>
-4.62991142272949

> <r_i_glide_erotb>
0.787079804184623

> <r_i_glide_esite>
-0.0301779031773692

> <r_i_glide_emodel>
-58.6089459966598

> <r_i_glide_energy>
-41.6038455963135

> <r_i_glide_einternal>
1.76684069633484

> <i_i_glide_confnum>
8

> <i_i_glide_posenum>
374

> <r_i_glide_eff_state_penalty>
0

> <s_user_duplicate_titles>
CHEMBL2208_lig1513

> <s_m_subgroup_title>
dock_pv

> <s_m_subgroupid>
dock_pv

> <b_m_subgroup_collapsed>
1

$$$$
CHEMBL2208_lig149
                    3D
 Schrodinger Suite 2021-1.
 42 45  0  0  1  0            999 V2000
   35.3068    3.0875   14.3764 C   0  0  0  0  0  0
   34.7288    2.8871   13.1140 C   0  0  0  0  0  0
   33.6375    2.0239   12.9650 C   0  0  0  0  0  0
   33.1767    1.2902   14.0612 C   0  0  0  0  0  0
   33.7832    1.4444   15.3064 C   0  0  0  0  0  0
   34.8325    2.3484   15.4646 C   0  0  0  0  0  0
   38.2903    6.6591   19.3281 C   0  0  2  0  0  0
   39.1862    6.2063   13.9595 C   0  0  0  0  0  0
   38.0865    5.6589   14.6369 C   0  0  0  0  0  0
   37.9397    5.8880   16.0141 C   0  0  0  0  0  0
   40.1497    6.9882   14.5960 C   0  0  0  0  0  0
   39.9879    7.1903   15.9676 C   0  0  0  0  0  0
   38.8999    6.6336   16.6962 C   0  0  0  0  0  0
   40.7428    7.8935   16.8778 N   0  0  0  0  0  0
   40.1885    7.8099   18.1324 C   0  0  0  0  0  0
   39.0733    6.9940   18.0672 C   0  0  0  0  0  0
   38.4771    7.8717   20.2855 C   0  0  0  0  0  0
   39.9071    8.2394   20.3880 N   0  0  0  0  0  0
   40.7537    8.3606   19.3325 C   0  0  0  0  0  0
   41.8783    8.8251   19.4720 O   0  0  0  0  0  0
   38.7401    5.3278   19.9594 C   0  0  0  0  0  0
   37.0859    4.8128   13.8840 C   0  0  0  0  0  0
   36.3125    4.0247   14.6709 N   0  0  0  0  0  0
   37.0780    4.8250   12.6520 O   0  0  0  0  0  0
   32.9467    1.9322   11.6871 C   0  0  0  0  0  0
   32.3918    1.8639   10.6739 N   0  0  0  0  0  0
   35.0792    3.4571   12.2655 H   0  0  0  0  0  0
   32.3367    0.6155   13.9654 H   0  0  0  0  0  0
   33.4207    0.8875   16.1584 H   0  0  0  0  0  0
   35.2602    2.4822   16.4483 H   0  0  0  0  0  0
   37.2283    6.5786   19.0912 H   0  0  0  0  0  0
   39.3082    6.0304   12.8993 H   0  0  0  0  0  0
   37.1061    5.4951   16.5765 H   0  0  0  0  0  0
   40.9801    7.4071   14.0451 H   0  0  0  0  0  0
   41.5879    8.4179   16.6984 H   0  0  0  0  0  0
   38.0863    7.6475   21.2795 H   0  0  0  0  0  0
   37.9200    8.7365   19.9202 H   0  0  0  0  0  0
   40.3174    8.2669   21.3103 H   0  0  0  0  0  0
   38.5656    4.4888   19.2876 H   0  0  0  0  0  0
   39.8027    5.3372   20.2079 H   0  0  0  0  0  0
   38.1953    5.1219   20.8814 H   0  0  0  0  0  0
   36.5032    4.1011   15.6560 H   0  0  0  0  0  0
  1  2  2  0  0  0
  1 23  1  0  0  0
  1  6  1  0  0  0
  2  3  1  0  0  0
  2 27  1  0  0  0
  3  4  2  0  0  0
  3 25  1  0  0  0
  4  5  1  0  0  0
  4 28  1  0  0  0
  5  6  2  0  0  0
  5 29  1  0  0  0
  6 30  1  0  0  0
  7 16  1  0  0  0
  7 17  1  0  0  0
  7 21  1  0  0  0
  7 31  1  0  0  0
  8  9  2  0  0  0
  8 11  1  0  0  0
  8 32  1  0  0  0
  9 10  1  0  0  0
  9 22  1  0  0  0
 10 13  2  0  0  0
 10 33  1  0  0  0
 11 12  2  0  0  0
 11 34  1  0  0  0
 12 14  1  0  0  0
 12 13  1  0  0  0
 13 16  1  0  0  0
 14 15  1  0  0  0
 14 35  1  0  0  0
 15 16  2  0  0  0
 15 19  1  0  0  0
 17 18  1  0  0  0
 17 36  1  0  0  0
 17 37  1  0  0  0
 18 19  1  0  0  0
 18 38  1  0  0  0
 19 20  2  0  0  0
 21 39  1  0  0  0
 21 40  1  0  0  0
 21 41  1  0  0  0
 22 23  1  0  0  0
 22 24  2  0  0  0
 23 42  1  0  0  0
 25 26  3  0  0  0
M  END
> <s_m_entry_id>
7611

> <s_m_entry_name>
dock_pv.172

> <s_m_Source_Path>
/home/csk/Desktop/cluster/DUD-E-result/mapk2

> <s_m_Source_File>
dock_pv.maegz

> <i_m_Source_File_Index>
172

> <chembl_id>
CHEMBL246910

> <chembl_pref_name>
None

> <i_lp_mmshare_version>
53161

> <i_f3d_flags>
0

> <r_lp_tautomer_probability>
1

> <s_lp_Force_Field>
OPLS_2005

> <r_lp_Energy>
31.639537

> <b_lp_Chiralities_Consistent>
1

> <s_lp_Variant>
CHEMBL2208_lig149-1

> <s_i_glide_gridfile>
glide-grid_3m2w

> <i_i_glide_lignum>
219

> <i_i_glide_rotatable_bonds>
3

> <r_i_docking_score>
-7.09157496542072

> <r_i_glide_ligand_efficiency>
-0.272752883285412

> <r_i_glide_ligand_efficiency_sa>
-0.808029343502263

> <r_i_glide_ligand_efficiency_ln>
-1.66543311127366

> <r_i_glide_gscore>
-7.09157496542072

> <r_i_glide_lipo>
-2.5574935778727

> <r_i_glide_hbond>
-0.301921574018042

> <r_i_glide_metal>
0

> <r_i_glide_rewards>
-1.5435812679035

> <r_i_glide_evdw>
-42.2509002685547

> <r_i_glide_ecoul>
-6.28914785385132

> <r_i_glide_erotb>
0.480313527513786

> <r_i_glide_esite>
-0.112974881634833

> <r_i_glide_emodel>
-67.9242483754383

> <r_i_glide_energy>
-48.540048122406

> <r_i_glide_einternal>
0.322948843240738

> <i_i_glide_confnum>
3

> <i_i_glide_posenum>
392

> <r_i_glide_eff_state_penalty>
0

> <s_user_duplicate_titles>
CHEMBL2208_lig149

> <s_m_subgroup_title>
dock_pv

> <s_m_subgroupid>
dock_pv

> <b_m_subgroup_collapsed>
1

$$$$
CHEMBL2208_lig817
                    3D
 Schrodinger Suite 2021-1.
 53 57  0  0  1  0            999 V2000
   37.7912    6.1913   20.6693 C   0  0  1  0  0  0
   38.5094    4.9708   21.3031 C   0  0  0  0  0  0
   37.8507    4.5532   22.6291 C   0  0  0  0  0  0
   36.3449    4.2900   22.4434 C   0  0  0  0  0  0
   35.6663    5.4536   21.8725 N   0  0  2  0  0  0
   36.2665    5.8914   20.6152 C   0  0  0  0  0  0
   38.0867    7.5301   21.4338 C   0  0  0  0  0  0
   39.4778    8.0007   21.2025 N   0  0  0  0  0  0
   40.1098    8.0251   19.9965 C   0  0  0  0  0  0
   41.2256    8.5181   19.8721 O   0  0  0  0  0  0
   38.3157    6.4729   19.2752 C   0  0  0  0  0  0
   39.3519    7.3444   18.9866 C   0  0  0  0  0  0
   39.5594    7.2657   17.6031 C   0  0  0  0  0  0
   38.5987    6.4259   17.0512 C   0  0  0  0  0  0
   37.8710    5.9371   18.1048 N   0  0  0  0  0  0
   38.3250    6.0198   15.6554 C   0  0  0  0  0  0
   39.1823    6.3881   14.6164 C   0  0  0  0  0  0
   38.8740    5.9727   13.3267 C   0  0  0  0  0  0
   37.7765    5.2252   13.0328 N   0  0  0  0  0  0
   36.9605    4.8446   14.0525 C   0  0  0  0  0  0
   37.1957    5.2492   15.3677 C   0  0  0  0  0  0
   35.8782    4.0244   13.7013 N   0  0  0  0  0  0
   35.2473    3.0962   14.4566 C   0  0  0  0  0  0
   34.0997    2.3609   13.7946 C   0  0  0  0  0  0
   35.5618    2.8220   15.6162 O   0  0  0  0  0  0
   31.9755    0.9630   12.6205 C   0  0  0  0  0  0
   32.8219    1.7274   11.8255 C   0  0  0  0  0  0
   33.8779    2.4240   12.4061 C   0  0  0  0  0  0
   32.1770    0.8900   13.9960 C   0  0  0  0  0  0
   33.2329    1.5852   14.5787 C   0  0  0  0  0  0
   30.9546    0.2761   12.0558 F   0  0  0  0  0  0
   38.4590    4.1171   20.6243 H   0  0  0  0  0  0
   39.5695    5.1745   21.4657 H   0  0  0  0  0  0
   38.3262    3.6425   22.9960 H   0  0  0  0  0  0
   38.0188    5.2892   23.4161 H   0  0  0  0  0  0
   36.1862    3.4306   21.7877 H   0  0  0  0  0  0
   35.8824    4.0496   23.4016 H   0  0  0  0  0  0
   35.6775    6.2052   22.5572 H   0  0  0  0  0  0
   35.7320    6.7768   20.2725 H   0  0  0  0  0  0
   36.0581    5.1159   19.8763 H   0  0  0  0  0  0
   37.9284    7.4154   22.5075 H   0  0  0  0  0  0
   37.4028    8.3186   21.1129 H   0  0  0  0  0  0
   40.0507    8.1660   22.0199 H   0  0  0  0  0  0
   40.3279    7.7938   17.0583 H   0  0  0  0  0  0
   37.1157    5.2718   18.0254 H   0  0  0  0  0  0
   40.0654    6.9827   14.7982 H   0  0  0  0  0  0
   39.5140    6.2415   12.4987 H   0  0  0  0  0  0
   36.5077    4.9697   16.1507 H   0  0  0  0  0  0
   35.6140    4.0777   12.7324 H   0  0  0  0  0  0
   32.6637    1.7692   10.7575 H   0  0  0  0  0  0
   34.5184    2.9963   11.7516 H   0  0  0  0  0  0
   31.5135    0.2970   14.6095 H   0  0  0  0  0  0
   33.3693    1.5161   15.6517 H   0  0  0  0  0  0
  1  6  1  0  0  0
  1 11  1  0  0  0
  1  7  1  0  0  0
  1  2  1  0  0  0
  2  3  1  0  0  0
  2 32  1  0  0  0
  2 33  1  0  0  0
  3  4  1  0  0  0
  3 34  1  0  0  0
  3 35  1  0  0  0
  4  5  1  0  0  0
  4 36  1  0  0  0
  4 37  1  0  0  0
  5  6  1  0  0  0
  5 38  1  0  0  0
  6 39  1  0  0  0
  6 40  1  0  0  0
  7  8  1  0  0  0
  7 41  1  0  0  0
  7 42  1  0  0  0
  8  9  1  0  0  0
  8 43  1  0  0  0
  9 12  1  0  0  0
  9 10  2  0  0  0
 11 15  1  0  0  0
 11 12  2  0  0  0
 12 13  1  0  0  0
 13 14  2  0  0  0
 13 44  1  0  0  0
 14 15  1  0  0  0
 14 16  1  0  0  0
 15 45  1  0  0  0
 16 17  2  0  0  0
 16 21  1  0  0  0
 17 18  1  0  0  0
 17 46  1  0  0  0
 18 19  2  0  0  0
 18 47  1  0  0  0
 19 20  1  0  0  0
 20 21  2  0  0  0
 20 22  1  0  0  0
 21 48  1  0  0  0
 22 23  1  0  0  0
 22 49  1  0  0  0
 23 24  1  0  0  0
 23 25  2  0  0  0
 24 30  2  0  0  0
 24 28  1  0  0  0
 26 29  2  0  0  0
 26 27  1  0  0  0
 26 31  1  0  0  0
 27 28  2  0  0  0
 27 50  1  0  0  0
 28 51  1  0  0  0
 29 30  1  0  0  0
 29 52  1  0  0  0
 30 53  1  0  0  0
M  END
> <s_m_entry_id>
7612

> <s_m_entry_name>
dock_pv.173

> <s_m_Source_Path>
/home/csk/Desktop/cluster/DUD-E-result/mapk2

> <s_m_Source_File>
dock_pv.maegz

> <i_m_Source_File_Index>
173

> <chembl_id>
CHEMBL1933181

> <chembl_pref_name>
None

> <i_lp_mmshare_version>
53161

> <i_f3d_flags>
0

> <r_lp_tautomer_probability>
1

> <s_lp_Force_Field>
OPLS_2005

> <r_lp_Energy>
43.375082

> <b_lp_Chiralities_Consistent>
1

> <s_lp_Variant>
CHEMBL2208_lig817-1

> <s_i_glide_gridfile>
glide-grid_3m2w

> <i_i_glide_lignum>
1045

> <i_i_glide_rotatable_bonds>
4

> <r_i_docking_score>
-7.08309150542394

> <r_i_glide_ligand_efficiency>
-0.228486822755611

> <r_i_glide_ligand_efficiency_sa>
-0.71776408350926

> <r_i_glide_ligand_efficiency_ln>
-1.59745420515854

> <r_i_glide_gscore>
-7.08309150542394

> <r_i_glide_lipo>
-2.33271812444721

> <r_i_glide_hbond>
-0.623076924779466

> <r_i_glide_metal>
0

> <r_i_glide_rewards>
-1.00306617510439

> <r_i_glide_evdw>
-45.1686325073242

> <r_i_glide_ecoul>
-8.00578498840332

> <r_i_glide_erotb>
0.449779182741914

> <r_i_glide_esite>
-0.114710090208071

> <r_i_glide_emodel>
-73.5687036602544

> <r_i_glide_energy>
-53.1744174957275

> <r_i_glide_einternal>
4.57444095611572

> <i_i_glide_confnum>
34

> <i_i_glide_posenum>
133

> <r_i_glide_eff_state_penalty>
0

> <s_user_duplicate_titles>
CHEMBL2208_lig817

> <s_m_subgroup_title>
dock_pv

> <s_m_subgroupid>
dock_pv

> <b_m_subgroup_collapsed>
1

$$$$
CHEMBL2208_lig1570
                    3D
 Schrodinger Suite 2021-1.
 28 29  0  0  1  0            999 V2000
   41.2558    7.2248   16.3009 S   0  0  0  0  0  0
   38.2655    5.5964   13.0640 O   0  0  0  0  0  0
   37.8276    5.8483   17.2859 N   0  0  0  0  0  0
   39.0158    6.4215   17.5151 N   0  0  0  0  0  0
   36.5107    5.0686   15.4024 N   0  0  0  0  0  0
   36.2017    4.4201   18.2721 N   0  0  0  0  0  0
   40.2782    6.4530   13.4722 N   0  0  0  0  0  0
   38.8159    6.0710   15.3004 C   0  0  0  0  0  0
   37.6469    5.6259   15.9286 C   0  0  0  0  0  0
   39.6269    6.5435   16.3621 C   0  0  0  0  0  0
   37.0180    5.5026   18.4064 C   0  0  0  0  0  0
   39.0839    6.0243   13.8717 C   0  0  0  0  0  0
   37.0975    6.2191   19.6152 C   0  0  0  0  0  0
   35.4728    4.0202   19.3443 C   0  0  0  0  0  0
   36.3326    5.7972   20.7049 C   0  0  0  0  0  0
   35.5097    4.6782   20.5744 C   0  0  0  0  0  0
   41.1453    8.4275   17.6590 C   0  0  0  0  0  0
   35.6961    4.8533   15.9692 H   0  0  0  0  0  0
   36.4559    4.8556   14.4155 H   0  0  0  0  0  0
   40.9242    6.8150   14.1587 H   0  0  0  0  0  0
   40.5440    6.4276   12.4944 H   0  0  0  0  0  0
   37.7493    7.0735   19.7228 H   0  0  0  0  0  0
   34.8554    3.1451   19.2061 H   0  0  0  0  0  0
   36.3888    6.3232   21.6474 H   0  0  0  0  0  0
   34.9205    4.3234   21.4083 H   0  0  0  0  0  0
   42.0743    8.9912   17.7371 H   0  0  0  0  0  0
   40.3298    9.1287   17.4805 H   0  0  0  0  0  0
   40.9803    7.9256   18.6122 H   0  0  0  0  0  0
  1 10  1  0  0  0
  1 17  1  0  0  0
  2 12  2  0  0  0
  3  4  1  0  0  0
  3  9  1  0  0  0
  3 11  1  0  0  0
  4 10  2  0  0  0
  5  9  1  0  0  0
  5 18  1  0  0  0
  5 19  1  0  0  0
  6 11  1  0  0  0
  6 14  2  0  0  0
  7 12  1  0  0  0
  7 20  1  0  0  0
  7 21  1  0  0  0
  8  9  2  0  0  0
  8 10  1  0  0  0
  8 12  1  0  0  0
 11 13  2  0  0  0
 13 15  1  0  0  0
 13 22  1  0  0  0
 14 16  1  0  0  0
 14 23  1  0  0  0
 15 16  2  0  0  0
 15 24  1  0  0  0
 16 25  1  0  0  0
 17 26  1  0  0  0
 17 27  1  0  0  0
 17 28  1  0  0  0
M  END
> <s_m_entry_id>
7613

> <s_m_entry_name>
dock_pv.174

> <s_m_Source_Path>
/home/csk/Desktop/cluster/DUD-E-result/mapk2

> <s_m_Source_File>
dock_pv.maegz

> <i_m_Source_File_Index>
174

> <chembl_id>
CHEMBL2004615

> <chembl_pref_name>
None

> <i_lp_mmshare_version>
53161

> <i_f3d_flags>
0

> <r_lp_tautomer_probability>
1

> <s_lp_Force_Field>
OPLS_2005

> <r_lp_Energy>
17.811927

> <b_lp_Chiralities_Consistent>
1

> <s_lp_Variant>
CHEMBL2208_lig1570-1

> <s_i_glide_gridfile>
glide-grid_3m2w

> <i_i_glide_lignum>
2192

> <i_i_glide_rotatable_bonds>
3

> <r_i_docking_score>
-7.07854667197597

> <r_i_glide_ligand_efficiency>
-0.416385098351528

> <r_i_glide_ligand_efficiency_sa>
-1.07064333700458

> <r_i_glide_ligand_efficiency_ln>
-1.8466351952343

> <r_i_glide_gscore>
-7.07854667197597

> <r_i_glide_lipo>
-1.41794009492895

> <r_i_glide_hbond>
-0.78502160560043

> <r_i_glide_metal>
0

> <r_i_glide_rewards>
-2.65069510965822

> <r_i_glide_evdw>
-32.8466949462891

> <r_i_glide_ecoul>
-5.69337034225464

> <r_i_glide_erotb>
0.281361973600489

> <r_i_glide_esite>
-0.00991153673620468

> <r_i_glide_emodel>
-55.7395663100713

> <r_i_glide_energy>
-38.5400652885437

> <r_i_glide_einternal>
1.26449847221375

> <i_i_glide_confnum>
3

> <i_i_glide_posenum>
386

> <r_i_glide_eff_state_penalty>
0

> <s_user_duplicate_titles>
CHEMBL2208_lig1570

> <s_m_subgroup_title>
dock_pv

> <s_m_subgroupid>
dock_pv

> <b_m_subgroup_collapsed>
1

$$$$
CHEMBL2208_lig1328
                    3D
 Schrodinger Suite 2021-1.
 33 36  0  0  1  0            999 V2000
   39.2399    6.7010   17.5290 C   0  0  0  0  0  0
   40.4048    7.2873   17.0219 C   0  0  0  0  0  0
   40.7467    7.2214   15.6705 C   0  0  0  0  0  0
   38.3594    6.0255   16.6723 C   0  0  0  0  0  0
   38.6653    5.9541   15.3056 C   0  0  0  0  0  0
   39.8589    6.5488   14.8286 C   0  0  0  0  0  0
   38.7810    5.6251   13.0723 N   0  0  0  0  0  0
   38.0609    5.3976   14.1396 C   0  0  0  0  0  0
   38.9392    6.8166   18.9858 C   0  0  0  0  0  0
   38.4121    5.7969   19.6429 N   0  0  0  0  0  0
   39.1546    7.9537   19.7637 C   0  0  0  0  0  0
   38.6209    7.6676   21.3860 S   0  0  0  0  0  0
   38.1917    6.0498   20.9090 C   0  0  0  0  0  0
   37.3241    5.1580   23.1195 C   0  0  0  0  0  0
   36.2234    4.4246   23.5673 C   0  0  0  0  0  0
   35.8791    4.4251   24.9174 C   0  0  0  0  0  0
   36.6540    5.1417   25.8271 C   0  0  0  0  0  0
   37.7758    5.8464   25.3979 C   0  0  0  0  0  0
   38.1099    5.8524   24.0471 C   0  0  0  0  0  0
   37.6133    5.1164   21.7431 N   0  0  0  0  0  0
   39.8768    6.2988   13.4716 N   0  0  0  0  0  0
   41.0738    7.8003   17.6981 H   0  0  0  0  0  0
   41.6500    7.6828   15.2992 H   0  0  0  0  0  0
   37.4536    5.5775   17.0557 H   0  0  0  0  0  0
   37.1328    4.8455   14.0750 H   0  0  0  0  0  0
   39.5478    8.9091   19.4626 H   0  0  0  0  0  0
   35.6180    3.8659   22.8683 H   0  0  0  0  0  0
   35.0212    3.8654   25.2595 H   0  0  0  0  0  0
   36.3918    5.1341   26.8745 H   0  0  0  0  0  0
   38.3962    6.3808   26.1027 H   0  0  0  0  0  0
   39.0083    6.3671   23.7420 H   0  0  0  0  0  0
   37.2725    4.2638   21.3234 H   0  0  0  0  0  0
   40.5831    6.5679   12.7976 H   0  0  0  0  0  0
  1  2  2  0  0  0
  1  4  1  0  0  0
  1  9  1  0  0  0
  2  3  1  0  0  0
  2 22  1  0  0  0
  3  6  2  0  0  0
  3 23  1  0  0  0
  4  5  2  0  0  0
  4 24  1  0  0  0
  5  6  1  0  0  0
  5  8  1  0  0  0
  6 21  1  0  0  0
  7  8  2  0  0  0
  7 21  1  0  0  0
  8 25  1  0  0  0
  9 10  1  0  0  0
  9 11  2  0  0  0
 10 13  2  0  0  0
 11 12  1  0  0  0
 11 26  1  0  0  0
 12 13  1  0  0  0
 13 20  1  0  0  0
 14 15  2  0  0  0
 14 19  1  0  0  0
 14 20  1  0  0  0
 15 16  1  0  0  0
 15 27  1  0  0  0
 16 17  2  0  0  0
 16 28  1  0  0  0
 17 18  1  0  0  0
 17 29  1  0  0  0
 18 19  2  0  0  0
 18 30  1  0  0  0
 19 31  1  0  0  0
 20 32  1  0  0  0
 21 33  1  0  0  0
M  END
> <s_m_entry_id>
7614

> <s_m_entry_name>
dock_pv.175

> <s_m_Source_Path>
/home/csk/Desktop/cluster/DUD-E-result/mapk2

> <s_m_Source_File>
dock_pv.maegz

> <i_m_Source_File_Index>
175

> <chembl_id>
CHEMBL1682545

> <chembl_pref_name>
None

> <i_lp_mmshare_version>
53161

> <i_f3d_flags>
0

> <r_lp_tautomer_probability>
0.980392156862745

> <s_lp_Force_Field>
OPLS_2005

> <r_lp_Energy>
13.451003

> <b_lp_Chiralities_Consistent>
1

> <s_lp_Variant>
CHEMBL2208_lig1328-1

> <s_i_glide_gridfile>
glide-grid_3m2w

> <i_i_glide_lignum>
1799

> <i_i_glide_rotatable_bonds>
3

> <r_i_docking_score>
-7.07729635766579

> <r_i_glide_ligand_efficiency>
-0.3370141122698

> <r_i_glide_ligand_efficiency_sa>
-0.929796381179176

> <r_i_glide_ligand_efficiency_ln>
-1.74984722340902

> <r_i_glide_gscore>
-7.07729635766579

> <r_i_glide_lipo>
-2.32815933751006

> <r_i_glide_hbond>
-0.564375918365697

> <r_i_glide_metal>
0

> <r_i_glide_rewards>
-2.26074784169481

> <r_i_glide_evdw>
-38.3559722900391

> <r_i_glide_ecoul>
-2.86793351173401

> <r_i_glide_erotb>
0.448522843228739

> <r_i_glide_esite>
-0.0245474620619042

> <r_i_glide_emodel>
-58.5419611647474

> <r_i_glide_energy>
-41.2239058017731

> <r_i_glide_einternal>
0.625665247440338

> <i_i_glide_confnum>
8

> <i_i_glide_posenum>
359

> <r_i_glide_eff_state_penalty>
0

> <s_user_duplicate_titles>
CHEMBL2208_lig1328,CHEMBL2208_lig1328

> <s_m_subgroup_title>
dock_pv

> <s_m_subgroupid>
dock_pv

> <b_m_subgroup_collapsed>
1

$$$$
CHEMBL2208_lig193
                    3D
 Schrodinger Suite 2021-1.
 37 40  0  0  1  0            999 V2000
   39.3641    6.3899   14.0135 C   0  0  0  0  0  0
   38.2337    5.7709   14.5694 C   0  0  0  0  0  0
   37.9999    5.8762   15.9495 C   0  0  0  0  0  0
   40.2780    7.1138   14.7782 C   0  0  0  0  0  0
   37.2856    4.9951   13.6831 C   0  0  0  0  0  0
   37.4254    5.0338   12.4586 O   0  0  0  0  0  0
   36.3452    4.2807   14.3458 N   0  0  0  0  0  0
   35.3127    3.4509   13.8872 C   0  0  0  0  0  0
   40.0419    7.1708   16.1528 C   0  0  0  0  0  0
   38.9117    6.5524   16.7546 C   0  0  0  0  0  0
   40.7422    7.7709   17.1745 N   0  0  0  0  0  0
   40.1337    7.5274   18.3840 C   0  0  0  0  0  0
   38.9859    6.7902   18.1581 C   0  0  0  0  0  0
   38.0812    6.4015   19.3126 C   0  0  0  0  0  0
   38.9612    6.3554   20.5894 C   0  0  0  0  0  0
   39.7941    7.5746   20.6720 N   0  0  0  0  0  0
   40.5751    8.0250   19.6583 C   0  0  0  0  0  0
   41.4780    8.8250   19.8684 O   0  0  0  0  0  0
   34.9882    3.2250   12.5420 C   0  0  0  0  0  0
   33.8780    2.4250   12.2270 C   0  0  0  0  0  0
   33.1529    1.8439   13.2662 C   0  0  0  0  0  0
   33.4656    2.0291   14.5718 N   0  0  0  0  0  0
   34.5265    2.8250   14.8613 C   0  0  0  0  0  0
   39.5505    6.3211   12.9496 H   0  0  0  0  0  0
   37.1399    5.4326   16.4275 H   0  0  0  0  0  0
   41.1312    7.5931   14.3206 H   0  0  0  0  0  0
   36.3925    4.3420   15.3488 H   0  0  0  0  0  0
   41.5853    8.3219   17.0987 H   0  0  0  0  0  0
   37.6170    5.4275   19.1536 H   0  0  0  0  0  0
   37.2666    7.1163   19.4348 H   0  0  0  0  0  0
   39.6145    5.4791   20.5799 H   0  0  0  0  0  0
   38.3426    6.2739   21.4842 H   0  0  0  0  0  0
   39.9542    7.9641   21.5903 H   0  0  0  0  0  0
   35.5630    3.6555   11.7374 H   0  0  0  0  0  0
   33.6043    2.2506   11.1968 H   0  0  0  0  0  0
   32.2995    1.2146   13.0608 H   0  0  0  0  0  0
   34.7191    2.9731   15.9144 H   0  0  0  0  0  0
  1  2  2  0  0  0
  1  4  1  0  0  0
  1 24  1  0  0  0
  2  5  1  0  0  0
  2  3  1  0  0  0
  3 10  2  0  0  0
  3 25  1  0  0  0
  4  9  2  0  0  0
  4 26  1  0  0  0
  5  6  2  0  0  0
  5  7  1  0  0  0
  7  8  1  0  0  0
  7 27  1  0  0  0
  8 19  2  0  0  0
  8 23  1  0  0  0
  9 11  1  0  0  0
  9 10  1  0  0  0
 10 13  1  0  0  0
 11 12  1  0  0  0
 11 28  1  0  0  0
 12 13  2  0  0  0
 12 17  1  0  0  0
 13 14  1  0  0  0
 14 15  1  0  0  0
 14 29  1  0  0  0
 14 30  1  0  0  0
 15 16  1  0  0  0
 15 31  1  0  0  0
 15 32  1  0  0  0
 16 17  1  0  0  0
 16 33  1  0  0  0
 17 18  2  0  0  0
 19 20  1  0  0  0
 19 34  1  0  0  0
 20 21  2  0  0  0
 20 35  1  0  0  0
 21 22  1  0  0  0
 21 36  1  0  0  0
 22 23  2  0  0  0
 23 37  1  0  0  0
M  END
> <s_m_entry_id>
7615

> <s_m_entry_name>
dock_pv.176

> <s_m_Source_Path>
/home/csk/Desktop/cluster/DUD-E-result/mapk2

> <s_m_Source_File>
dock_pv.maegz

> <i_m_Source_File_Index>
176

> <chembl_id>
CHEMBL255207

> <chembl_pref_name>
None

> <i_lp_mmshare_version>
53161

> <i_f3d_flags>
0

> <r_lp_tautomer_probability>
1

> <s_lp_Force_Field>
OPLS_2005

> <r_lp_Energy>
25.155356

> <b_lp_Chiralities_Consistent>
1

> <s_lp_Variant>
CHEMBL2208_lig193-1

> <s_i_glide_gridfile>
glide-grid_3m2w

> <i_i_glide_lignum>
300

> <i_i_glide_rotatable_bonds>
3

> <r_i_docking_score>
-7.07718542979199

> <r_i_glide_ligand_efficiency>
-0.307703714338782

> <r_i_glide_ligand_efficiency_sa>
-0.875068431871151

> <r_i_glide_ligand_efficiency_ln>
-1.71132760929322

> <r_i_glide_gscore>
-7.07718542979199

> <r_i_glide_lipo>
-2.54881263191369

> <r_i_glide_hbond>
-0.48

> <r_i_glide_metal>
0

> <r_i_glide_rewards>
-1.54429251844854

> <r_i_glide_evdw>
-31.5216674804688

> <r_i_glide_ecoul>
-9.42154407501221

> <r_i_glide_erotb>
0.590537006201492

> <r_i_glide_esite>
-0.105302300355982

> <r_i_glide_emodel>
-58.6381650448649

> <r_i_glide_energy>
-40.943211555481

> <r_i_glide_einternal>
0.092297337949276

> <i_i_glide_confnum>
1

> <i_i_glide_posenum>
379

> <r_i_glide_eff_state_penalty>
0

> <s_user_duplicate_titles>
CHEMBL2208_lig193

> <s_m_subgroup_title>
dock_pv

> <s_m_subgroupid>
dock_pv

> <b_m_subgroup_collapsed>
1

$$$$
CHEMBL2208_lig1050
                    3D
 Schrodinger Suite 2021-1.
 42 44  0  0  1  0            999 V2000
   40.4571    8.4250   20.4223 F   0  0  0  0  0  0
   40.2781    8.0753   15.1882 O   0  0  0  0  0  0
   38.1488    5.6245   12.6715 O   0  0  0  0  0  0
   40.2780    6.2789   13.1084 O   0  0  0  0  0  0
   35.3494    4.8245   22.6894 O   0  0  0  0  0  0
   37.9351    6.2300   18.9972 N   0  0  0  0  0  0
   38.3083    6.7449   21.2299 N   0  0  0  0  0  0
   37.4389    5.6252   16.8067 N   0  0  0  0  0  0
   37.1753    4.7107   24.0479 N   0  0  0  0  0  0
   39.2712    7.1735   17.1817 C   0  0  0  0  0  0
   38.2348    6.3592   17.6887 C   0  0  0  0  0  0
   38.6553    6.9453   19.8923 C   0  0  0  0  0  0
   40.0277    7.8960   18.1388 C   0  0  0  0  0  0
   39.7178    7.7684   19.4997 C   0  0  0  0  0  0
   39.5059    7.2542   15.6815 C   0  0  0  0  0  0
   38.7311    6.2610   14.8803 C   0  0  0  0  0  0
   37.7411    5.5468   15.4704 C   0  0  0  0  0  0
   38.3080    5.4360   21.8898 C   0  0  0  0  0  0
   38.3117    7.7468   22.2896 C   0  0  0  0  0  0
   38.9896    6.0248   13.4724 C   0  0  0  0  0  0
   38.0995    5.6538   23.4035 C   0  0  1  0  0  0
   41.1984    8.8002   17.7538 C   0  0  0  0  0  0
   37.6313    7.0996   23.4840 C   0  0  0  0  0  0
   35.9150    4.4013   23.6958 C   0  0  0  0  0  0
   35.1801    3.4534   24.6331 C   0  0  0  0  0  0
   40.4713    6.2465   12.1625 H   0  0  0  0  0  0
   36.6920    5.0685   17.1978 H   0  0  0  0  0  0
   37.5719    4.1862   24.8114 H   0  0  0  0  0  0
   37.1415    4.8210   14.9315 H   0  0  0  0  0  0
   39.2345    4.8854   21.7221 H   0  0  0  0  0  0
   37.5013    4.8532   21.4468 H   0  0  0  0  0  0
   37.7565    8.6180   21.9398 H   0  0  0  0  0  0
   39.3182    8.1024   22.5097 H   0  0  0  0  0  0
   39.0780    5.6252   23.8812 H   0  0  0  0  0  0
   41.9248    8.2427   17.1614 H   0  0  0  0  0  0
   40.8364    9.6276   17.1437 H   0  0  0  0  0  0
   41.7366    9.2197   18.6029 H   0  0  0  0  0  0
   36.5538    7.1993   23.3888 H   0  0  0  0  0  0
   37.8929    7.5640   24.4354 H   0  0  0  0  0  0
   35.4249    3.6628   25.6750 H   0  0  0  0  0  0
   35.4550    2.4240   24.4135 H   0  0  0  0  0  0
   34.1013    3.5570   24.5095 H   0  0  0  0  0  0
  1 14  1  0  0  0
  2 15  2  0  0  0
  3 20  2  0  0  0
  4 20  1  0  0  0
  4 26  1  0  0  0
  5 24  2  0  0  0
  6 11  1  0  0  0
  6 12  2  0  0  0
  7 12  1  0  0  0
  7 18  1  0  0  0
  7 19  1  0  0  0
  8 11  1  0  0  0
  8 17  1  0  0  0
  8 27  1  0  0  0
  9 21  1  0  0  0
  9 24  1  0  0  0
  9 28  1  0  0  0
 10 11  2  0  0  0
 10 13  1  0  0  0
 10 15  1  0  0  0
 12 14  1  0  0  0
 13 14  2  0  0  0
 13 22  1  0  0  0
 15 16  1  0  0  0
 16 17  2  0  0  0
 16 20  1  0  0  0
 17 29  1  0  0  0
 18 21  1  0  0  0
 18 30  1  0  0  0
 18 31  1  0  0  0
 19 23  1  0  0  0
 19 32  1  0  0  0
 19 33  1  0  0  0
 21 23  1  0  0  0
 21 34  1  0  0  0
 22 35  1  0  0  0
 22 36  1  0  0  0
 22 37  1  0  0  0
 23 38  1  0  0  0
 23 39  1  0  0  0
 24 25  1  0  0  0
 25 40  1  0  0  0
 25 41  1  0  0  0
 25 42  1  0  0  0
M  END
> <s_m_entry_id>
7616

> <s_m_entry_name>
dock_pv.177

> <s_m_Source_Path>
/home/csk/Desktop/cluster/DUD-E-result/mapk2

> <s_m_Source_File>
dock_pv.maegz

> <i_m_Source_File_Index>
177

> <chembl_id>
CHEMBL1975208

> <chembl_pref_name>
None

> <i_lp_mmshare_version>
53161

> <i_f3d_flags>
0

> <r_lp_tautomer_probability>
1

> <s_lp_Force_Field>
OPLS_2005

> <r_lp_Energy>
40.221138

> <b_lp_Chiralities_Consistent>
1

> <s_lp_Variant>
CHEMBL2208_lig1050-2

> <s_i_glide_gridfile>
glide-grid_3m2w

> <i_i_glide_lignum>
1373

> <i_i_glide_rotatable_bonds>
5

> <r_i_docking_score>
-7.07504823059172

> <r_i_glide_ligand_efficiency>
-0.283001929223669

> <r_i_glide_ligand_efficiency_sa>
-0.827502660110593

> <r_i_glide_ligand_efficiency_ln>
-1.67699845273658

> <r_i_glide_gscore>
-7.07504823059172

> <r_i_glide_lipo>
-1.60232884837399

> <r_i_glide_hbond>
-0.305309357669345

> <r_i_glide_metal>
0

> <r_i_glide_rewards>
-2.32294122999295

> <r_i_glide_evdw>
-38.4352264404297

> <r_i_glide_ecoul>
-8.44627380371094

> <r_i_glide_erotb>
0.470653087265726

> <r_i_glide_esite>
-0.126419489243036

> <r_i_glide_emodel>
-67.1646149976207

> <r_i_glide_energy>
-46.8815002441406

> <r_i_glide_einternal>
3.29412913322449

> <i_i_glide_confnum>
14

> <i_i_glide_posenum>
274

> <r_i_glide_eff_state_penalty>
0

> <s_user_duplicate_titles>
CHEMBL2208_lig1050

> <s_m_subgroup_title>
dock_pv

> <s_m_subgroupid>
dock_pv

> <b_m_subgroup_collapsed>
1

$$$$
CHEMBL2208_lig352
                    3D
 Schrodinger Suite 2021-1.
 50 53  0  0  1  0            999 V2000
   41.2862    8.4250   18.9982 N   0  0  0  0  0  0
   40.1008    8.0110   19.5063 C   0  0  0  0  0  0
   39.1658    7.3220   18.8133 N   0  0  0  0  0  0
   41.5267    8.1090   17.6999 C   0  0  0  0  0  0
   39.8756    8.3246   20.8526 N   0  0  0  0  0  0
   40.6356    7.3822   16.9019 C   0  0  0  0  0  0
   39.4367    7.0231   17.5279 C   0  0  0  0  0  0
   39.6425    6.8411   14.5749 C   0  0  0  0  0  0
   40.9187    6.9397   15.4635 C   0  0  0  0  0  0
   38.5012    6.1697   15.3423 C   0  0  0  0  0  0
   38.4376    6.2918   16.7214 C   0  0  0  0  0  0
   37.2985    5.6250   17.0931 N   0  0  0  0  0  0
   36.6780    5.0666   16.0594 N   0  0  0  0  0  0
   37.4032    5.3453   14.9932 C   0  0  0  0  0  0
   36.7326    5.4367   18.4166 C   0  0  0  0  0  0
   37.0781    4.8820   13.6674 C   0  0  0  0  0  0
   37.7147    5.2248   12.6719 O   0  0  0  0  0  0
   38.8272    7.7285   21.6836 C   0  0  0  0  0  0
   36.0477    4.0256   13.5953 N   0  0  0  0  0  0
   37.4075    8.0903   21.1951 C   0  0  0  0  0  0
   36.3162    7.3124   21.9430 C   0  0  0  0  0  0
   36.6612    5.8753   21.9735 N   0  0  0  0  0  0
   37.9355    5.5400   22.6352 C   0  0  0  0  0  0
   39.0308    6.2064   21.7936 C   0  0  0  0  0  0
   35.7723    4.9351   21.5619 C   0  0  0  0  0  0
   36.1524    3.4558   21.6303 C   0  0  0  0  0  0
   34.6787    5.2235   21.0727 O   0  0  0  0  0  0
   42.4875    8.4220   17.3272 H   0  0  0  0  0  0
   40.7262    8.4999   21.3652 H   0  0  0  0  0  0
   39.3410    7.8420   14.2720 H   0  0  0  0  0  0
   39.8803    6.3023   13.6572 H   0  0  0  0  0  0
   41.6291    7.6257   15.0032 H   0  0  0  0  0  0
   41.4057    5.9642   15.4949 H   0  0  0  0  0  0
   36.2825    6.3707   18.7512 H   0  0  0  0  0  0
   35.9663    4.6594   18.4064 H   0  0  0  0  0  0
   37.5209    5.1365   19.1058 H   0  0  0  0  0  0
   38.9654    8.1561   22.6784 H   0  0  0  0  0  0
   35.8398    3.5835   12.7152 H   0  0  0  0  0  0
   35.5422    3.7728   14.4308 H   0  0  0  0  0  0
   37.2497    7.9264   20.1354 H   0  0  0  0  0  0
   37.2316    9.1577   21.3341 H   0  0  0  0  0  0
   35.3564    7.5026   21.4720 H   0  0  0  0  0  0
   36.2790    7.6590   22.9765 H   0  0  0  0  0  0
   37.9223    5.9715   23.6378 H   0  0  0  0  0  0
   38.1249    4.4735   22.7590 H   0  0  0  0  0  0
   39.9838    6.0250   22.2725 H   0  0  0  0  0  0
   39.0962    5.7105   20.8269 H   0  0  0  0  0  0
   36.2761    3.1597   22.6704 H   0  0  0  0  0  0
   37.0779    3.2601   21.0901 H   0  0  0  0  0  0
   35.3711    2.8332   21.1949 H   0  0  0  0  0  0
  1  2  2  0  0  0
  1  4  1  0  0  0
  2  5  1  0  0  0
  2  3  1  0  0  0
  3  7  2  0  0  0
  4  6  2  0  0  0
  4 28  1  0  0  0
  5 18  1  0  0  0
  5 29  1  0  0  0
  6  9  1  0  0  0
  6  7  1  0  0  0
  7 11  1  0  0  0
  8 10  1  0  0  0
  8  9  1  0  0  0
  8 30  1  0  0  0
  8 31  1  0  0  0
  9 32  1  0  0  0
  9 33  1  0  0  0
 10 14  1  0  0  0
 10 11  2  0  0  0
 11 12  1  0  0  0
 12 13  1  0  0  0
 12 15  1  0  0  0
 13 14  2  0  0  0
 14 16  1  0  0  0
 15 34  1  0  0  0
 15 35  1  0  0  0
 15 36  1  0  0  0
 16 17  2  0  0  0
 16 19  1  0  0  0
 18 20  1  0  0  0
 18 24  1  0  0  0
 18 37  1  0  0  0
 19 38  1  0  0  0
 19 39  1  0  0  0
 20 21  1  0  0  0
 20 40  1  0  0  0
 20 41  1  0  0  0
 21 22  1  0  0  0
 21 42  1  0  0  0
 21 43  1  0  0  0
 22 23  1  0  0  0
 22 25  1  0  0  0
 23 24  1  0  0  0
 23 44  1  0  0  0
 23 45  1  0  0  0
 24 46  1  0  0  0
 24 47  1  0  0  0
 25 26  1  0  0  0
 25 27  2  0  0  0
 26 48  1  0  0  0
 26 49  1  0  0  0
 26 50  1  0  0  0
M  END
> <s_m_entry_id>
7617

> <s_m_entry_name>
dock_pv.178

> <s_m_Source_Path>
/home/csk/Desktop/cluster/DUD-E-result/mapk2

> <s_m_Source_File>
dock_pv.maegz

> <i_m_Source_File_Index>
178

> <chembl_id>
CHEMBL599224

> <chembl_pref_name>
None

> <i_lp_mmshare_version>
53161

> <i_f3d_flags>
0

> <r_lp_tautomer_probability>
0.999999987636

> <s_lp_Force_Field>
OPLS_2005

> <r_lp_Energy>
26.655429

> <b_lp_Chiralities_Consistent>
1

> <s_lp_Variant>
CHEMBL2208_lig352-1

> <s_i_glide_gridfile>
glide-grid_3m2w

> <i_i_glide_lignum>
517

> <i_i_glide_rotatable_bonds>
4

> <r_i_docking_score>
-7.0749239706674

> <r_i_glide_ligand_efficiency>
-0.26203422113583

> <r_i_glide_ligand_efficiency_sa>
-0.786102662543867

> <r_i_glide_ligand_efficiency_ln>
-1.64692566113386

> <r_i_glide_gscore>
-7.0749239706674

> <r_i_glide_lipo>
-2.24374513888097

> <r_i_glide_hbond>
-0.608

> <r_i_glide_metal>
0

> <r_i_glide_rewards>
-1.25278670830404

> <r_i_glide_evdw>
-36.9159088134766

> <r_i_glide_ecoul>
-8.48231792449951

> <r_i_glide_erotb>
0.282560957926378

> <r_i_glide_esite>
-0.134809952060022

> <r_i_glide_emodel>
-63.2056058583568

> <r_i_glide_energy>
-45.3982267379761

> <r_i_glide_einternal>
4.22653007507324

> <i_i_glide_confnum>
6

> <i_i_glide_posenum>
333

> <r_i_glide_eff_state_penalty>
0

> <s_user_duplicate_titles>
CHEMBL2208_lig352

> <s_m_subgroup_title>
dock_pv

> <s_m_subgroupid>
dock_pv

> <b_m_subgroup_collapsed>
1

$$$$
CHEMBL2208_lig1116
                    3D
 Schrodinger Suite 2021-1.
 45 47  0  0  1  0            999 V2000
   32.5252    2.8850   19.5514 Cl  0  0  0  0  0  0
   37.6947    8.1692   22.0832 O   0  0  0  0  0  0
   38.2779    7.4649   24.9710 O   0  0  0  0  0  0
   37.7208    5.9036   22.3553 N   0  0  0  0  0  0
   38.9924    5.7010   13.1706 N   0  0  0  0  0  0
   38.0428    6.8040   20.1583 C   0  0  0  0  0  0
   38.4023    6.4116   17.3913 C   0  0  0  0  0  0
   37.8210    7.0307   21.6307 C   0  0  0  0  0  0
   38.6048    6.1853   15.9269 C   0  0  0  0  0  0
   37.3149    5.8201   19.4778 C   0  0  0  0  0  0
   38.9441    7.5990   19.4474 C   0  0  0  0  0  0
   37.4921    5.6303   18.1125 C   0  0  0  0  0  0
   39.1183    7.3997   18.0782 C   0  0  0  0  0  0
   37.1177    5.7487   23.6834 C   0  0  1  0  0  0
   35.5164    3.9502   22.7523 C   0  0  0  0  0  0
   36.5404    4.3208   23.8225 C   0  0  0  0  0  0
   39.8631    6.3614   15.3265 C   0  0  0  0  0  0
   37.5449    5.7694   15.1038 C   0  0  0  0  0  0
   35.9023    3.1662   21.6633 C   0  0  0  0  0  0
   34.1972    4.3965   22.8533 C   0  0  0  0  0  0
   38.0586    6.0762   24.8634 C   0  0  0  0  0  0
   33.6679    3.2903   20.7789 C   0  0  0  0  0  0
   40.0129    6.1169   13.9600 C   0  0  0  0  0  0
   37.7774    5.5372   13.7474 C   0  0  0  0  0  0
   34.9792    2.8353   20.6765 C   0  0  0  0  0  0
   33.2724    4.0688   21.8654 C   0  0  0  0  0  0
   39.2204    7.6250   24.7373 H   0  0  0  0  0  0
   38.0073    5.0453   21.9051 H   0  0  0  0  0  0
   36.5950    5.2049   19.9961 H   0  0  0  0  0  0
   39.5047    8.3730   19.9503 H   0  0  0  0  0  0
   36.9212    4.8548   17.6212 H   0  0  0  0  0  0
   39.8144    8.0333   17.5488 H   0  0  0  0  0  0
   36.2779    6.4320   23.7562 H   0  0  0  0  0  0
   36.0727    4.1927   24.8003 H   0  0  0  0  0  0
   37.3621    3.6034   23.8032 H   0  0  0  0  0  0
   40.7203    6.6694   15.9057 H   0  0  0  0  0  0
   36.5509    5.6243   15.5014 H   0  0  0  0  0  0
   36.9181    2.8081   21.5798 H   0  0  0  0  0  0
   33.8886    4.9985   23.6953 H   0  0  0  0  0  0
   37.6182    5.7552   25.8082 H   0  0  0  0  0  0
   39.0179    5.5661   24.7584 H   0  0  0  0  0  0
   40.9694    6.2462   13.4745 H   0  0  0  0  0  0
   36.9818    5.1964   13.1017 H   0  0  0  0  0  0
   35.2797    2.2151   19.8443 H   0  0  0  0  0  0
   32.2515    4.4137   21.9433 H   0  0  0  0  0  0
  1 22  1  0  0  0
  2  8  2  0  0  0
  3 21  1  0  0  0
  3 27  1  0  0  0
  4  8  1  0  0  0
  4 14  1  0  0  0
  4 28  1  0  0  0
  5 23  2  0  0  0
  5 24  1  0  0  0
  6  8  1  0  0  0
  6 10  2  0  0  0
  6 11  1  0  0  0
  7  9  1  0  0  0
  7 12  2  0  0  0
  7 13  1  0  0  0
  9 17  2  0  0  0
  9 18  1  0  0  0
 10 12  1  0  0  0
 10 29  1  0  0  0
 11 13  2  0  0  0
 11 30  1  0  0  0
 12 31  1  0  0  0
 13 32  1  0  0  0
 14 16  1  0  0  0
 14 21  1  0  0  0
 14 33  1  0  0  0
 15 16  1  0  0  0
 15 19  2  0  0  0
 15 20  1  0  0  0
 16 34  1  0  0  0
 16 35  1  0  0  0
 17 23  1  0  0  0
 17 36  1  0  0  0
 18 24  2  0  0  0
 18 37  1  0  0  0
 19 25  1  0  0  0
 19 38  1  0  0  0
 20 26  2  0  0  0
 20 39  1  0  0  0
 21 40  1  0  0  0
 21 41  1  0  0  0
 22 25  2  0  0  0
 22 26  1  0  0  0
 23 42  1  0  0  0
 24 43  1  0  0  0
 25 44  1  0  0  0
 26 45  1  0  0  0
M  END
> <s_m_entry_id>
7618

> <s_m_entry_name>
dock_pv.179

> <s_m_Source_Path>
/home/csk/Desktop/cluster/DUD-E-result/mapk2

> <s_m_Source_File>
dock_pv.maegz

> <i_m_Source_File_Index>
179

> <chembl_id>
CHEMBL1996931

> <chembl_pref_name>
None

> <i_lp_mmshare_version>
53161

> <i_f3d_flags>
0

> <r_lp_tautomer_probability>
1

> <s_lp_Force_Field>
OPLS_2005

> <r_lp_Energy>
17.090065

> <b_lp_Chiralities_Consistent>
1

> <s_lp_Variant>
CHEMBL2208_lig1116-2

> <s_i_glide_gridfile>
glide-grid_3m2w

> <i_i_glide_lignum>
1487

> <i_i_glide_rotatable_bonds>
8

> <r_i_docking_score>
-7.07241694687964

> <r_i_glide_ligand_efficiency>
-0.272016036418448

> <r_i_glide_ligand_efficiency_sa>
-0.805846437558232

> <r_i_glide_ligand_efficiency_ln>
-1.66093391348187

> <r_i_glide_gscore>
-7.07241694687964

> <r_i_glide_lipo>
-2.29414382788541

> <r_i_glide_hbond>
-0.251290939424046

> <r_i_glide_metal>
0

> <r_i_glide_rewards>
-1.74414882777976

> <r_i_glide_evdw>
-35.9028205871582

> <r_i_glide_ecoul>
-12.1045112609863

> <r_i_glide_erotb>
0.858364241424846

> <r_i_glide_esite>
-0.0303798747094158

> <r_i_glide_emodel>
-67.0347484162688

> <r_i_glide_energy>
-48.0073318481445

> <r_i_glide_einternal>
3.56906247138977

> <i_i_glide_confnum>
18

> <i_i_glide_posenum>
260

> <r_i_glide_eff_state_penalty>
0

> <s_user_duplicate_titles>
CHEMBL2208_lig1116

> <s_m_subgroup_title>
dock_pv

> <s_m_subgroupid>
dock_pv

> <b_m_subgroup_collapsed>
1

$$$$
CHEMBL2208_lig1450
                    3D
 Schrodinger Suite 2021-1.
 27 29  0  0  1  0            999 V2000
   40.8756    8.1463   18.6633 C   0  0  0  0  0  0
   39.8577    7.8220   19.5563 C   0  0  0  0  0  0
   38.7851    7.0426   19.1363 C   0  0  0  0  0  0
   40.7821    7.7439   17.3352 C   0  0  0  0  0  0
   39.6747    7.0179   16.8709 C   0  0  0  0  0  0
   38.6637    6.6459   17.7962 C   0  0  0  0  0  0
   37.5283    5.9274   17.3250 N   0  0  0  0  0  0
   39.5893    6.6767   15.4020 C   0  0  0  0  0  0
   38.3699    5.9554   15.0479 C   0  0  0  0  0  0
   37.4644    5.6246   15.9721 C   0  0  0  0  0  0
   36.4176    4.9438   15.3853 N   0  0  0  0  0  0
   36.7136    4.8713   13.9987 O   0  0  0  0  0  0
   37.8787    5.4865   13.7737 C   0  0  0  0  0  0
   41.9517    8.8565   19.0719 F   0  0  0  0  0  0
   39.8776    8.4207   21.1731 Cl  0  0  0  0  0  0
   36.4373    5.5189   18.2247 C   0  0  0  0  0  0
   36.6773    4.1745   18.9248 C   0  0  0  0  0  0
   38.3997    5.6248   12.6721 O   0  0  0  0  0  0
   40.4667    6.9993   14.6005 O   0  0  0  0  0  0
   38.0399    6.7879   19.8721 H   0  0  0  0  0  0
   41.5794    8.0246   16.6626 H   0  0  0  0  0  0
   36.1055    4.0288   15.6727 H   0  0  0  0  0  0
   36.2779    6.2907   18.9740 H   0  0  0  0  0  0
   35.4900    5.4770   17.6897 H   0  0  0  0  0  0
   35.8857    3.9677   19.6449 H   0  0  0  0  0  0
   36.6781    3.3522   18.2093 H   0  0  0  0  0  0
   37.6238    4.1623   19.4683 H   0  0  0  0  0  0
  1  2  2  0  0  0
  1  4  1  0  0  0
  1 14  1  0  0  0
  2  3  1  0  0  0
  2 15  1  0  0  0
  3  6  2  0  0  0
  3 20  1  0  0  0
  4  5  2  0  0  0
  4 21  1  0  0  0
  5  6  1  0  0  0
  5  8  1  0  0  0
  6  7  1  0  0  0
  7 16  1  0  0  0
  7 10  1  0  0  0
  8  9  1  0  0  0
  8 19  2  0  0  0
  9 10  2  0  0  0
  9 13  1  0  0  0
 10 11  1  0  0  0
 11 12  1  0  0  0
 11 22  1  0  0  0
 12 13  1  0  0  0
 13 18  2  0  0  0
 16 17  1  0  0  0
 16 23  1  0  0  0
 16 24  1  0  0  0
 17 25  1  0  0  0
 17 26  1  0  0  0
 17 27  1  0  0  0
M  END
> <s_m_entry_id>
7619

> <s_m_entry_name>
dock_pv.180

> <s_m_Source_Path>
/home/csk/Desktop/cluster/DUD-E-result/mapk2

> <s_m_Source_File>
dock_pv.maegz

> <i_m_Source_File_Index>
180

> <chembl_id>
CHEMBL468280

> <chembl_pref_name>
None

> <i_lp_mmshare_version>
53161

> <i_f3d_flags>
0

> <r_lp_tautomer_probability>
1

> <s_lp_Force_Field>
OPLS_2005

> <r_lp_Energy>
15.818075

> <b_lp_Chiralities_Consistent>
1

> <s_lp_Variant>
CHEMBL2208_lig1450-1

> <s_i_glide_gridfile>
glide-grid_3m2w

> <i_i_glide_lignum>
2014

> <i_i_glide_rotatable_bonds>
1

> <r_i_docking_score>
-7.06758359746843

> <r_i_glide_ligand_efficiency>
-0.371978084077286

> <r_i_glide_ligand_efficiency_sa>
-0.992586931866056

> <r_i_glide_ligand_efficiency_ln>
-1.7917842397354

> <r_i_glide_gscore>
-7.06758359746843

> <r_i_glide_lipo>
-1.81537626255729

> <r_i_glide_hbond>
-0.32

> <r_i_glide_metal>
0

> <r_i_glide_rewards>
-2.5183028093379

> <r_i_glide_evdw>
-33.2528991699219

> <r_i_glide_ecoul>
-4.83297920227051

> <r_i_glide_erotb>
0

> <r_i_glide_esite>
-0.0263126867365677

> <r_i_glide_emodel>
-53.8055963316055

> <r_i_glide_energy>
-38.0858783721924

> <r_i_glide_einternal>
0.2818443775177

> <i_i_glide_confnum>
1

> <i_i_glide_posenum>
111

> <r_i_glide_eff_state_penalty>
0

> <s_user_duplicate_titles>
CHEMBL2208_lig1450

> <s_m_subgroup_title>
dock_pv

> <s_m_subgroupid>
dock_pv

> <b_m_subgroup_collapsed>
1

$$$$
CHEMBL2208_lig1377
                    3D
 Schrodinger Suite 2021-1.
 38 41  0  0  1  0            999 V2000
   38.6943    6.6547   22.2145 C   0  0  0  0  0  0
   37.4286    5.7649   22.3089 C   0  0  0  0  0  0
   36.1977    6.2572   21.5098 C   0  0  0  0  0  0
   35.0556    5.2291   21.4499 C   0  0  0  0  0  0
   35.5679    3.9762   21.0255 O   0  0  0  0  0  0
   36.4185    3.3832   21.9982 C   0  0  0  0  0  0
   37.6865    4.2367   22.2120 C   0  0  0  0  0  0
   39.0777    7.0240   20.8495 N   0  0  0  0  0  0
   39.0084    6.3008   19.6856 C   0  0  0  0  0  0
   39.4818    7.1512   18.6966 C   0  0  0  0  0  0
   39.8753    8.2856   19.2565 N   0  0  0  0  0  0
   39.6173    8.2235   20.6148 N   0  0  0  0  0  0
   39.5457    6.9007   17.2289 C   0  0  0  0  0  0
   40.5841    7.4351   16.4621 C   0  0  0  0  0  0
   40.6776    7.2260   15.0856 C   0  0  0  0  0  0
   39.6816    6.4447   14.4983 C   0  0  0  0  0  0
   39.4751    6.0262   13.1994 N   0  0  0  0  0  0
   38.3222    5.3387   13.0731 N   0  0  0  0  0  0
   37.8081    5.2322   14.2696 C   0  0  0  0  0  0
   38.6025    5.9101   15.2407 C   0  0  0  0  0  0
   38.5408    6.1353   16.6236 C   0  0  0  0  0  0
   38.5439    7.5689   22.7919 H   0  0  0  0  0  0
   39.5437    6.1535   22.6715 H   0  0  0  0  0  0
   37.0750    5.8526   23.3380 H   0  0  0  0  0  0
   36.4860    6.4267   20.4735 H   0  0  0  0  0  0
   35.8779    7.2327   21.8712 H   0  0  0  0  0  0
   34.2899    5.5407   20.7448 H   0  0  0  0  0  0
   34.5608    5.1419   22.4192 H   0  0  0  0  0  0
   36.6775    2.3796   21.6619 H   0  0  0  0  0  0
   35.8819    3.2548   22.9396 H   0  0  0  0  0  0
   38.2821    3.8779   23.0547 H   0  0  0  0  0  0
   38.3089    4.0474   21.3399 H   0  0  0  0  0  0
   38.6135    5.3005   19.6548 H   0  0  0  0  0  0
   41.3467    8.0287   16.9472 H   0  0  0  0  0  0
   41.4778    7.6573   14.5085 H   0  0  0  0  0  0
   40.0583    6.2282   12.3953 H   0  0  0  0  0  0
   36.8857    4.6905   14.4278 H   0  0  0  0  0  0
   37.7245    5.7329   17.2048 H   0  0  0  0  0  0
  1  2  1  0  0  0
  1  8  1  0  0  0
  1 22  1  0  0  0
  1 23  1  0  0  0
  2  3  1  0  0  0
  2  7  1  0  0  0
  2 24  1  0  0  0
  3  4  1  0  0  0
  3 25  1  0  0  0
  3 26  1  0  0  0
  4  5  1  0  0  0
  4 27  1  0  0  0
  4 28  1  0  0  0
  5  6  1  0  0  0
  6  7  1  0  0  0
  6 29  1  0  0  0
  6 30  1  0  0  0
  7 31  1  0  0  0
  7 32  1  0  0  0
  8  9  1  0  0  0
  8 12  1  0  0  0
  9 10  2  0  0  0
  9 33  1  0  0  0
 10 11  1  0  0  0
 10 13  1  0  0  0
 11 12  2  0  0  0
 13 14  2  0  0  0
 13 21  1  0  0  0
 14 15  1  0  0  0
 14 34  1  0  0  0
 15 16  2  0  0  0
 15 35  1  0  0  0
 16 17  1  0  0  0
 16 20  1  0  0  0
 17 18  1  0  0  0
 17 36  1  0  0  0
 18 19  2  0  0  0
 19 20  1  0  0  0
 19 37  1  0  0  0
 20 21  2  0  0  0
 21 38  1  0  0  0
M  END
> <s_m_entry_id>
7620

> <s_m_entry_name>
dock_pv.181

> <s_m_Source_Path>
/home/csk/Desktop/cluster/DUD-E-result/mapk2

> <s_m_Source_File>
dock_pv.maegz

> <i_m_Source_File_Index>
181

> <chembl_id>
CHEMBL1969843

> <chembl_pref_name>
None

> <i_lp_mmshare_version>
53161

> <i_f3d_flags>
0

> <r_lp_tautomer_probability>
0.980392156862745

> <s_lp_Force_Field>
OPLS_2005

> <r_lp_Energy>
13.624637

> <b_lp_Chiralities_Consistent>
1

> <s_lp_Variant>
CHEMBL2208_lig1377-1

> <s_i_glide_gridfile>
glide-grid_3m2w

> <i_i_glide_lignum>
1884

> <i_i_glide_rotatable_bonds>
3

> <r_i_docking_score>
-7.06553954037327

> <r_i_glide_ligand_efficiency>
-0.336454263827298

> <r_i_glide_ligand_efficiency_sa>
-0.928251801777618

> <r_i_glide_ligand_efficiency_ln>
-1.74694037409032

> <r_i_glide_gscore>
-7.06553954037327

> <r_i_glide_lipo>
-2.09599411666322

> <r_i_glide_hbond>
-0.537614232043356

> <r_i_glide_metal>
0

> <r_i_glide_rewards>
-2.32595276348088

> <r_i_glide_evdw>
-36.379524230957

> <r_i_glide_ecoul>
-5.71171855926514

> <r_i_glide_erotb>
0.676746918433735

> <r_i_glide_esite>
-0.106991351181924

> <r_i_glide_emodel>
-58.7441356331776

> <r_i_glide_energy>
-42.0912427902222

> <r_i_glide_einternal>
3.9246084690094

> <i_i_glide_confnum>
6

> <i_i_glide_posenum>
218

> <r_i_glide_eff_state_penalty>
0

> <s_user_duplicate_titles>
CHEMBL2208_lig1377

> <s_m_subgroup_title>
dock_pv

> <s_m_subgroupid>
dock_pv

> <b_m_subgroup_collapsed>
1

$$$$
CHEMBL2208_lig203
                    3D
 Schrodinger Suite 2021-1.
 37 40  0  0  1  0            999 V2000
   39.1896    6.1246   14.1207 C   0  0  0  0  0  0
   38.0037    5.5961   14.6455 C   0  0  0  0  0  0
   37.6928    5.7585   16.0049 C   0  0  0  0  0  0
   40.0960    6.8146   14.9153 C   0  0  0  0  0  0
   37.0782    4.8245   13.7395 C   0  0  0  0  0  0
   37.2471    4.8400   12.5171 O   0  0  0  0  0  0
   36.1440    4.0658   14.3641 N   0  0  0  0  0  0
   35.1911    3.2597   13.7661 C   0  0  0  0  0  0
   39.8185    6.9604   16.2778 C   0  0  0  0  0  0
   38.6178    6.4195   16.8142 C   0  0  0  0  0  0
   40.4945    7.5877   17.3520 C   0  0  0  0  0  0
   34.8786    3.2250   12.4918 N   0  0  0  0  0  0
   33.8568    2.4225   12.2696 C   0  0  0  0  0  0
   33.3568    1.7401   13.3756 C   0  0  0  0  0  0
   34.2577    2.2141   14.7848 S   0  0  0  0  0  0
   38.5928    6.7002   18.1737 N   0  0  0  0  0  0
   39.7472    7.4049   18.5064 C   0  0  0  0  0  0
   40.1049    7.9188   19.8101 C   0  0  0  0  0  0
   37.4510    6.4250   19.0666 C   0  0  0  0  0  0
   39.4781    7.3815   20.8792 N   0  0  0  0  0  0
   37.7930    5.5773   20.2982 C   0  0  0  0  0  0
   39.0965    5.9688   21.0069 C   0  0  0  0  0  0
   40.9653    8.7938   19.8724 O   0  0  0  0  0  0
   39.4262    6.0079   13.0710 H   0  0  0  0  0  0
   36.7773    5.3752   16.4285 H   0  0  0  0  0  0
   40.9956    7.2298   14.4867 H   0  0  0  0  0  0
   36.1740    4.0262   15.3702 H   0  0  0  0  0  0
   41.4346    8.1176   17.3017 H   0  0  0  0  0  0
   33.4815    2.3282   11.2609 H   0  0  0  0  0  0
   32.5434    1.0321   13.4335 H   0  0  0  0  0  0
   36.6335    5.9675   18.5118 H   0  0  0  0  0  0
   37.0870    7.3908   19.4197 H   0  0  0  0  0  0
   39.6431    7.8588   21.7541 H   0  0  0  0  0  0
   37.8252    4.5169   20.0434 H   0  0  0  0  0  0
   36.9698    5.6734   21.0082 H   0  0  0  0  0  0
   39.0216    5.7315   22.0696 H   0  0  0  0  0  0
   39.8932    5.3321   20.6253 H   0  0  0  0  0  0
  1  2  2  0  0  0
  1  4  1  0  0  0
  1 24  1  0  0  0
  2  5  1  0  0  0
  2  3  1  0  0  0
  3 10  2  0  0  0
  3 25  1  0  0  0
  4  9  2  0  0  0
  4 26  1  0  0  0
  5  6  2  0  0  0
  5  7  1  0  0  0
  7  8  1  0  0  0
  7 27  1  0  0  0
  8 12  2  0  0  0
  8 15  1  0  0  0
  9 11  1  0  0  0
  9 10  1  0  0  0
 10 16  1  0  0  0
 11 17  2  0  0  0
 11 28  1  0  0  0
 12 13  1  0  0  0
 13 14  2  0  0  0
 13 29  1  0  0  0
 14 15  1  0  0  0
 14 30  1  0  0  0
 16 17  1  0  0  0
 16 19  1  0  0  0
 17 18  1  0  0  0
 18 20  1  0  0  0
 18 23  2  0  0  0
 19 21  1  0  0  0
 19 31  1  0  0  0
 19 32  1  0  0  0
 20 22  1  0  0  0
 20 33  1  0  0  0
 21 22  1  0  0  0
 21 34  1  0  0  0
 21 35  1  0  0  0
 22 36  1  0  0  0
 22 37  1  0  0  0
M  END
> <s_m_entry_id>
7621

> <s_m_entry_name>
dock_pv.182

> <s_m_Source_Path>
/home/csk/Desktop/cluster/DUD-E-result/mapk2

> <s_m_Source_File>
dock_pv.maegz

> <i_m_Source_File_Index>
182

> <chembl_id>
CHEMBL403436

> <chembl_pref_name>
None

> <i_lp_mmshare_version>
53161

> <i_f3d_flags>
0

> <r_lp_tautomer_probability>
0.999000488399163

> <s_lp_Force_Field>
OPLS_2005

> <r_lp_Energy>
25.705996

> <b_lp_Chiralities_Consistent>
1

> <s_lp_Variant>
CHEMBL2208_lig203-1

> <s_i_glide_gridfile>
glide-grid_3m2w

> <i_i_glide_lignum>
319

> <i_i_glide_rotatable_bonds>
3

> <r_i_docking_score>
-7.06355095482846

> <r_i_glide_ligand_efficiency>
-0.307110911079498

> <r_i_glide_ligand_efficiency_sa>
-0.873382578258287

> <r_i_glide_ligand_efficiency_ln>
-1.70803066961646

> <r_i_glide_gscore>
-7.06355095482846

> <r_i_glide_lipo>
-2.55495559315755

> <r_i_glide_hbond>
-0.402338159856128

> <r_i_glide_metal>
0

> <r_i_glide_rewards>
-1.47332023972503

> <r_i_glide_evdw>
-35.8891639709473

> <r_i_glide_ecoul>
-8.49726867675781

> <r_i_glide_erotb>
0.528179042631369

> <r_i_glide_esite>
-0.0920675046600823

> <r_i_glide_emodel>
-62.6360928292158

> <r_i_glide_energy>
-44.3864326477051

> <r_i_glide_einternal>
1.73886859416962

> <i_i_glide_confnum>
6

> <i_i_glide_posenum>
229

> <r_i_glide_eff_state_penalty>
0

> <s_user_duplicate_titles>
CHEMBL2208_lig203

> <s_m_subgroup_title>
dock_pv

> <s_m_subgroupid>
dock_pv

> <b_m_subgroup_collapsed>
1

$$$$
CHEMBL2208_lig1105
                    3D
 Schrodinger Suite 2021-1.
 48 51  0  0  1  0            999 V2000
   39.4787    7.6245   17.8061 C   0  0  0  0  0  0
   40.0656    7.9370   16.5919 C   0  0  0  0  0  0
   39.6804    7.2907   15.4292 C   0  0  0  0  0  0
   38.4653    6.6547   17.8878 C   0  0  0  0  0  0
   38.0476    6.0250   16.6928 C   0  0  0  0  0  0
   38.6600    6.3285   15.4595 C   0  0  0  0  0  0
   38.2340    5.5997   14.2267 C   0  0  0  0  0  0
   37.2133    4.6126   14.4530 C   0  0  0  0  0  0
   36.6779    4.3561   15.6654 C   0  0  0  0  0  0
   37.0239    5.0842   16.7697 O   0  0  0  0  0  0
   35.6759    3.2492   15.9005 C   0  0  0  0  0  0
   35.4783    2.5905   17.1391 C   0  0  0  0  0  0
   34.5620    1.5433   17.2539 C   0  0  0  0  0  0
   33.8118    1.1314   16.1582 C   0  0  0  0  0  0
   33.9758    1.7705   14.9351 C   0  0  0  0  0  0
   36.3211    3.0017   18.5871 Cl  0  0  0  0  0  0
   34.8939    2.8108   14.8133 C   0  0  0  0  0  0
   40.3421    7.6250   14.2771 O   0  0  0  0  0  0
   38.7333    5.7881   13.1178 O   0  0  0  0  0  0
   39.9304    8.2956   18.9101 O   0  0  0  0  0  0
   37.8705    6.2529   19.2595 C   0  0  1  0  0  0
   38.9050    5.6050   20.2217 C   0  0  1  0  0  0
   38.2892    5.2878   21.5998 C   0  0  0  0  0  0
   37.6893    6.4916   22.1919 N   0  0  1  0  0  0
   36.6026    7.0187   21.3654 C   0  0  0  0  0  0
   37.1067    7.4031   19.9609 C   0  0  0  0  0  0
   39.4780    4.4572   19.6396 O   0  0  0  0  0  0
   37.2308    6.2249   23.5519 C   0  0  0  0  0  0
   40.8479    8.6809   16.5557 H   0  0  0  0  0  0
   36.9330    4.0243   13.5977 H   0  0  0  0  0  0
   34.4281    1.0481   18.2063 H   0  0  0  0  0  0
   33.0994    0.3259   16.2614 H   0  0  0  0  0  0
   33.3902    1.4630   14.0817 H   0  0  0  0  0  0
   34.9707    3.2843   13.8464 H   0  0  0  0  0  0
   40.0151    7.1059   13.5321 H   0  0  0  0  0  0
   39.4762    7.9832   19.6957 H   0  0  0  0  0  0
   37.1090    5.4996   19.0753 H   0  0  0  0  0  0
   39.7319    6.2945   20.3813 H   0  0  0  0  0  0
   39.0779    4.9254   22.2597 H   0  0  0  0  0  0
   37.5464    4.4900   21.5351 H   0  0  0  0  0  0
   36.2185    7.9155   21.8532 H   0  0  0  0  0  0
   35.7728    6.3106   21.3196 H   0  0  0  0  0  0
   36.2135    7.6250   19.3812 H   0  0  0  0  0  0
   37.6658    8.3340   20.0307 H   0  0  0  0  0  0
   40.4207    4.4250   19.8721 H   0  0  0  0  0  0
   38.0575    5.8799   24.1748 H   0  0  0  0  0  0
   36.8336    7.1313   24.0101 H   0  0  0  0  0  0
   36.4475    5.4651   23.5726 H   0  0  0  0  0  0
  1  2  2  0  0  0
  1  4  1  0  0  0
  1 20  1  0  0  0
  2  3  1  0  0  0
  2 29  1  0  0  0
  3  6  2  0  0  0
  3 18  1  0  0  0
  4  5  2  0  0  0
  4 21  1  0  0  0
  5 10  1  0  0  0
  5  6  1  0  0  0
  6  7  1  0  0  0
  7  8  1  0  0  0
  7 19  2  0  0  0
  8  9  2  0  0  0
  8 30  1  0  0  0
  9 10  1  0  0  0
  9 11  1  0  0  0
 11 17  1  0  0  0
 11 12  2  0  0  0
 12 16  1  0  0  0
 12 13  1  0  0  0
 13 14  2  0  0  0
 13 31  1  0  0  0
 14 15  1  0  0  0
 14 32  1  0  0  0
 15 17  2  0  0  0
 15 33  1  0  0  0
 17 34  1  0  0  0
 18 35  1  0  0  0
 20 36  1  0  0  0
 21 22  1  0  0  0
 21 26  1  0  0  0
 21 37  1  0  0  0
 22 23  1  0  0  0
 22 27  1  0  0  0
 22 38  1  0  0  0
 23 24  1  0  0  0
 23 39  1  0  0  0
 23 40  1  0  0  0
 24 25  1  0  0  0
 24 28  1  0  0  0
 25 26  1  0  0  0
 25 41  1  0  0  0
 25 42  1  0  0  0
 26 43  1  0  0  0
 26 44  1  0  0  0
 27 45  1  0  0  0
 28 46  1  0  0  0
 28 47  1  0  0  0
 28 48  1  0  0  0
M  END
> <s_m_entry_id>
7622

> <s_m_entry_name>
dock_pv.183

> <s_m_Source_Path>
/home/csk/Desktop/cluster/DUD-E-result/mapk2

> <s_m_Source_File>
dock_pv.maegz

> <i_m_Source_File_Index>
183

> <chembl_id>
CHEMBL422897

> <chembl_pref_name>
None

> <i_lp_mmshare_version>
53161

> <i_f3d_flags>
0

> <r_lp_tautomer_probability>
1

> <s_lp_Force_Field>
OPLS_2005

> <r_lp_Energy>
35.575785

> <b_lp_Chiralities_Consistent>
1

> <s_lp_Variant>
CHEMBL2208_lig1105-4

> <s_i_glide_gridfile>
glide-grid_3m2w

> <i_i_glide_lignum>
1468

> <i_i_glide_rotatable_bonds>
5

> <r_i_docking_score>
-7.06275950683933

> <r_i_glide_ligand_efficiency>
-0.252241410958548

> <r_i_glide_ligand_efficiency_sa>
-0.765953485916312

> <r_i_glide_ligand_efficiency_ln>
-1.6302922658085

> <r_i_glide_gscore>
-7.06275950683933

> <r_i_glide_lipo>
-2.71273721276635

> <r_i_glide_hbond>
-0.54173671306881

> <r_i_glide_metal>
0

> <r_i_glide_rewards>
-1.01057247616254

> <r_i_glide_evdw>
-37.7788352966309

> <r_i_glide_ecoul>
-7.67836952209473

> <r_i_glide_erotb>
0.242984088304113

> <r_i_glide_esite>
0

> <r_i_glide_emodel>
-63.4132327381378

> <r_i_glide_energy>
-45.4572048187256

> <r_i_glide_einternal>
3.14501285552979

> <i_i_glide_confnum>
6

> <i_i_glide_posenum>
65

> <r_i_glide_eff_state_penalty>
0

> <s_user_duplicate_titles>
CHEMBL2208_lig1105

> <s_m_subgroup_title>
dock_pv

> <s_m_subgroupid>
dock_pv

> <b_m_subgroup_collapsed>
1

$$$$
CHEMBL2208_lig174
                    3D
 Schrodinger Suite 2021-1.
 41 44  0  0  1  0            999 V2000
   35.2710    3.1038   14.3568 C   0  0  0  0  0  0
   34.7830    2.8254   13.0722 C   0  0  0  0  0  0
   33.7358    1.9212   12.8951 C   0  0  0  0  0  0
   33.1903    1.2582   13.9916 C   0  0  0  0  0  0
   33.6859    1.5059   15.2698 C   0  0  0  0  0  0
   34.7189    2.4253   15.4493 C   0  0  0  0  0  0
   38.3008    6.6306   19.3402 C   0  0  2  0  0  0
   39.1807    6.1976   13.9653 C   0  0  0  0  0  0
   38.0833    5.6446   14.6419 C   0  0  0  0  0  0
   37.9439    5.8619   16.0226 C   0  0  0  0  0  0
   40.1441    6.9779   14.6028 C   0  0  0  0  0  0
   39.9851    7.1754   15.9753 C   0  0  0  0  0  0
   38.9019    6.6114   16.7051 C   0  0  0  0  0  0
   40.7390    7.8809   16.8845 N   0  0  0  0  0  0
   40.1890    7.7942   18.1401 C   0  0  0  0  0  0
   39.0776    6.9717   18.0770 C   0  0  0  0  0  0
   38.4858    7.8407   20.3024 C   0  0  0  0  0  0
   39.9137    8.2209   20.3970 N   0  0  0  0  0  0
   40.7557    8.3503   19.3381 C   0  0  0  0  0  0
   41.8781    8.8250   19.4719 O   0  0  0  0  0  0
   38.7607    5.3004   19.9667 C   0  0  0  0  0  0
   37.0777    4.8094   13.8816 C   0  0  0  0  0  0
   36.2780    4.0381   14.6617 N   0  0  0  0  0  0
   37.0780    4.8250   12.6494 O   0  0  0  0  0  0
   33.2489    1.6859   11.6565 F   0  0  0  0  0  0
   35.1884    3.3203   12.2045 H   0  0  0  0  0  0
   32.3807    0.5586   13.8490 H   0  0  0  0  0  0
   33.2615    0.9984   16.1238 H   0  0  0  0  0  0
   35.0738    2.6187   16.4522 H   0  0  0  0  0  0
   37.2386    6.5454   19.1057 H   0  0  0  0  0  0
   39.3001    6.0296   12.9036 H   0  0  0  0  0  0
   37.1162    5.4610   16.5876 H   0  0  0  0  0  0
   40.9712    7.4023   14.0512 H   0  0  0  0  0  0
   41.5799    8.4113   16.7026 H   0  0  0  0  0  0
   38.1050    7.6086   21.2983 H   0  0  0  0  0  0
   37.9180    8.7035   19.9487 H   0  0  0  0  0  0
   40.3277    8.2527   21.3175 H   0  0  0  0  0  0
   38.5903    4.4612   19.2937 H   0  0  0  0  0  0
   39.8242    5.3168   20.2113 H   0  0  0  0  0  0
   38.2201    5.0897   20.8902 H   0  0  0  0  0  0
   36.4428    4.1275   15.6503 H   0  0  0  0  0  0
  1  6  1  0  0  0
  1  2  2  0  0  0
  1 23  1  0  0  0
  2  3  1  0  0  0
  2 26  1  0  0  0
  3  4  2  0  0  0
  3 25  1  0  0  0
  4  5  1  0  0  0
  4 27  1  0  0  0
  5  6  2  0  0  0
  5 28  1  0  0  0
  6 29  1  0  0  0
  7 16  1  0  0  0
  7 17  1  0  0  0
  7 21  1  0  0  0
  7 30  1  0  0  0
  8  9  2  0  0  0
  8 11  1  0  0  0
  8 31  1  0  0  0
  9 10  1  0  0  0
  9 22  1  0  0  0
 10 13  2  0  0  0
 10 32  1  0  0  0
 11 12  2  0  0  0
 11 33  1  0  0  0
 12 14  1  0  0  0
 12 13  1  0  0  0
 13 16  1  0  0  0
 14 15  1  0  0  0
 14 34  1  0  0  0
 15 16  2  0  0  0
 15 19  1  0  0  0
 17 18  1  0  0  0
 17 35  1  0  0  0
 17 36  1  0  0  0
 18 19  1  0  0  0
 18 37  1  0  0  0
 19 20  2  0  0  0
 21 38  1  0  0  0
 21 39  1  0  0  0
 21 40  1  0  0  0
 22 23  1  0  0  0
 22 24  2  0  0  0
 23 41  1  0  0  0
M  END
> <s_m_entry_id>
7624

> <s_m_entry_name>
dock_pv.185

> <s_m_Source_Path>
/home/csk/Desktop/cluster/DUD-E-result/mapk2

> <s_m_Source_File>
dock_pv.maegz

> <i_m_Source_File_Index>
185

> <chembl_id>
CHEMBL246697

> <chembl_pref_name>
None

> <i_lp_mmshare_version>
53161

> <i_f3d_flags>
0

> <r_lp_tautomer_probability>
1

> <s_lp_Force_Field>
OPLS_2005

> <r_lp_Energy>
32.283421

> <b_lp_Chiralities_Consistent>
1

> <s_lp_Variant>
CHEMBL2208_lig174-1

> <s_i_glide_gridfile>
glide-grid_3m2w

> <i_i_glide_lignum>
268

> <i_i_glide_rotatable_bonds>
3

> <r_i_docking_score>
-7.04841375881884

> <r_i_glide_ligand_efficiency>
-0.281936550352754

> <r_i_glide_ligand_efficiency_sa>
-0.824387473397463

> <r_i_glide_ligand_efficiency_ln>
-1.67068528475569

> <r_i_glide_gscore>
-7.04841375881884

> <r_i_glide_lipo>
-2.53467316162221

> <r_i_glide_hbond>
-0.302829212896115

> <r_i_glide_metal>
0

> <r_i_glide_rewards>
-1.65017181519966

> <r_i_glide_evdw>
-39.9703407287598

> <r_i_glide_ecoul>
-6.30957651138306

> <r_i_glide_erotb>
0.498176077279357

> <r_i_glide_esite>
-0.113962133234775

> <r_i_glide_emodel>
-64.9159128221486

> <r_i_glide_energy>
-46.2799172401428

> <r_i_glide_einternal>
0.19770236313343

> <i_i_glide_confnum>
1

> <i_i_glide_posenum>
137

> <r_i_glide_eff_state_penalty>
0

> <s_user_duplicate_titles>
CHEMBL2208_lig174

> <s_m_subgroup_title>
dock_pv

> <s_m_subgroupid>
dock_pv

> <b_m_subgroup_collapsed>
1

$$$$
CHEMBL2208_lig211
                    3D
 Schrodinger Suite 2021-1.
 37 40  0  0  1  0            999 V2000
   39.1936    6.1612   14.0359 C   0  0  0  0  0  0
   38.0700    5.6415   14.6923 C   0  0  0  0  0  0
   37.9053    5.8424   16.0745 C   0  0  0  0  0  0
   40.1850    6.8621   14.7159 C   0  0  0  0  0  0
   37.0707    4.8194   13.9118 C   0  0  0  0  0  0
   37.0780    4.8251   12.6793 O   0  0  0  0  0  0
   36.2774    4.0243   14.6722 N   0  0  0  0  0  0
   35.3087    3.1186   14.2728 C   0  0  0  0  0  0
   40.0662    7.0241   16.1001 C   0  0  0  0  0  0
   38.9241    6.4983   16.7649 C   0  0  0  0  0  0
   40.8609    7.6486   17.1027 C   0  0  0  0  0  0
   40.2295    7.4889   18.3225 C   0  0  0  0  0  0
   39.0647    6.7733   18.1142 N   0  0  0  0  0  0
   38.1172    6.4548   19.1782 C   0  0  0  0  0  0
   38.8891    6.4025   20.5252 C   0  0  1  0  0  0
   39.8119    7.5476   20.6256 N   0  0  0  0  0  0
   40.5815    8.0243   19.6184 C   0  0  0  0  0  0
   41.4780    8.8249   19.8647 O   0  0  0  0  0  0
   34.8292    2.9201   13.0678 N   0  0  0  0  0  0
   33.8782    2.0056   13.0685 C   0  0  0  0  0  0
   33.6006    1.4028   14.2928 C   0  0  0  0  0  0
   34.6353    2.0953   15.5034 S   0  0  0  0  0  0
   37.9370    6.2978   21.7251 C   0  0  0  0  0  0
   39.3191    6.0203   12.9705 H   0  0  0  0  0  0
   37.0434    5.4766   16.6142 H   0  0  0  0  0  0
   41.0315    7.2635   14.1798 H   0  0  0  0  0  0
   36.4482    4.0433   15.6639 H   0  0  0  0  0  0
   41.7972    8.1678   16.9709 H   0  0  0  0  0  0
   37.6275    5.5015   18.9741 H   0  0  0  0  0  0
   37.3469    7.2250   19.2043 H   0  0  0  0  0  0
   39.5141    5.5045   20.5403 H   0  0  0  0  0  0
   40.1007    7.8081   21.5587 H   0  0  0  0  0  0
   33.3919    1.7692   12.1339 H   0  0  0  0  0  0
   32.8811    0.6344   14.5329 H   0  0  0  0  0  0
   37.2553    5.4560   21.6056 H   0  0  0  0  0  0
   38.4866    6.1381   22.6549 H   0  0  0  0  0  0
   37.3198    7.1911   21.8300 H   0  0  0  0  0  0
  1  2  2  0  0  0
  1  4  1  0  0  0
  1 24  1  0  0  0
  2  5  1  0  0  0
  2  3  1  0  0  0
  3 10  2  0  0  0
  3 25  1  0  0  0
  4  9  2  0  0  0
  4 26  1  0  0  0
  5  6  2  0  0  0
  5  7  1  0  0  0
  7  8  1  0  0  0
  7 27  1  0  0  0
  8 19  2  0  0  0
  8 22  1  0  0  0
  9 11  1  0  0  0
  9 10  1  0  0  0
 10 13  1  0  0  0
 11 12  2  0  0  0
 11 28  1  0  0  0
 12 13  1  0  0  0
 12 17  1  0  0  0
 13 14  1  0  0  0
 14 15  1  0  0  0
 14 29  1  0  0  0
 14 30  1  0  0  0
 15 16  1  0  0  0
 15 23  1  0  0  0
 15 31  1  0  0  0
 16 17  1  0  0  0
 16 32  1  0  0  0
 17 18  2  0  0  0
 19 20  1  0  0  0
 20 21  2  0  0  0
 20 33  1  0  0  0
 21 22  1  0  0  0
 21 34  1  0  0  0
 23 35  1  0  0  0
 23 36  1  0  0  0
 23 37  1  0  0  0
M  END
> <s_m_entry_id>
7625

> <s_m_entry_name>
dock_pv.186

> <s_m_Source_Path>
/home/csk/Desktop/cluster/DUD-E-result/mapk2

> <s_m_Source_File>
dock_pv.maegz

> <i_m_Source_File_Index>
186

> <chembl_id>
CHEMBL272364

> <chembl_pref_name>
None

> <i_lp_mmshare_version>
53161

> <i_f3d_flags>
0

> <r_lp_tautomer_probability>
0.999000488399163

> <s_lp_Force_Field>
OPLS_2005

> <r_lp_Energy>
21.573975

> <b_lp_Chiralities_Consistent>
1

> <s_lp_Variant>
CHEMBL2208_lig211-2

> <s_i_glide_gridfile>
glide-grid_3m2w

> <i_i_glide_lignum>
334

> <i_i_glide_rotatable_bonds>
3

> <r_i_docking_score>
-7.04687317130125

> <r_i_glide_ligand_efficiency>
-0.306385790056576

> <r_i_glide_ligand_efficiency_sa>
-0.871320430526958

> <r_i_glide_ligand_efficiency_ln>
-1.7039978303338

> <r_i_glide_gscore>
-7.04687317130125

> <r_i_glide_lipo>
-2.55877963869405

> <r_i_glide_hbond>
-0.24048193148253

> <r_i_glide_metal>
0

> <r_i_glide_rewards>
-1.56228828492514

> <r_i_glide_evdw>
-38.4038276672363

> <r_i_glide_ecoul>
-7.91676330566406

> <r_i_glide_erotb>
0.528179042631369

> <r_i_glide_esite>
-0.105796479619476

> <r_i_glide_emodel>
-65.1771370256404

> <r_i_glide_energy>
-46.3205909729004

> <r_i_glide_einternal>
1.62790620326996

> <i_i_glide_confnum>
6

> <i_i_glide_posenum>
367

> <r_i_glide_eff_state_penalty>
0

> <s_user_duplicate_titles>
CHEMBL2208_lig211

> <s_m_subgroup_title>
dock_pv

> <s_m_subgroupid>
dock_pv

> <b_m_subgroup_collapsed>
1

$$$$
CHEMBL2208_lig284
                    3D
 Schrodinger Suite 2021-1.
 32 34  0  0  1  0            999 V2000
   39.5856    7.5190   18.3299 C   0  0  0  0  0  0
   38.6169    6.6252   17.8548 C   0  0  0  0  0  0
   40.6780    8.0220   17.0510 S   0  0  0  0  0  0
   39.9470    7.9955   19.6655 C   0  0  0  0  0  0
   38.7089    6.3939   16.4434 C   0  0  0  0  0  0
   37.6106    6.0237   18.5771 N   0  0  0  0  0  0
   39.8215    7.0628   15.8657 C   0  0  0  0  0  0
   38.9951    7.9642   20.6197 N   0  0  0  0  0  0
   37.8855    5.6259   15.5953 C   0  0  0  0  0  0
   41.0778    8.4254   19.9020 O   0  0  0  0  0  0
   40.1390    6.9292   14.5100 C   0  0  0  0  0  0
   37.4682    6.0847   20.0201 C   0  0  0  0  0  0
   37.6081    7.5158   20.5680 C   0  0  1  0  0  0
   38.1807    5.5172   14.2307 C   0  0  0  0  0  0
   39.3118    6.1408   13.7212 C   0  0  0  0  0  0
   37.4058    4.8250   13.3263 O   0  0  0  0  0  0
   36.9466    7.6469   21.9416 C   0  0  0  0  0  0
   36.2575    4.1208   13.7941 C   0  0  0  0  0  0
   37.0714    8.1964   19.9057 H   0  0  0  0  0  0
   37.1402    5.2425   18.1373 H   0  0  0  0  0  0
   39.3238    8.2698   21.5240 H   0  0  0  0  0  0
   37.0206    5.1350   16.0112 H   0  0  0  0  0  0
   40.9933    7.4344   14.0810 H   0  0  0  0  0  0
   38.1992    5.4230   20.4880 H   0  0  0  0  0  0
   36.4865    5.6771   20.2642 H   0  0  0  0  0  0
   39.5399    6.0259   12.6728 H   0  0  0  0  0  0
   35.9084    7.3125   21.8723 H   0  0  0  0  0  0
   37.4335    7.0204   22.6928 H   0  0  0  0  0  0
   36.9317    8.6820   22.2876 H   0  0  0  0  0  0
   35.7725    3.6244   12.9536 H   0  0  0  0  0  0
   36.5258    3.3504   14.5186 H   0  0  0  0  0  0
   35.5290    4.7963   14.2461 H   0  0  0  0  0  0
  1  2  2  0  0  0
  1  3  1  0  0  0
  1  4  1  0  0  0
  2  5  1  0  0  0
  2  6  1  0  0  0
  3  7  1  0  0  0
  4  8  1  0  0  0
  4 10  2  0  0  0
  5  9  2  0  0  0
  5  7  1  0  0  0
  6 12  1  0  0  0
  6 20  1  0  0  0
  7 11  2  0  0  0
  8 13  1  0  0  0
  8 21  1  0  0  0
  9 14  1  0  0  0
  9 22  1  0  0  0
 11 15  1  0  0  0
 11 23  1  0  0  0
 12 13  1  0  0  0
 12 24  1  0  0  0
 12 25  1  0  0  0
 13 17  1  0  0  0
 13 19  1  0  0  0
 14 16  1  0  0  0
 14 15  2  0  0  0
 15 26  1  0  0  0
 16 18  1  0  0  0
 17 27  1  0  0  0
 17 28  1  0  0  0
 17 29  1  0  0  0
 18 30  1  0  0  0
 18 31  1  0  0  0
 18 32  1  0  0  0
M  END
> <s_m_entry_id>
7626

> <s_m_entry_name>
dock_pv.187

> <s_m_Source_Path>
/home/csk/Desktop/cluster/DUD-E-result/mapk2

> <s_m_Source_File>
dock_pv.maegz

> <i_m_Source_File_Index>
187

> <chembl_id>
CHEMBL99780

> <chembl_pref_name>
None

> <i_lp_mmshare_version>
53161

> <i_f3d_flags>
0

> <r_lp_tautomer_probability>
1

> <s_lp_Force_Field>
OPLS_2005

> <r_lp_Energy>
24.085088

> <b_lp_Chiralities_Consistent>
1

> <s_lp_Variant>
CHEMBL2208_lig284-1

> <s_i_glide_gridfile>
glide-grid_3m2w

> <i_i_glide_lignum>
423

> <i_i_glide_rotatable_bonds>
1

> <r_i_docking_score>
-7.04264158909985

> <r_i_glide_ligand_efficiency>
-0.391257866061103

> <r_i_glide_ligand_efficiency_sa>
-1.02538568440826

> <r_i_glide_ligand_efficiency_ln>
-1.81027470570277

> <r_i_glide_gscore>
-7.04264158909985

> <r_i_glide_lipo>
-2.52989790654085

> <r_i_glide_hbond>
-0.147426486243445

> <r_i_glide_metal>
0

> <r_i_glide_rewards>
-1.75191808108001

> <r_i_glide_evdw>
-34.607364654541

> <r_i_glide_ecoul>
-5.46459674835205

> <r_i_glide_erotb>
0

> <r_i_glide_esite>
-0.0633413702556894

> <r_i_glide_emodel>
-57.2177926672447

> <r_i_glide_energy>
-40.0719614028931

> <r_i_glide_einternal>
0.00761013198643923

> <i_i_glide_confnum>
1

> <i_i_glide_posenum>
34

> <r_i_glide_eff_state_penalty>
0

> <s_user_duplicate_titles>
CHEMBL2208_lig284,165847

> <s_m_subgroup_title>
dock_pv

> <s_m_subgroupid>
dock_pv

> <b_m_subgroup_collapsed>
1

$$$$
CHEMBL2208_lig1345
                    3D
 Schrodinger Suite 2021-1.
 53 57  0  0  1  0            999 V2000
   37.7669    5.2118   22.2869 O   0  0  0  0  0  0
   39.9341    6.2784   13.7617 N   0  0  0  0  0  0
   38.8216    5.6253   13.3878 N   0  0  0  0  0  0
   35.8781    3.4390   17.3821 N   0  0  0  0  0  0
   38.8421    8.5057   21.1824 N   0  0  0  0  0  0
   35.1070    5.3940   21.4039 N   0  0  0  0  0  0
   38.7036    6.0552   15.5984 C   0  0  0  0  0  0
   39.9251    6.5734   15.1086 C   0  0  0  0  0  0
   39.2992    6.8649   17.8066 C   0  0  0  0  0  0
   38.3965    6.2058   16.9604 C   0  0  0  0  0  0
   38.0743    5.4693   14.4520 C   0  0  0  0  0  0
   38.9927    7.0415   19.2537 C   0  0  0  0  0  0
   34.6287    1.9807   18.5428 C   0  0  0  0  0  0
   35.1439    2.9588   19.4720 C   0  0  0  0  0  0
   40.8391    7.2295   15.9328 C   0  0  0  0  0  0
   35.1309    2.2984   17.2409 C   0  0  0  0  0  0
   40.4909    7.3710   17.2767 C   0  0  0  0  0  0
   38.5711    5.9704   20.0547 C   0  0  0  0  0  0
   38.2489    6.1682   21.4105 C   0  0  0  0  0  0
   35.8709    3.8377   18.6899 C   0  0  0  0  0  0
   39.1074    8.2929   19.8714 C   0  0  0  0  0  0
   34.9048    2.9778   20.9835 C   0  0  0  0  0  0
   33.7941    0.8584   18.6707 C   0  0  0  0  0  0
   34.8461    1.5280   16.1091 C   0  0  0  0  0  0
   35.6035    4.0892   21.8078 C   0  0  1  0  0  0
   38.4246    7.4523   21.9239 C   0  0  0  0  0  0
   36.7609    4.7254   14.3598 C   0  0  0  0  0  0
   33.5039    0.0905   17.5439 C   0  0  0  0  0  0
   37.1572    4.0141   21.7954 C   0  0  0  0  0  0
   34.0198    0.4207   16.2928 C   0  0  0  0  0  0
   40.6498    6.4955   13.0800 H   0  0  0  0  0  0
   36.3562    3.9511   16.6548 H   0  0  0  0  0  0
   35.5023    6.0801   22.0368 H   0  0  0  0  0  0
   35.4792    5.6029   20.4929 H   0  0  0  0  0  0
   37.4614    5.8353   17.3455 H   0  0  0  0  0  0
   41.7691    7.6249   15.5570 H   0  0  0  0  0  0
   41.1814    7.8839   17.9314 H   0  0  0  0  0  0
   38.5277    4.9948   19.6038 H   0  0  0  0  0  0
   36.4004    4.7315   18.9686 H   0  0  0  0  0  0
   39.4064    9.1659   19.3077 H   0  0  0  0  0  0
   33.8319    3.0249   21.1732 H   0  0  0  0  0  0
   35.2199    2.0253   21.4011 H   0  0  0  0  0  0
   33.3870    0.5900   19.6332 H   0  0  0  0  0  0
   35.2349    1.7797   15.1329 H   0  0  0  0  0  0
   35.2902    3.9753   22.8469 H   0  0  0  0  0  0
   38.2258    7.6502   22.9671 H   0  0  0  0  0  0
   35.9561    5.2408   14.8864 H   0  0  0  0  0  0
   36.4305    4.5853   13.3299 H   0  0  0  0  0  0
   36.8488    3.7258   14.7841 H   0  0  0  0  0  0
   32.8642   -0.7759   17.6453 H   0  0  0  0  0  0
   37.4606    3.2254   22.4854 H   0  0  0  0  0  0
   37.5450    3.6874   20.8343 H   0  0  0  0  0  0
   33.7675   -0.1952   15.4428 H   0  0  0  0  0  0
  1 19  1  0  0  0
  1 29  1  0  0  0
  2  3  1  0  0  0
  2  8  1  0  0  0
  2 31  1  0  0  0
  3 11  2  0  0  0
  4 16  1  0  0  0
  4 20  1  0  0  0
  4 32  1  0  0  0
  5 21  1  0  0  0
  5 26  2  0  0  0
  6 25  1  0  0  0
  6 33  1  0  0  0
  6 34  1  0  0  0
  7  8  1  0  0  0
  7 10  2  0  0  0
  7 11  1  0  0  0
  8 15  2  0  0  0
  9 10  1  0  0  0
  9 12  1  0  0  0
  9 17  2  0  0  0
 10 35  1  0  0  0
 11 27  1  0  0  0
 12 18  1  0  0  0
 12 21  2  0  0  0
 13 14  1  0  0  0
 13 16  1  0  0  0
 13 23  2  0  0  0
 14 20  2  0  0  0
 14 22  1  0  0  0
 15 17  1  0  0  0
 15 36  1  0  0  0
 16 24  2  0  0  0
 17 37  1  0  0  0
 18 19  2  0  0  0
 18 38  1  0  0  0
 19 26  1  0  0  0
 20 39  1  0  0  0
 21 40  1  0  0  0
 22 25  1  0  0  0
 22 41  1  0  0  0
 22 42  1  0  0  0
 23 28  1  0  0  0
 23 43  1  0  0  0
 24 30  1  0  0  0
 24 44  1  0  0  0
 25 29  1  0  0  0
 25 45  1  0  0  0
 26 46  1  0  0  0
 27 47  1  0  0  0
 27 48  1  0  0  0
 27 49  1  0  0  0
 28 30  2  0  0  0
 28 50  1  0  0  0
 29 51  1  0  0  0
 29 52  1  0  0  0
 30 53  1  0  0  0
M  END
> <s_m_entry_id>
7627

> <s_m_entry_name>
dock_pv.188

> <s_m_Source_Path>
/home/csk/Desktop/cluster/DUD-E-result/mapk2

> <s_m_Source_File>
dock_pv.maegz

> <i_m_Source_File_Index>
188

> <chembl_id>
CHEMBL1970903

> <chembl_pref_name>
None

> <i_lp_mmshare_version>
53161

> <i_f3d_flags>
0

> <r_lp_tautomer_probability>
0.980392156862745

> <s_lp_Force_Field>
OPLS_2005

> <r_lp_Energy>
23.29063

> <b_lp_Chiralities_Consistent>
1

> <s_lp_Variant>
CHEMBL2208_lig1345-2

> <s_i_glide_gridfile>
glide-grid_3m2w

> <i_i_glide_lignum>
1832

> <i_i_glide_rotatable_bonds>
6

> <r_i_docking_score>
-7.04146348807818

> <r_i_glide_ligand_efficiency>
-0.234715449602606

> <r_i_glide_ligand_efficiency_sa>
-0.729315473827944

> <r_i_glide_ligand_efficiency_ln>
-1.59989722738109

> <r_i_glide_gscore>
-7.04146348807818

> <r_i_glide_lipo>
-2.35992992187502

> <r_i_glide_hbond>
-0.504933801996029

> <r_i_glide_metal>
0

> <r_i_glide_rewards>
-1.57027532216428

> <r_i_glide_evdw>
-46.6534652709961

> <r_i_glide_ecoul>
-4.71546745300293

> <r_i_glide_erotb>
0.433668939457382

> <r_i_glide_esite>
0

> <r_i_glide_emodel>
-70.8345722653729

> <r_i_glide_energy>
-51.368932723999

> <r_i_glide_einternal>
4.03853178024292

> <i_i_glide_confnum>
11

> <i_i_glide_posenum>
245

> <r_i_glide_eff_state_penalty>
0

> <s_user_duplicate_titles>
CHEMBL2208_lig1345

> <s_m_subgroup_title>
dock_pv

> <s_m_subgroupid>
dock_pv

> <b_m_subgroup_collapsed>
1

$$$$
CHEMBL2208_lig1083
                    3D
 Schrodinger Suite 2021-1.
 35 37  0  0  1  0            999 V2000
   37.1597    5.8485   23.9925 S   0  0  0  0  0  0
   36.2425    5.2261   23.0320 O   0  0  0  0  0  0
   36.6782    6.6163   25.1441 O   0  0  0  0  0  0
   39.8797    6.2802   13.4720 N   0  0  0  0  0  0
   38.7575    5.6253   13.1090 N   0  0  0  0  0  0
   38.2773    6.9048   23.1181 N   0  0  0  0  0  0
   36.8383    4.8255   14.2024 N   0  0  0  0  0  0
   38.7083    5.9878   15.3406 C   0  0  0  0  0  0
   39.9047    6.5437   14.8277 C   0  0  0  0  0  0
   39.3858    6.6750   17.5567 C   0  0  0  0  0  0
   38.0488    5.4548   14.1932 C   0  0  0  0  0  0
   38.4522    6.0589   16.7171 C   0  0  0  0  0  0
   39.1428    6.7160   19.0199 C   0  0  0  0  0  0
   40.8313    7.1926   15.6464 C   0  0  0  0  0  0
   40.5427    7.2428   17.0106 C   0  0  0  0  0  0
   38.5836    6.7974   21.7583 C   0  0  0  0  0  0
   38.8127    5.5445   19.7129 C   0  0  0  0  0  0
   39.2256    7.9229   19.7210 C   0  0  0  0  0  0
   38.5421    5.5799   21.0758 C   0  0  0  0  0  0
   38.9442    7.9640   21.0829 C   0  0  0  0  0  0
   38.2780    4.5382   24.6695 C   0  0  0  0  0  0
   40.5774    6.5199   12.7759 H   0  0  0  0  0  0
   38.5929    7.7238   23.6177 H   0  0  0  0  0  0
   36.1844    4.9302   14.9671 H   0  0  0  0  0  0
   36.4920    4.3543   13.3788 H   0  0  0  0  0  0
   37.5484    5.6273   17.1237 H   0  0  0  0  0  0
   41.7381    7.6275   15.2530 H   0  0  0  0  0  0
   41.2544    7.7193   17.6677 H   0  0  0  0  0  0
   38.7680    4.5975   19.1990 H   0  0  0  0  0  0
   39.4754    8.8353   19.1998 H   0  0  0  0  0  0
   38.2993    4.6596   21.5873 H   0  0  0  0  0  0
   38.9881    8.9038   21.6124 H   0  0  0  0  0  0
   37.7252    4.0251   25.4427 H   0  0  0  0  0  0
   39.1542    5.0289   25.0987 H   0  0  0  0  0  0
   38.5871    3.8627   23.8689 H   0  0  0  0  0  0
  1  2  2  0  0  0
  1  3  2  0  0  0
  1  6  1  0  0  0
  1 21  1  0  0  0
  4  5  1  0  0  0
  4  9  1  0  0  0
  4 22  1  0  0  0
  5 11  2  0  0  0
  6 16  1  0  0  0
  6 23  1  0  0  0
  7 11  1  0  0  0
  7 24  1  0  0  0
  7 25  1  0  0  0
  8  9  1  0  0  0
  8 11  1  0  0  0
  8 12  2  0  0  0
  9 14  2  0  0  0
 10 12  1  0  0  0
 10 13  1  0  0  0
 10 15  2  0  0  0
 12 26  1  0  0  0
 13 17  2  0  0  0
 13 18  1  0  0  0
 14 15  1  0  0  0
 14 27  1  0  0  0
 15 28  1  0  0  0
 16 19  2  0  0  0
 16 20  1  0  0  0
 17 19  1  0  0  0
 17 29  1  0  0  0
 18 20  2  0  0  0
 18 30  1  0  0  0
 19 31  1  0  0  0
 20 32  1  0  0  0
 21 33  1  0  0  0
 21 34  1  0  0  0
 21 35  1  0  0  0
M  END
> <s_m_entry_id>
7628

> <s_m_entry_name>
dock_pv.189

> <s_m_Source_Path>
/home/csk/Desktop/cluster/DUD-E-result/mapk2

> <s_m_Source_File>
dock_pv.maegz

> <i_m_Source_File_Index>
189

> <chembl_id>
CHEMBL2004892

> <chembl_pref_name>
None

> <i_lp_mmshare_version>
53161

> <i_f3d_flags>
0

> <r_lp_tautomer_probability>
1

> <s_lp_Force_Field>
OPLS_2005

> <r_lp_Energy>
4.65051

> <b_lp_Chiralities_Consistent>
1

> <s_lp_Variant>
CHEMBL2208_lig1083-1

> <s_i_glide_gridfile>
glide-grid_3m2w

> <i_i_glide_lignum>
1431

> <i_i_glide_rotatable_bonds>
3

> <r_i_docking_score>
-7.04135733951281

> <r_i_glide_ligand_efficiency>
-0.335302730452991

> <r_i_glide_ligand_efficiency_sa>
-0.925074808514555

> <r_i_glide_ligand_efficiency_ln>
-1.74096137379231

> <r_i_glide_gscore>
-7.04135733951281

> <r_i_glide_lipo>
-1.92432604324746

> <r_i_glide_hbond>
-0.579331192614789

> <r_i_glide_metal>
0

> <r_i_glide_rewards>
-2.31461584664692

> <r_i_glide_evdw>
-36.0317459106445

> <r_i_glide_ecoul>
-4.03128433227539

> <r_i_glide_erotb>
0.281951040115371

> <r_i_glide_esite>
-0.0987553517454824

> <r_i_glide_emodel>
-56.8310172174861

> <r_i_glide_energy>
-40.0630302429199

> <r_i_glide_einternal>
0.447789490222931

> <i_i_glide_confnum>
4

> <i_i_glide_posenum>
343

> <r_i_glide_eff_state_penalty>
0

> <s_user_duplicate_titles>
CHEMBL2208_lig1083

> <s_m_subgroup_title>
dock_pv

> <s_m_subgroupid>
dock_pv

> <b_m_subgroup_collapsed>
1

$$$$
CHEMBL2208_lig1024
                    3D
 Schrodinger Suite 2021-1.
 45 47  0  0  1  0            999 V2000
   39.2967    8.2309   21.7407 O   0  0  0  0  0  0
   38.2780    8.3934   24.3315 O   0  0  0  0  0  0
   38.2777    6.2191   22.1370 N   0  0  0  0  0  0
   38.3183    5.5892   12.8813 N   0  0  0  0  0  0
   38.4969    6.4133   17.1061 C   0  0  0  0  0  0
   38.6267    6.9385   19.8654 C   0  0  0  0  0  0
   38.4422    6.1098   15.6454 C   0  0  0  0  0  0
   38.7488    7.2021   21.3449 C   0  0  0  0  0  0
   39.4089    7.3483   17.6130 C   0  0  0  0  0  0
   37.6343    5.7660   17.9995 C   0  0  0  0  0  0
   39.4763    7.6056   18.9761 C   0  0  0  0  0  0
   37.6892    6.0293   19.3598 C   0  0  0  0  0  0
   38.4102    6.0246   23.5857 C   0  0  2  0  0  0
   39.5659    6.2884   14.8206 C   0  0  0  0  0  0
   37.2678    5.6229   15.0480 C   0  0  0  0  0  0
   37.9461    4.5896   23.9586 C   0  0  0  0  0  0
   36.5195    4.2204   23.5525 C   0  0  0  0  0  0
   39.4631    6.0278   13.4567 C   0  0  0  0  0  0
   37.2585    5.3470   13.6853 C   0  0  0  0  0  0
   37.7308    7.0978   24.4805 C   0  0  0  0  0  0
   35.4640    4.4251   24.4449 C   0  0  0  0  0  0
   36.2766    3.6254   22.3093 C   0  0  0  0  0  0
   34.1728    4.0332   24.0967 C   0  0  0  0  0  0
   34.9878    3.2329   21.9616 C   0  0  0  0  0  0
   33.9418    3.4387   22.8576 C   0  0  0  0  0  0
   39.2543    8.2916   24.2723 H   0  0  0  0  0  0
   37.8885    5.4231   21.6597 H   0  0  0  0  0  0
   40.0782    7.8854   16.9579 H   0  0  0  0  0  0
   36.9203    5.0325   17.6579 H   0  0  0  0  0  0
   40.2043    8.3175   19.3332 H   0  0  0  0  0  0
   37.0001    5.5026   20.0043 H   0  0  0  0  0  0
   39.4746    6.0250   23.8242 H   0  0  0  0  0  0
   40.5102    6.6305   15.2154 H   0  0  0  0  0  0
   36.3677    5.4473   15.6178 H   0  0  0  0  0  0
   38.0684    4.4258   25.0297 H   0  0  0  0  0  0
   38.6137    3.8571   23.4975 H   0  0  0  0  0  0
   40.3049    6.1797   12.7961 H   0  0  0  0  0  0
   36.3874    4.9106   13.2206 H   0  0  0  0  0  0
   36.6668    7.1597   24.2626 H   0  0  0  0  0  0
   37.8458    6.8288   25.5312 H   0  0  0  0  0  0
   35.6433    4.8745   25.4111 H   0  0  0  0  0  0
   37.0910    3.4338   21.6259 H   0  0  0  0  0  0
   33.3544    4.1913   24.7852 H   0  0  0  0  0  0
   34.8030    2.7460   21.0135 H   0  0  0  0  0  0
   32.9417    3.1298   22.5920 H   0  0  0  0  0  0
  1  8  2  0  0  0
  2 20  1  0  0  0
  2 26  1  0  0  0
  3  8  1  0  0  0
  3 13  1  0  0  0
  3 27  1  0  0  0
  4 18  2  0  0  0
  4 19  1  0  0  0
  5  7  1  0  0  0
  5  9  2  0  0  0
  5 10  1  0  0  0
  6  8  1  0  0  0
  6 11  2  0  0  0
  6 12  1  0  0  0
  7 14  2  0  0  0
  7 15  1  0  0  0
  9 11  1  0  0  0
  9 28  1  0  0  0
 10 12  2  0  0  0
 10 29  1  0  0  0
 11 30  1  0  0  0
 12 31  1  0  0  0
 13 16  1  0  0  0
 13 20  1  0  0  0
 13 32  1  0  0  0
 14 18  1  0  0  0
 14 33  1  0  0  0
 15 19  2  0  0  0
 15 34  1  0  0  0
 16 17  1  0  0  0
 16 35  1  0  0  0
 16 36  1  0  0  0
 17 21  2  0  0  0
 17 22  1  0  0  0
 18 37  1  0  0  0
 19 38  1  0  0  0
 20 39  1  0  0  0
 20 40  1  0  0  0
 21 23  1  0  0  0
 21 41  1  0  0  0
 22 24  2  0  0  0
 22 42  1  0  0  0
 23 25  2  0  0  0
 23 43  1  0  0  0
 24 25  1  0  0  0
 24 44  1  0  0  0
 25 45  1  0  0  0
M  END
> <s_m_entry_id>
7629

> <s_m_entry_name>
dock_pv.190

> <s_m_Source_Path>
/home/csk/Desktop/cluster/DUD-E-result/mapk2

> <s_m_Source_File>
dock_pv.maegz

> <i_m_Source_File_Index>
190

> <chembl_id>
CHEMBL1998545

> <chembl_pref_name>
None

> <i_lp_mmshare_version>
53161

> <i_f3d_flags>
0

> <r_lp_tautomer_probability>
1

> <s_lp_Force_Field>
OPLS_2005

> <r_lp_Energy>
17.302386

> <b_lp_Chiralities_Consistent>
1

> <s_lp_Variant>
CHEMBL2208_lig1024-1

> <s_i_glide_gridfile>
glide-grid_3m2w

> <i_i_glide_lignum>
1334

> <i_i_glide_rotatable_bonds>
8

> <r_i_docking_score>
-7.03632511385755

> <r_i_glide_ligand_efficiency>
-0.281453004554302

> <r_i_glide_ligand_efficiency_sa>
-0.822973576907069

> <r_i_glide_ligand_efficiency_ln>
-1.66781991363241

> <r_i_glide_gscore>
-7.03632511385755

> <r_i_glide_lipo>
-2.28406631565396

> <r_i_glide_hbond>
-0.304

> <r_i_glide_metal>
0

> <r_i_glide_rewards>
-1.64121897542071

> <r_i_glide_evdw>
-33.7437629699707

> <r_i_glide_ecoul>
-13.6408777236938

> <r_i_glide_erotb>
1.02277610095143

> <r_i_glide_esite>
-0.0964961166816959

> <r_i_glide_emodel>
-66.9922158529015

> <r_i_glide_energy>
-47.3846406936646

> <r_i_glide_einternal>
3.04232215881348

> <i_i_glide_confnum>
62

> <i_i_glide_posenum>
313

> <r_i_glide_eff_state_penalty>
0

> <s_user_duplicate_titles>
CHEMBL2208_lig1024

> <s_m_subgroup_title>
dock_pv

> <s_m_subgroupid>
dock_pv

> <b_m_subgroup_collapsed>
1

$$$$
CHEMBL2208_lig122
                    3D
 Schrodinger Suite 2021-1.
 29 31  0  0  1  0            999 V2000
   38.2316    5.6851   13.8096 C   0  0  0  0  0  0
   39.4541    6.3290   13.6537 C   0  0  0  0  0  0
   40.1558    6.8601   14.7302 C   0  0  0  0  0  0
   37.6661    5.5143   15.0713 C   0  0  0  0  0  0
   38.3712    5.9781   16.1946 C   0  0  0  0  0  0
   39.6171    6.6460   15.9972 C   0  0  0  0  0  0
   40.1021    6.9678   17.2416 N   0  0  0  0  0  0
   38.1504    5.9248   17.6120 C   0  0  0  0  0  0
   39.2390    6.5216   18.2133 C   0  0  0  0  0  0
   39.4610    6.5909   19.7227 C   0  0  2  0  0  0
   38.2233    6.2523   20.4651 N   0  0  1  0  0  0
   37.5327    5.0886   19.8995 C   0  0  0  0  0  0
   37.0309    5.3379   18.4505 C   0  0  0  0  0  0
   39.9080    8.0238   20.0780 C   0  0  0  0  0  0
   38.8831    8.8028   20.5278 O   0  0  0  0  0  0
   41.0539    8.4252   19.8716 O   0  0  0  0  0  0
   37.5859    5.2153   12.7003 O   0  0  0  0  0  0
   39.8753    6.4324   12.6694 H   0  0  0  0  0  0
   41.0785    7.3924   14.5782 H   0  0  0  0  0  0
   36.7202    5.0070   15.1919 H   0  0  0  0  0  0
   40.9667    7.4400   17.4655 H   0  0  0  0  0  0
   40.2780    5.9406   20.0362 H   0  0  0  0  0  0
   38.4856    6.0034   21.4140 H   0  0  0  0  0  0
   36.6947    4.8139   20.5406 H   0  0  0  0  0  0
   38.2050    4.2274   19.9136 H   0  0  0  0  0  0
   36.6577    4.4024   18.0348 H   0  0  0  0  0  0
   36.1681    5.9963   18.4609 H   0  0  0  0  0  0
   38.1281    8.2045   20.5956 H   0  0  0  0  0  0
   36.8439    4.6462   12.9214 H   0  0  0  0  0  0
  1  2  2  0  0  0
  1  4  1  0  0  0
  1 17  1  0  0  0
  2  3  1  0  0  0
  2 18  1  0  0  0
  3  6  2  0  0  0
  3 19  1  0  0  0
  4  5  2  0  0  0
  4 20  1  0  0  0
  5  6  1  0  0  0
  5  8  1  0  0  0
  6  7  1  0  0  0
  7  9  1  0  0  0
  7 21  1  0  0  0
  8  9  2  0  0  0
  8 13  1  0  0  0
  9 10  1  0  0  0
 10 11  1  0  0  0
 10 14  1  0  0  0
 10 22  1  0  0  0
 11 12  1  0  0  0
 11 23  1  0  0  0
 12 13  1  0  0  0
 12 24  1  0  0  0
 12 25  1  0  0  0
 13 26  1  0  0  0
 13 27  1  0  0  0
 14 15  1  0  0  0
 14 16  2  0  0  0
 15 28  1  0  0  0
 17 29  1  0  0  0
M  END
> <s_m_entry_id>
7630

> <s_m_entry_name>
dock_pv.191

> <s_m_Source_Path>
/home/csk/Desktop/cluster/DUD-E-result/mapk2

> <s_m_Source_File>
dock_pv.maegz

> <i_m_Source_File_Index>
191

> <chembl_id>
CHEMBL246099

> <chembl_pref_name>
None

> <i_lp_mmshare_version>
53161

> <i_f3d_flags>
0

> <r_lp_tautomer_probability>
1

> <s_lp_Force_Field>
OPLS_2005

> <r_lp_Energy>
14.836859

> <b_lp_Chiralities_Consistent>
1

> <s_lp_Variant>
CHEMBL2208_lig122-1

> <s_i_glide_gridfile>
glide-grid_3m2w

> <i_i_glide_lignum>
166

> <i_i_glide_rotatable_bonds>
3

> <r_i_docking_score>
-7.03537563336

> <r_i_glide_ligand_efficiency>
-0.413845625491765

> <r_i_glide_ligand_efficiency_sa>
-1.06411363719646

> <r_i_glide_ligand_efficiency_ln>
-1.83537283263116

> <r_i_glide_gscore>
-7.03537563336

> <r_i_glide_lipo>
-2.11902252882824

> <r_i_glide_hbond>
-0.457252068108487

> <r_i_glide_metal>
0

> <r_i_glide_rewards>
-1.86733521212121

> <r_i_glide_evdw>
-30.8748168945312

> <r_i_glide_ecoul>
-8.80042266845703

> <r_i_glide_erotb>
0.317535393332905

> <r_i_glide_esite>
-0.0454969726398444

> <r_i_glide_emodel>
-56.3186812896416

> <r_i_glide_energy>
-39.6752395629883

> <r_i_glide_einternal>
1.88007974624634

> <i_i_glide_confnum>
2

> <i_i_glide_posenum>
120

> <r_i_glide_eff_state_penalty>
0

> <s_user_duplicate_titles>
CHEMBL2208_lig122

> <s_m_subgroup_title>
dock_pv

> <s_m_subgroupid>
dock_pv

> <b_m_subgroup_collapsed>
1

$$$$
CHEMBL2208_lig41
                    3D
 Schrodinger Suite 2021-1.
 30 32  0  0  1  0            999 V2000
   38.6799    6.2403   15.5088 C   0  0  0  0  0  0
   37.7521    5.7308   16.4425 C   0  0  0  0  0  0
   37.8872    6.0021   17.8151 C   0  0  0  0  0  0
   39.7284    7.0646   15.9584 C   0  0  0  0  0  0
   38.9461    6.8250   18.2276 C   0  0  0  0  0  0
   39.8491    7.3539   17.3130 C   0  0  0  0  0  0
   39.1661    7.1694   19.5441 O   0  0  0  0  0  0
   38.3684    6.6601   20.5453 C   0  0  0  0  0  0
   36.9613    5.3862   18.8685 C   0  0  0  0  0  0
   38.5563    5.8995   14.0892 C   0  0  0  0  0  0
   37.2800    5.8118   20.2915 C   0  0  0  0  0  0
   38.4528    5.6250   12.9725 N   0  0  0  0  0  0
   38.7002    7.0312   21.8472 C   0  0  0  0  0  0
   36.6780    4.9289   16.0301 N   0  0  0  0  0  0
   40.6780    7.6250   15.0975 N   0  0  0  0  0  0
   36.5284    5.3537   21.3796 C   0  0  0  0  0  0
   37.9445    6.5614   22.9173 C   0  0  0  0  0  0
   36.8546    5.7272   22.6832 C   0  0  0  0  0  0
   38.2780    6.9132   24.1961 O   0  0  0  0  0  0
   40.6503    7.9843   17.6685 H   0  0  0  0  0  0
   35.9234    5.6250   18.6386 H   0  0  0  0  0  0
   37.0428    4.2993   18.8128 H   0  0  0  0  0  0
   39.5456    7.6757   22.0277 H   0  0  0  0  0  0
   35.9151    4.7641   16.6720 H   0  0  0  0  0  0
   36.5476    4.7516   15.0448 H   0  0  0  0  0  0
   41.3579    8.2785   15.4605 H   0  0  0  0  0  0
   40.6176    7.4413   14.1058 H   0  0  0  0  0  0
   35.6906    4.6914   21.2165 H   0  0  0  0  0  0
   36.2656    5.3647   23.5129 H   0  0  0  0  0  0
   39.2035    7.2250   24.2720 H   0  0  0  0  0  0
  1  2  2  0  0  0
  1  4  1  0  0  0
  1 10  1  0  0  0
  2  3  1  0  0  0
  2 14  1  0  0  0
  3  9  1  0  0  0
  3  5  2  0  0  0
  4  6  2  0  0  0
  4 15  1  0  0  0
  5  6  1  0  0  0
  5  7  1  0  0  0
  6 20  1  0  0  0
  7  8  1  0  0  0
  8 13  2  0  0  0
  8 11  1  0  0  0
  9 11  1  0  0  0
  9 21  1  0  0  0
  9 22  1  0  0  0
 10 12  3  0  0  0
 11 16  2  0  0  0
 13 17  1  0  0  0
 13 23  1  0  0  0
 14 24  1  0  0  0
 14 25  1  0  0  0
 15 26  1  0  0  0
 15 27  1  0  0  0
 16 18  1  0  0  0
 16 28  1  0  0  0
 17 19  1  0  0  0
 17 18  2  0  0  0
 18 29  1  0  0  0
 19 30  1  0  0  0
M  END
> <s_m_entry_id>
7631

> <s_m_entry_name>
dock_pv.192

> <s_m_Source_Path>
/home/csk/Desktop/cluster/DUD-E-result/mapk2

> <s_m_Source_File>
dock_pv.maegz

> <i_m_Source_File_Index>
192

> <chembl_id>
CHEMBL3706766

> <chembl_pref_name>
None

> <i_lp_mmshare_version>
53161

> <i_f3d_flags>
0

> <r_lp_tautomer_probability>
1

> <s_lp_Force_Field>
OPLS_2005

> <r_lp_Energy>
26.929037

> <b_lp_Chiralities_Consistent>
1

> <s_lp_Variant>
CHEMBL2208_lig41-1

> <s_i_glide_gridfile>
glide-grid_3m2w

> <i_i_glide_lignum>
46

> <i_i_glide_rotatable_bonds>
1

> <r_i_docking_score>
-7.03342330438151

> <r_i_glide_ligand_efficiency>
-0.370180173914816

> <r_i_glide_ligand_efficiency_sa>
-0.987789385428977

> <r_i_glide_ligand_efficiency_ln>
-1.78312387174205

> <r_i_glide_gscore>
-7.03342330438151

> <r_i_glide_lipo>
-1.42768733949059

> <r_i_glide_hbond>
-0.523698400210525

> <r_i_glide_metal>
0

> <r_i_glide_rewards>
-2.19023040245561

> <r_i_glide_evdw>
-29.0006732940674

> <r_i_glide_ecoul>
-9.50979804992676

> <r_i_glide_erotb>
0

> <r_i_glide_esite>
-0.0153037900324092

> <r_i_glide_emodel>
-55.8553574995326

> <r_i_glide_energy>
-38.5104713439941

> <r_i_glide_einternal>
0.569562375545502

> <i_i_glide_confnum>
1

> <i_i_glide_posenum>
384

> <r_i_glide_eff_state_penalty>
0

> <s_user_duplicate_titles>
CHEMBL2208_lig41

> <s_m_subgroup_title>
dock_pv

> <s_m_subgroupid>
dock_pv

> <b_m_subgroup_collapsed>
1

$$$$
CHEMBL2208_lig298
                    3D
 Schrodinger Suite 2021-1.
 32 34  0  0  1  0            999 V2000
   39.5321    7.1011   18.5768 C   0  0  0  0  0  0
   38.4984    6.4249   17.9211 C   0  0  0  0  0  0
   40.6781    7.7986   17.4386 S   0  0  0  0  0  0
   39.7587    7.4562   19.9715 C   0  0  0  0  0  0
   38.6883    6.3640   16.5024 C   0  0  0  0  0  0
   37.4135    5.8023   18.5001 N   0  0  0  0  0  0
   39.8630    7.0507   16.0882 C   0  0  0  0  0  0
   39.2126    6.6654   20.9137 N   0  0  0  0  0  0
   37.9081    5.7387   15.5139 C   0  0  0  0  0  0
   40.4541    8.4250   20.2721 O   0  0  0  0  0  0
   40.2613    7.0940   14.7479 C   0  0  0  0  0  0
   37.0873    5.8086   19.9157 C   0  0  0  0  0  0
   38.3006    5.5275   20.8227 C   0  0  2  0  0  0
   38.3108    5.7673   14.1720 C   0  0  0  0  0  0
   39.4806    6.4250   13.8151 C   0  0  0  0  0  0
   37.6067    5.1748   13.1458 O   0  0  0  0  0  0
   37.8411    5.1237   22.2318 C   0  0  0  0  0  0
   36.4413    4.4243   13.4720 C   0  0  0  0  0  0
   38.8649    4.6843   20.4177 H   0  0  0  0  0  0
   36.6682    5.5020   17.8852 H   0  0  0  0  0  0
   39.4690    6.9384   21.8532 H   0  0  0  0  0  0
   37.0075    5.2251   15.8085 H   0  0  0  0  0  0
   41.1488    7.6267   14.4417 H   0  0  0  0  0  0
   36.3221    5.0469   20.0715 H   0  0  0  0  0  0
   36.6305    6.7645   20.1781 H   0  0  0  0  0  0
   39.7862    6.4251   12.7794 H   0  0  0  0  0  0
   37.1562    4.2767   22.1876 H   0  0  0  0  0  0
   38.6780    4.8145   22.8577 H   0  0  0  0  0  0
   37.3076    5.9339   22.7308 H   0  0  0  0  0  0
   36.0299    3.9802   12.5659 H   0  0  0  0  0  0
   36.6722    3.6158   14.1652 H   0  0  0  0  0  0
   35.6684    5.0532   13.9161 H   0  0  0  0  0  0
  1  2  2  0  0  0
  1  3  1  0  0  0
  1  4  1  0  0  0
  2  5  1  0  0  0
  2  6  1  0  0  0
  3  7  1  0  0  0
  4  8  1  0  0  0
  4 10  2  0  0  0
  5  9  2  0  0  0
  5  7  1  0  0  0
  6 12  1  0  0  0
  6 20  1  0  0  0
  7 11  2  0  0  0
  8 13  1  0  0  0
  8 21  1  0  0  0
  9 14  1  0  0  0
  9 22  1  0  0  0
 11 15  1  0  0  0
 11 23  1  0  0  0
 12 13  1  0  0  0
 12 24  1  0  0  0
 12 25  1  0  0  0
 13 17  1  0  0  0
 13 19  1  0  0  0
 14 16  1  0  0  0
 14 15  2  0  0  0
 15 26  1  0  0  0
 16 18  1  0  0  0
 17 27  1  0  0  0
 17 28  1  0  0  0
 17 29  1  0  0  0
 18 30  1  0  0  0
 18 31  1  0  0  0
 18 32  1  0  0  0
M  END
> <s_m_entry_id>
7632

> <s_m_entry_name>
dock_pv.193

> <s_m_Source_Path>
/home/csk/Desktop/cluster/DUD-E-result/mapk2

> <s_m_Source_File>
dock_pv.maegz

> <i_m_Source_File_Index>
193

> <chembl_id>
CHEMBL100818

> <chembl_pref_name>
None

> <i_lp_mmshare_version>
53161

> <i_f3d_flags>
0

> <r_lp_tautomer_probability>
1

> <s_lp_Force_Field>
OPLS_2005

> <r_lp_Energy>
24.088934

> <b_lp_Chiralities_Consistent>
1

> <s_lp_Variant>
CHEMBL2208_lig298-1

> <s_i_glide_gridfile>
glide-grid_3m2w

> <i_i_glide_lignum>
437

> <i_i_glide_rotatable_bonds>
1

> <r_i_docking_score>
-7.0297535232744

> <r_i_glide_ligand_efficiency>
-0.390541862404133

> <r_i_glide_ligand_efficiency_sa>
-1.02350922398784

> <r_i_glide_ligand_efficiency_ln>
-1.80696189483854

> <r_i_glide_gscore>
-7.0297535232744

> <r_i_glide_lipo>
-2.25097093742482

> <r_i_glide_hbond>
-0.197706582543091

> <r_i_glide_metal>
0

> <r_i_glide_rewards>
-1.75284920892553

> <r_i_glide_evdw>
-33.7682304382324

> <r_i_glide_ecoul>
-7.06742811203003

> <r_i_glide_erotb>
0

> <r_i_glide_esite>
-0.0797010556648316

> <r_i_glide_emodel>
-58.8697482572899

> <r_i_glide_energy>
-40.8356585502625

> <r_i_glide_einternal>
0.00216188747435808

> <i_i_glide_confnum>
1

> <i_i_glide_posenum>
348

> <r_i_glide_eff_state_penalty>
0

> <s_user_duplicate_titles>
CHEMBL2208_lig298,165051

> <s_m_subgroup_title>
dock_pv

> <s_m_subgroupid>
dock_pv

> <b_m_subgroup_collapsed>
1

$$$$
CHEMBL2208_lig159
                    3D
 Schrodinger Suite 2021-1.
 41 44  0  0  1  0            999 V2000
   38.2731    6.0914   19.3697 C   0  0  1  0  0  0
   39.2927    6.4249   14.0178 C   0  0  0  0  0  0
   38.2210    5.7221   14.5910 C   0  0  0  0  0  0
   38.0492    5.7455   15.9839 C   0  0  0  0  0  0
   40.1908    7.1779   14.7725 C   0  0  0  0  0  0
   39.9948    7.1841   16.1536 C   0  0  0  0  0  0
   38.9418    6.4599   16.7786 C   0  0  0  0  0  0
   40.6784    7.8191   17.1627 N   0  0  0  0  0  0
   40.1386    7.4973   18.3845 C   0  0  0  0  0  0
   39.0649    6.6437   18.1888 C   0  0  0  0  0  0
   39.2081    6.1664   20.6106 C   0  0  0  0  0  0
   39.8778    7.4856   20.6720 N   0  0  0  0  0  0
   40.6017    7.9945   19.6481 C   0  0  0  0  0  0
   41.4780    8.8250   19.8447 O   0  0  0  0  0  0
   36.9444    6.8247   19.6088 C   0  0  0  0  0  0
   37.2689    4.9502   13.7052 C   0  0  0  0  0  0
   36.3031    4.2644   14.3605 N   0  0  0  0  0  0
   37.4211    4.9755   12.4824 O   0  0  0  0  0  0
   35.2724    3.4375   13.8946 C   0  0  0  0  0  0
   34.4969    2.8245   14.8815 C   0  0  0  0  0  0
   33.4188    2.0173   14.5318 C   0  0  0  0  0  0
   33.1112    1.8228   13.1892 C   0  0  0  0  0  0
   33.8779    2.4251   12.1960 C   0  0  0  0  0  0
   34.9719    3.2249   12.5438 C   0  0  0  0  0  0
   38.0449    5.0392   19.1908 H   0  0  0  0  0  0
   39.4397    6.4081   12.9461 H   0  0  0  0  0  0
   37.2503    5.2156   16.4797 H   0  0  0  0  0  0
   40.9964    7.7242   14.3021 H   0  0  0  0  0  0
   41.4701    8.4399   17.0711 H   0  0  0  0  0  0
   39.9654    5.3819   20.5655 H   0  0  0  0  0  0
   38.6543    5.9938   21.5351 H   0  0  0  0  0  0
   40.0320    7.8797   21.5891 H   0  0  0  0  0  0
   36.3029    6.7919   18.7268 H   0  0  0  0  0  0
   36.3911    6.3698   20.4311 H   0  0  0  0  0  0
   37.1064    7.8710   19.8720 H   0  0  0  0  0  0
   36.3232    4.3439   15.3628 H   0  0  0  0  0  0
   34.7111    2.9839   15.9290 H   0  0  0  0  0  0
   32.8189    1.5527   15.3004 H   0  0  0  0  0  0
   32.2716    1.2017   12.9154 H   0  0  0  0  0  0
   33.6372    2.2661   11.1552 H   0  0  0  0  0  0
   35.5580    3.6603   11.7505 H   0  0  0  0  0  0
  1 10  1  0  0  0
  1 11  1  0  0  0
  1 15  1  0  0  0
  1 25  1  0  0  0
  2  3  2  0  0  0
  2  5  1  0  0  0
  2 26  1  0  0  0
  3  4  1  0  0  0
  3 16  1  0  0  0
  4  7  2  0  0  0
  4 27  1  0  0  0
  5  6  2  0  0  0
  5 28  1  0  0  0
  6  8  1  0  0  0
  6  7  1  0  0  0
  7 10  1  0  0  0
  8  9  1  0  0  0
  8 29  1  0  0  0
  9 13  1  0  0  0
  9 10  2  0  0  0
 11 12  1  0  0  0
 11 30  1  0  0  0
 11 31  1  0  0  0
 12 13  1  0  0  0
 12 32  1  0  0  0
 13 14  2  0  0  0
 15 33  1  0  0  0
 15 34  1  0  0  0
 15 35  1  0  0  0
 16 17  1  0  0  0
 16 18  2  0  0  0
 17 19  1  0  0  0
 17 36  1  0  0  0
 19 20  2  0  0  0
 19 24  1  0  0  0
 20 21  1  0  0  0
 20 37  1  0  0  0
 21 22  2  0  0  0
 21 38  1  0  0  0
 22 23  1  0  0  0
 22 39  1  0  0  0
 23 24  2  0  0  0
 23 40  1  0  0  0
 24 41  1  0  0  0
M  END
> <s_m_entry_id>
7633

> <s_m_entry_name>
dock_pv.194

> <s_m_Source_Path>
/home/csk/Desktop/cluster/DUD-E-result/mapk2

> <s_m_Source_File>
dock_pv.maegz

> <i_m_Source_File_Index>
194

> <chembl_id>
CHEMBL393057

> <chembl_pref_name>
None

> <i_lp_mmshare_version>
53161

> <i_f3d_flags>
0

> <r_lp_tautomer_probability>
1

> <s_lp_Force_Field>
OPLS_2005

> <r_lp_Energy>
31.384243

> <b_lp_Chiralities_Consistent>
1

> <s_lp_Variant>
CHEMBL2208_lig159-2

> <s_i_glide_gridfile>
glide-grid_3m2w

> <i_i_glide_lignum>
240

> <i_i_glide_rotatable_bonds>
3

> <r_i_docking_score>
-7.02707198269816

> <r_i_glide_ligand_efficiency>
-0.292794665945756

> <r_i_glide_ligand_efficiency_sa>
-0.844565961402445

> <r_i_glide_ligand_efficiency_ln>
-1.68190077678175

> <r_i_glide_gscore>
-7.02707198269816

> <r_i_glide_lipo>
-2.60120613954855

> <r_i_glide_hbond>
-0.476901718666497

> <r_i_glide_metal>
0

> <r_i_glide_rewards>
-1.41436086584027

> <r_i_glide_evdw>
-31.3886451721191

> <r_i_glide_ecoul>
-9.39195442199707

> <r_i_glide_erotb>
0.548815756179636

> <r_i_glide_esite>
-0.105193592916961

> <r_i_glide_emodel>
-58.6160177406593

> <r_i_glide_energy>
-40.7805995941162

> <r_i_glide_einternal>
0.175803482532501

> <i_i_glide_confnum>
1

> <i_i_glide_posenum>
382

> <r_i_glide_eff_state_penalty>
0

> <s_user_duplicate_titles>
CHEMBL2208_lig159

> <s_m_subgroup_title>
dock_pv

> <s_m_subgroupid>
dock_pv

> <b_m_subgroup_collapsed>
1

$$$$
CHEMBL2208_lig415
                    3D
 Schrodinger Suite 2021-1.
 40 41  0  0  1  0            999 V2000
   39.2578    6.6806   15.4169 C   0  0  0  0  0  0
   38.2082    6.0172   15.9815 N   0  0  0  0  0  0
   37.5027    5.1566   15.2100 C   0  0  0  0  0  0
   37.8122    4.9816   13.8636 C   0  0  0  0  0  0
   38.8601    5.6250   13.2883 N   0  0  0  0  0  0
   39.5909    6.4633   14.0696 C   0  0  0  0  0  0
   40.6780    7.0942   13.4720 N   0  0  0  0  0  0
   40.0595    7.6154   16.3300 C   0  0  0  0  0  0
   39.7405    7.4683   17.7563 N   0  0  0  0  0  0
   40.4924    7.9169   18.8030 C   0  0  0  0  0  0
   40.0229    7.6047   20.0463 N   0  0  0  0  0  0
   41.8822    8.8248   18.6720 S   0  0  0  0  0  0
   39.0425    6.6600   20.3969 C   0  0  0  0  0  0
   37.1137    4.7932   21.1409 C   0  0  0  0  0  0
   38.1333    4.4249   20.2673 C   0  0  0  0  0  0
   39.0870    5.3582   19.8851 C   0  0  0  0  0  0
   37.0727    6.0927   21.6693 C   0  0  0  0  0  0
   38.0446    7.0232   21.3025 C   0  0  0  0  0  0
   36.2768    4.1966   15.9397 Cl  0  0  0  0  0  0
   36.1839    3.7999   21.4776 N   0  0  0  0  0  0
   34.8581    3.9707   21.6214 C   0  0  0  0  0  0
   34.2495    2.8249   21.9590 N   0  0  0  0  0  0
   34.2690    5.0436   21.4721 O   0  0  0  0  0  0
   32.8720    2.7385   22.4283 C   0  0  0  0  0  0
   37.2514    4.2937   13.2479 H   0  0  0  0  0  0
   41.2407    7.7338   14.0113 H   0  0  0  0  0  0
   40.9232    6.8736   12.5059 H   0  0  0  0  0  0
   39.8567    8.6438   16.0272 H   0  0  0  0  0  0
   41.1229    7.4312   16.1681 H   0  0  0  0  0  0
   38.8381    7.0691   17.9724 H   0  0  0  0  0  0
   40.5056    8.0172   20.8307 H   0  0  0  0  0  0
   38.1907    3.4182   19.8768 H   0  0  0  0  0  0
   39.8779    5.0558   19.2135 H   0  0  0  0  0  0
   36.3018    6.3790   22.3710 H   0  0  0  0  0  0
   38.0149    8.0177   21.7231 H   0  0  0  0  0  0
   36.5356    2.8538   21.4748 H   0  0  0  0  0  0
   34.7343    1.9436   21.8344 H   0  0  0  0  0  0
   32.7655    1.8922   23.1070 H   0  0  0  0  0  0
   32.1972    2.5876   21.5855 H   0  0  0  0  0  0
   32.5652    3.6401   22.9614 H   0  0  0  0  0  0
  1  6  1  0  0  0
  1  2  2  0  0  0
  1  8  1  0  0  0
  2  3  1  0  0  0
  3  4  2  0  0  0
  3 19  1  0  0  0
  4  5  1  0  0  0
  4 25  1  0  0  0
  5  6  2  0  0  0
  6  7  1  0  0  0
  7 26  1  0  0  0
  7 27  1  0  0  0
  8  9  1  0  0  0
  8 28  1  0  0  0
  8 29  1  0  0  0
  9 10  1  0  0  0
  9 30  1  0  0  0
 10 12  2  0  0  0
 10 11  1  0  0  0
 11 13  1  0  0  0
 11 31  1  0  0  0
 13 18  2  0  0  0
 13 16  1  0  0  0
 14 17  2  0  0  0
 14 15  1  0  0  0
 14 20  1  0  0  0
 15 16  2  0  0  0
 15 32  1  0  0  0
 16 33  1  0  0  0
 17 18  1  0  0  0
 17 34  1  0  0  0
 18 35  1  0  0  0
 20 21  1  0  0  0
 20 36  1  0  0  0
 21 22  1  0  0  0
 21 23  2  0  0  0
 22 24  1  0  0  0
 22 37  1  0  0  0
 24 38  1  0  0  0
 24 39  1  0  0  0
 24 40  1  0  0  0
M  END
> <s_m_entry_id>
7634

> <s_m_entry_name>
dock_pv.195

> <s_m_Source_Path>
/home/csk/Desktop/cluster/DUD-E-result/mapk2

> <s_m_Source_File>
dock_pv.maegz

> <i_m_Source_File_Index>
195

> <chembl_id>
CHEMBL1783690

> <chembl_pref_name>
None

> <i_lp_mmshare_version>
53161

> <i_f3d_flags>
0

> <r_lp_tautomer_probability>
0.999999901280008

> <s_lp_Force_Field>
OPLS_2005

> <r_lp_Energy>
29.092363

> <b_lp_Chiralities_Consistent>
1

> <s_lp_Variant>
CHEMBL2208_lig415-1

> <s_i_glide_gridfile>
glide-grid_3m2w

> <i_i_glide_lignum>
585

> <i_i_glide_rotatable_bonds>
8

> <r_i_docking_score>
-7.02630918450541

> <r_i_glide_ligand_efficiency>
-0.292762882687726

> <r_i_glide_ligand_efficiency_sa>
-0.844474282622066

> <r_i_glide_ligand_efficiency_ln>
-1.68171820417169

> <r_i_glide_gscore>
-7.02630918450541

> <r_i_glide_lipo>
-1.25732752775538

> <r_i_glide_hbond>
-0.819363737264884

> <r_i_glide_metal>
0

> <r_i_glide_rewards>
-1.61875943131385

> <r_i_glide_evdw>
-36.4319610595703

> <r_i_glide_ecoul>
-13.7491960525513

> <r_i_glide_erotb>
0.704417763625492

> <r_i_glide_esite>
-0.15129879093559

> <r_i_glide_emodel>
-66.3349784240625

> <r_i_glide_energy>
-50.1811571121216

> <r_i_glide_einternal>
8.51314544677734

> <i_i_glide_confnum>
49

> <i_i_glide_posenum>
156

> <r_i_glide_eff_state_penalty>
0

> <s_user_duplicate_titles>
CHEMBL2208_lig415

> <s_m_subgroup_title>
dock_pv

> <s_m_subgroupid>
dock_pv

> <b_m_subgroup_collapsed>
1

$$$$
CHEMBL2208_lig138
                    3D
 Schrodinger Suite 2021-1.
 41 44  0  0  1  0            999 V2000
   35.3623    3.0893   14.2908 C   0  0  0  0  0  0
   38.2652    6.6899   19.3216 C   0  0  2  0  0  0
   39.1749    6.2246   13.9560 C   0  0  0  0  0  0
   38.0696    5.6846   14.6295 C   0  0  0  0  0  0
   37.9141    5.9211   16.0051 C   0  0  0  0  0  0
   40.1326    7.0130   14.5928 C   0  0  0  0  0  0
   39.9664    7.2193   15.9635 C   0  0  0  0  0  0
   38.8764    6.6650   16.6900 C   0  0  0  0  0  0
   40.7206    7.9228   16.8747 N   0  0  0  0  0  0
   40.1743    7.8305   18.1316 C   0  0  0  0  0  0
   39.0518    7.0240   18.0624 C   0  0  0  0  0  0
   38.4801    7.8787   20.3029 C   0  0  0  0  0  0
   39.9151    8.2278   20.3961 N   0  0  0  0  0  0
   40.7512    8.3654   19.3347 C   0  0  0  0  0  0
   41.8779    8.8271   19.4719 O   0  0  0  0  0  0
   38.6797    5.3361   19.9263 C   0  0  0  0  0  0
   37.0828    4.8248   13.8743 C   0  0  0  0  0  0
   36.3160    4.0259   14.6546 N   0  0  0  0  0  0
   37.0780    4.8297   12.6408 O   0  0  0  0  0  0
   34.7853    2.8962   13.1252 N   0  0  0  0  0  0
   33.8550    1.9450   13.1791 C   0  0  0  0  0  0
   33.7452    1.3092   14.4193 C   0  0  0  0  0  0
   34.8426    2.0246   15.5525 S   0  0  0  0  0  0
   33.0762    1.5756   12.0130 C   0  0  0  0  0  0
   32.4119    0.5421   11.9801 O   0  0  0  0  0  0
   33.0780    2.4267   10.9849 N   0  0  0  0  0  0
   37.2011    6.6397   19.0854 H   0  0  0  0  0  0
   39.3086    6.0283   12.9001 H   0  0  0  0  0  0
   37.0763    5.5296   16.5638 H   0  0  0  0  0  0
   40.9652    7.4296   14.0445 H   0  0  0  0  0  0
   41.5638    8.4500   16.6951 H   0  0  0  0  0  0
   38.0983    7.6387   21.2967 H   0  0  0  0  0  0
   37.9273    8.7567   19.9646 H   0  0  0  0  0  0
   40.3352    8.2372   21.3154 H   0  0  0  0  0  0
   38.4812    4.5158   19.2374 H   0  0  0  0  0  0
   39.7426    5.3131   20.1721 H   0  0  0  0  0  0
   38.1311    5.1263   20.8453 H   0  0  0  0  0  0
   36.5247    4.0405   15.6396 H   0  0  0  0  0  0
   33.0879    0.5008   14.7074 H   0  0  0  0  0  0
   32.5317    2.2086   10.1659 H   0  0  0  0  0  0
   33.6716    3.2399   10.9996 H   0  0  0  0  0  0
  1 18  1  0  0  0
  1 20  2  0  0  0
  1 23  1  0  0  0
  2 11  1  0  0  0
  2 12  1  0  0  0
  2 16  1  0  0  0
  2 27  1  0  0  0
  3  4  2  0  0  0
  3  6  1  0  0  0
  3 28  1  0  0  0
  4  5  1  0  0  0
  4 17  1  0  0  0
  5  8  2  0  0  0
  5 29  1  0  0  0
  6  7  2  0  0  0
  6 30  1  0  0  0
  7  9  1  0  0  0
  7  8  1  0  0  0
  8 11  1  0  0  0
  9 10  1  0  0  0
  9 31  1  0  0  0
 10 11  2  0  0  0
 10 14  1  0  0  0
 12 13  1  0  0  0
 12 32  1  0  0  0
 12 33  1  0  0  0
 13 14  1  0  0  0
 13 34  1  0  0  0
 14 15  2  0  0  0
 16 35  1  0  0  0
 16 36  1  0  0  0
 16 37  1  0  0  0
 17 18  1  0  0  0
 17 19  2  0  0  0
 18 38  1  0  0  0
 20 21  1  0  0  0
 21 22  2  0  0  0
 21 24  1  0  0  0
 22 23  1  0  0  0
 22 39  1  0  0  0
 24 25  2  0  0  0
 24 26  1  0  0  0
 26 40  1  0  0  0
 26 41  1  0  0  0
M  END
> <s_m_entry_id>
7635

> <s_m_entry_name>
dock_pv.196

> <s_m_Source_Path>
/home/csk/Desktop/cluster/DUD-E-result/mapk2

> <s_m_Source_File>
dock_pv.maegz

> <i_m_Source_File_Index>
196

> <chembl_id>
CHEMBL397332

> <chembl_pref_name>
None

> <i_lp_mmshare_version>
53161

> <i_f3d_flags>
0

> <r_lp_tautomer_probability>
0.999000488399163

> <s_lp_Force_Field>
OPLS_2005

> <r_lp_Energy>
25.039124

> <b_lp_Chiralities_Consistent>
1

> <s_lp_Variant>
CHEMBL2208_lig138-1

> <s_i_glide_gridfile>
glide-grid_3m2w

> <i_i_glide_lignum>
197

> <i_i_glide_rotatable_bonds>
4

> <r_i_docking_score>
-7.01942020927448

> <r_i_glide_ligand_efficiency>
-0.269977700356711

> <r_i_glide_ligand_efficiency_sa>
-0.799807874995801

> <r_i_glide_ligand_efficiency_ln>
-1.64848780355178

> <r_i_glide_gscore>
-7.01942020927448

> <r_i_glide_lipo>
-2.48169213444309

> <r_i_glide_hbond>
-0.305173364439411

> <r_i_glide_metal>
0

> <r_i_glide_rewards>
-1.35765130184195

> <r_i_glide_evdw>
-45.1802291870117

> <r_i_glide_ecoul>
-6.17390871047974

> <r_i_glide_erotb>
0.423886996374203

> <r_i_glide_esite>
-0.113692639001676

> <r_i_glide_emodel>
-72.5334368827213

> <r_i_glide_energy>
-51.3541378974915

> <r_i_glide_einternal>
1.67624354362488

> <i_i_glide_confnum>
3

> <i_i_glide_posenum>
390

> <r_i_glide_eff_state_penalty>
0

> <s_user_duplicate_titles>
CHEMBL2208_lig138

> <s_m_subgroup_title>
dock_pv

> <s_m_subgroupid>
dock_pv

> <b_m_subgroup_collapsed>
1

$$$$
CHEMBL2208_lig145
                    3D
 Schrodinger Suite 2021-1.
 41 44  0  0  1  0            999 V2000
   35.2640    3.4388   13.9002 C   0  0  0  0  0  0
   34.4854    2.8249   14.8842 C   0  0  0  0  0  0
   33.4140    2.0111   14.5291 C   0  0  0  0  0  0
   33.1131    1.8141   13.1846 C   0  0  0  0  0  0
   33.8780    2.4250   12.1961 C   0  0  0  0  0  0
   34.9698    3.2249   12.5480 C   0  0  0  0  0  0
   38.2739    6.0917   19.3705 C   0  0  1  0  0  0
   39.2868    6.4250   14.0217 C   0  0  0  0  0  0
   38.2164    5.7219   14.5973 C   0  0  0  0  0  0
   38.0493    5.7439   15.9905 C   0  0  0  0  0  0
   40.1868    7.1781   14.7743 C   0  0  0  0  0  0
   39.9945    7.1850   16.1561 C   0  0  0  0  0  0
   38.9428    6.4599   16.7820 C   0  0  0  0  0  0
   40.6795    7.8215   17.1647 N   0  0  0  0  0  0
   40.1403    7.5002   18.3873 C   0  0  0  0  0  0
   39.0667    6.6451   18.1910 C   0  0  0  0  0  0
   39.2089    6.1665   20.6103 C   0  0  0  0  0  0
   39.8702    7.4890   20.6720 N   0  0  0  0  0  0
   40.6017    7.9966   19.6539 C   0  0  0  0  0  0
   41.4779    8.8250   19.8619 O   0  0  0  0  0  0
   36.9452    6.8248   19.6090 C   0  0  0  0  0  0
   37.2627    4.9478   13.7147 C   0  0  0  0  0  0
   36.2907    4.2694   14.3693 N   0  0  0  0  0  0
   37.4176    4.9650   12.4919 O   0  0  0  0  0  0
   31.7856    0.8066   12.7385 Cl  0  0  0  0  0  0
   34.6920    2.9868   15.9326 H   0  0  0  0  0  0
   32.8162    1.5425   15.2970 H   0  0  0  0  0  0
   33.6459    2.2671   11.1535 H   0  0  0  0  0  0
   35.5558    3.6623   11.7570 H   0  0  0  0  0  0
   38.0466    5.0393   19.1926 H   0  0  0  0  0  0
   39.4308    6.4090   12.9495 H   0  0  0  0  0  0
   37.2521    5.2141   16.4887 H   0  0  0  0  0  0
   40.9916    7.7241   14.3033 H   0  0  0  0  0  0
   41.4694    8.4443   17.0717 H   0  0  0  0  0  0
   39.9702    5.3862   20.5646 H   0  0  0  0  0  0
   38.6570    5.9894   21.5348 H   0  0  0  0  0  0
   40.0160    7.8850   21.5898 H   0  0  0  0  0  0
   36.3048    6.7914   18.7264 H   0  0  0  0  0  0
   36.3902    6.3694   20.4300 H   0  0  0  0  0  0
   37.1063    7.8712   19.8722 H   0  0  0  0  0  0
   36.3046    4.3561   15.3716 H   0  0  0  0  0  0
  1  6  1  0  0  0
  1  2  2  0  0  0
  1 23  1  0  0  0
  2  3  1  0  0  0
  2 26  1  0  0  0
  3  4  2  0  0  0
  3 27  1  0  0  0
  4  5  1  0  0  0
  4 25  1  0  0  0
  5  6  2  0  0  0
  5 28  1  0  0  0
  6 29  1  0  0  0
  7 16  1  0  0  0
  7 17  1  0  0  0
  7 21  1  0  0  0
  7 30  1  0  0  0
  8  9  2  0  0  0
  8 11  1  0  0  0
  8 31  1  0  0  0
  9 10  1  0  0  0
  9 22  1  0  0  0
 10 13  2  0  0  0
 10 32  1  0  0  0
 11 12  2  0  0  0
 11 33  1  0  0  0
 12 14  1  0  0  0
 12 13  1  0  0  0
 13 16  1  0  0  0
 14 15  1  0  0  0
 14 34  1  0  0  0
 15 16  2  0  0  0
 15 19  1  0  0  0
 17 18  1  0  0  0
 17 35  1  0  0  0
 17 36  1  0  0  0
 18 19  1  0  0  0
 18 37  1  0  0  0
 19 20  2  0  0  0
 21 38  1  0  0  0
 21 39  1  0  0  0
 21 40  1  0  0  0
 22 23  1  0  0  0
 22 24  2  0  0  0
 23 41  1  0  0  0
M  END
> <s_m_entry_id>
7636

> <s_m_entry_name>
dock_pv.197

> <s_m_Source_Path>
/home/csk/Desktop/cluster/DUD-E-result/mapk2

> <s_m_Source_File>
dock_pv.maegz

> <i_m_Source_File_Index>
197

> <chembl_id>
CHEMBL245473

> <chembl_pref_name>
None

> <i_lp_mmshare_version>
53161

> <i_f3d_flags>
0

> <r_lp_tautomer_probability>
1

> <s_lp_Force_Field>
OPLS_2005

> <r_lp_Energy>
30.706858

> <b_lp_Chiralities_Consistent>
1

> <s_lp_Variant>
CHEMBL2208_lig145-2

> <s_i_glide_gridfile>
glide-grid_3m2w

> <i_i_glide_lignum>
212

> <i_i_glide_rotatable_bonds>
3

> <r_i_docking_score>
-7.01813958345262

> <r_i_glide_ligand_efficiency>
-0.280725583338105

> <r_i_glide_ligand_efficiency_sa>
-0.820846584370038

> <r_i_glide_ligand_efficiency_ln>
-1.66350939795007

> <r_i_glide_gscore>
-7.01813958345262

> <r_i_glide_lipo>
-2.62767840378828

> <r_i_glide_hbond>
-0.475289777199171

> <r_i_glide_metal>
0

> <r_i_glide_rewards>
-1.18176186191979

> <r_i_glide_evdw>
-32.4181251525879

> <r_i_glide_ecoul>
-9.76671504974365

> <r_i_glide_erotb>
0.457784180665815

> <r_i_glide_esite>
-0.105280206120252

> <r_i_glide_emodel>
-61.1161794823528

> <r_i_glide_energy>
-42.1848402023315

> <r_i_glide_einternal>
0.153383627533913

> <i_i_glide_confnum>
1

> <i_i_glide_posenum>
133

> <r_i_glide_eff_state_penalty>
0

> <s_user_duplicate_titles>
CHEMBL2208_lig145

> <s_m_subgroup_title>
dock_pv

> <s_m_subgroupid>
dock_pv

> <b_m_subgroup_collapsed>
1

$$$$
CHEMBL2208_lig155
                    3D
 Schrodinger Suite 2021-1.
 37 40  0  0  1  0            999 V2000
   38.2837    6.0816   19.3866 C   0  0  1  0  0  0
   39.3074    6.3382   14.0384 C   0  0  0  0  0  0
   38.2211    5.6656   14.6208 C   0  0  0  0  0  0
   38.0419    5.7185   16.0104 C   0  0  0  0  0  0
   40.2107    7.0959   14.7813 C   0  0  0  0  0  0
   40.0128    7.1264   16.1617 C   0  0  0  0  0  0
   38.9487    6.4250   16.7947 C   0  0  0  0  0  0
   40.7002    7.7696   17.1629 N   0  0  0  0  0  0
   40.1533    7.4700   18.3873 C   0  0  0  0  0  0
   39.0780    6.6178   18.2014 C   0  0  0  0  0  0
   39.2124    6.1754   20.6297 C   0  0  0  0  0  0
   39.8779    7.4965   20.6720 N   0  0  0  0  0  0
   40.6072    7.9885   19.6443 C   0  0  0  0  0  0
   41.4780    8.8250   19.8325 O   0  0  0  0  0  0
   36.9590    6.8250   19.6012 C   0  0  0  0  0  0
   37.2619    4.8909   13.7485 C   0  0  0  0  0  0
   36.3149    4.1805   14.4067 N   0  0  0  0  0  0
   37.3898    4.9305   12.5224 O   0  0  0  0  0  0
   35.3287    3.3791   13.8720 C   0  0  0  0  0  0
   34.4484    2.6333   14.6520 C   0  0  0  0  0  0
   33.6044    2.0250   13.7520 C   0  0  0  0  0  0
   33.9568    2.3959   12.4980 O   0  0  0  0  0  0
   35.0780    3.2250   12.5868 N   0  0  0  0  0  0
   38.0542    5.0272   19.2240 H   0  0  0  0  0  0
   39.4654    6.2909   12.9695 H   0  0  0  0  0  0
   37.2266    5.2185   16.5102 H   0  0  0  0  0  0
   41.0231    7.6250   14.3034 H   0  0  0  0  0  0
   41.4959    8.3843   17.0650 H   0  0  0  0  0  0
   39.9723    5.3924   20.6015 H   0  0  0  0  0  0
   38.6545    6.0160   21.5541 H   0  0  0  0  0  0
   40.0243    7.9072   21.5832 H   0  0  0  0  0  0
   36.3499    6.8038   18.6980 H   0  0  0  0  0  0
   36.3778    6.3700   20.4042 H   0  0  0  0  0  0
   37.1238    7.8688   19.8720 H   0  0  0  0  0  0
   36.3354    4.2030   15.4114 H   0  0  0  0  0  0
   34.4164    2.5685   15.7294 H   0  0  0  0  0  0
   32.7509    1.3692   13.8432 H   0  0  0  0  0  0
  1 10  1  0  0  0
  1 11  1  0  0  0
  1 15  1  0  0  0
  1 24  1  0  0  0
  2  3  2  0  0  0
  2  5  1  0  0  0
  2 25  1  0  0  0
  3  4  1  0  0  0
  3 16  1  0  0  0
  4  7  2  0  0  0
  4 26  1  0  0  0
  5  6  2  0  0  0
  5 27  1  0  0  0
  6  8  1  0  0  0
  6  7  1  0  0  0
  7 10  1  0  0  0
  8  9  1  0  0  0
  8 28  1  0  0  0
  9 13  1  0  0  0
  9 10  2  0  0  0
 11 12  1  0  0  0
 11 29  1  0  0  0
 11 30  1  0  0  0
 12 13  1  0  0  0
 12 31  1  0  0  0
 13 14  2  0  0  0
 15 32  1  0  0  0
 15 33  1  0  0  0
 15 34  1  0  0  0
 16 17  1  0  0  0
 16 18  2  0  0  0
 17 19  1  0  0  0
 17 35  1  0  0  0
 19 20  1  0  0  0
 19 23  2  0  0  0
 20 21  2  0  0  0
 20 36  1  0  0  0
 21 22  1  0  0  0
 21 37  1  0  0  0
 22 23  1  0  0  0
M  END
> <s_m_entry_id>
7637

> <s_m_entry_name>
dock_pv.198

> <s_m_Source_Path>
/home/csk/Desktop/cluster/DUD-E-result/mapk2

> <s_m_Source_File>
dock_pv.maegz

> <i_m_Source_File_Index>
198

> <chembl_id>
CHEMBL394735

> <chembl_pref_name>
None

> <i_lp_mmshare_version>
53161

> <i_f3d_flags>
0

> <r_lp_tautomer_probability>
1

> <s_lp_Force_Field>
OPLS_2005

> <r_lp_Energy>
23.373864

> <b_lp_Chiralities_Consistent>
1

> <s_lp_Variant>
CHEMBL2208_lig155-2

> <s_i_glide_gridfile>
glide-grid_3m2w

> <i_i_glide_lignum>
232

> <i_i_glide_rotatable_bonds>
3

> <r_i_docking_score>
-7.0164404837351

> <r_i_glide_ligand_efficiency>
-0.305062629727613

> <r_i_glide_ligand_efficiency_sa>
-0.867557538562303

> <r_i_glide_ligand_efficiency_ln>
-1.69663893053195

> <r_i_glide_gscore>
-7.0164404837351

> <r_i_glide_lipo>
-2.43170133911178

> <r_i_glide_hbond>
-0.468860189884877

> <r_i_glide_metal>
0

> <r_i_glide_rewards>
-1.47052285330169

> <r_i_glide_evdw>
-34.1536407470703

> <r_i_glide_ecoul>
-9.38903331756592

> <r_i_glide_erotb>
0.577279260627669

> <r_i_glide_esite>
-0.106598327076014

> <r_i_glide_emodel>
-60.6379481075121

> <r_i_glide_energy>
-43.5426740646362

> <r_i_glide_einternal>
0.163387402892113

> <i_i_glide_confnum>
1

> <i_i_glide_posenum>
245

> <r_i_glide_eff_state_penalty>
0

> <s_user_duplicate_titles>
CHEMBL2208_lig155

> <s_m_subgroup_title>
dock_pv

> <s_m_subgroupid>
dock_pv

> <b_m_subgroup_collapsed>
1

$$$$
CHEMBL2208_lig263
                    3D
 Schrodinger Suite 2021-1.
 39 41  0  0  1  0            999 V2000
   41.3882    8.4242   18.4816 C   0  0  0  0  0  0
   40.4551    7.6223   17.5963 C   0  0  0  0  0  0
   39.6842    7.1950   18.6437 C   0  0  0  0  0  0
   40.3984    8.0941   19.6340 C   0  0  0  0  0  0
   40.2780    8.4246   20.8039 O   0  0  0  0  0  0
   42.4559    9.0241   18.3728 O   0  0  0  0  0  0
   38.6455    6.3015   18.8486 N   0  0  0  0  0  0
   40.6016    7.4459   16.2390 N   0  0  0  0  0  0
   39.7601    6.8240   15.3111 C   0  0  0  0  0  0
   40.2751    6.6325   14.0304 C   0  0  0  0  0  0
   39.4780    6.0201   13.0720 C   0  0  0  0  0  0
   38.2047    5.6189   13.3079 N   0  0  0  0  0  0
   37.7033    5.8247   14.5509 C   0  0  0  0  0  0
   38.4418    6.4251   15.5730 C   0  0  0  0  0  0
   38.2402    5.6441   20.0946 C   0  0  2  0  0  0
   37.0582    4.7045   19.9298 C   0  0  0  0  0  0
   36.3583    4.5482   18.7201 C   0  0  0  0  0  0
   35.2857    3.6605   18.6269 C   0  0  0  0  0  0
   34.8778    2.9353   19.7433 C   0  0  0  0  0  0
   35.5489    3.1001   20.9512 C   0  0  0  0  0  0
   36.6410    3.9517   21.0357 C   0  0  0  0  0  0
   37.9205    6.6780   21.2156 C   0  0  0  0  0  0
   38.4953    6.4678   22.4034 N   0  0  0  0  0  0
   37.1713    7.6326   21.0054 O   0  0  0  0  0  0
   35.1490    2.4247   22.0643 O   0  0  0  0  0  0
   38.5851    5.6224   18.1036 H   0  0  0  0  0  0
   41.4269    7.8360   15.8051 H   0  0  0  0  0  0
   41.2637    6.9668   13.7573 H   0  0  0  0  0  0
   39.8665    5.8923   12.0766 H   0  0  0  0  0  0
   36.6813    5.5138   14.7159 H   0  0  0  0  0  0
   37.9663    6.6126   16.5182 H   0  0  0  0  0  0
   39.0915    5.0245   20.3884 H   0  0  0  0  0  0
   36.6284    5.1119   17.8409 H   0  0  0  0  0  0
   34.7574    3.5542   17.6906 H   0  0  0  0  0  0
   34.0377    2.2596   19.6750 H   0  0  0  0  0  0
   37.1579    4.0304   21.9813 H   0  0  0  0  0  0
   38.3530    7.1321   23.1488 H   0  0  0  0  0  0
   39.1559    5.7143   22.5490 H   0  0  0  0  0  0
   35.0763    1.4724   21.8718 H   0  0  0  0  0  0
  1  6  2  0  0  0
  1  4  1  0  0  0
  1  2  1  0  0  0
  2  3  2  0  0  0
  2  8  1  0  0  0
  3  7  1  0  0  0
  3  4  1  0  0  0
  4  5  2  0  0  0
  7 15  1  0  0  0
  7 26  1  0  0  0
  8  9  1  0  0  0
  8 27  1  0  0  0
  9 14  1  0  0  0
  9 10  2  0  0  0
 10 11  1  0  0  0
 10 28  1  0  0  0
 11 12  2  0  0  0
 11 29  1  0  0  0
 12 13  1  0  0  0
 13 14  2  0  0  0
 13 30  1  0  0  0
 14 31  1  0  0  0
 15 16  1  0  0  0
 15 22  1  0  0  0
 15 32  1  0  0  0
 16 17  2  0  0  0
 16 21  1  0  0  0
 17 18  1  0  0  0
 17 33  1  0  0  0
 18 19  2  0  0  0
 18 34  1  0  0  0
 19 20  1  0  0  0
 19 35  1  0  0  0
 20 21  2  0  0  0
 20 25  1  0  0  0
 21 36  1  0  0  0
 22 23  1  0  0  0
 22 24  2  0  0  0
 23 37  1  0  0  0
 23 38  1  0  0  0
 25 39  1  0  0  0
M  END
> <s_m_entry_id>
7638

> <s_m_entry_name>
dock_pv.199

> <s_m_Source_Path>
/home/csk/Desktop/cluster/DUD-E-result/mapk2

> <s_m_Source_File>
dock_pv.maegz

> <i_m_Source_File_Index>
199

> <chembl_id>
CHEMBL511410

> <chembl_pref_name>
None

> <i_lp_mmshare_version>
53161

> <i_f3d_flags>
0

> <r_lp_tautomer_probability>
0.999999999997365

> <s_lp_Force_Field>
OPLS_2005

> <r_lp_Energy>
33.743706

> <b_lp_Chiralities_Consistent>
1

> <s_lp_Variant>
CHEMBL2208_lig263-1

> <s_i_glide_gridfile>
glide-grid_3m2w

> <i_i_glide_lignum>
400

> <i_i_glide_rotatable_bonds>
7

> <r_i_docking_score>
-7.01494391252883

> <r_i_glide_ligand_efficiency>
-0.280597756501153

> <r_i_glide_ligand_efficiency_sa>
-0.820472816431773

> <r_i_glide_ligand_efficiency_ln>
-1.6627519281746

> <r_i_glide_gscore>
-7.01494391252883

> <r_i_glide_lipo>
-2.1865219236421

> <r_i_glide_hbond>
-0.460425517585753

> <r_i_glide_metal>
0

> <r_i_glide_rewards>
-1.10231273121634

> <r_i_glide_evdw>
-40.385383605957

> <r_i_glide_ecoul>
-13.2407941818237

> <r_i_glide_erotb>
0.826081519167806

> <r_i_glide_esite>
-0.0863769516810243

> <r_i_glide_emodel>
-69.6795163279002

> <r_i_glide_energy>
-53.6261777877808

> <r_i_glide_einternal>
13.6862602233887

> <i_i_glide_confnum>
17

> <i_i_glide_posenum>
377

> <r_i_glide_eff_state_penalty>
0

> <s_user_duplicate_titles>
CHEMBL2208_lig263

> <s_m_subgroup_title>
dock_pv

> <s_m_subgroupid>
dock_pv

> <b_m_subgroup_collapsed>
1

$$$$
CHEMBL2208_lig1414
                    3D
 Schrodinger Suite 2021-1.
 40 43  0  0  1  0            999 V2000
   39.6242    8.2375   20.3845 N   0  0  0  0  0  0
   39.2111    7.4328   19.3735 C   0  0  0  0  0  0
   38.3117    6.4233   19.5069 N   0  0  0  0  0  0
   37.7732    6.2069   20.7322 C   0  0  0  0  0  0
   38.1424    6.9888   21.8271 C   0  0  0  0  0  0
   39.0778    7.9997   21.6058 C   0  0  0  0  0  0
   36.8221    5.1954   20.9410 N   0  0  0  0  0  0
   36.1404    4.2522   20.1407 C   0  0  0  0  0  0
   35.2604    3.3072   20.7327 C   0  0  0  0  0  0
   34.5589    2.4236   19.8916 C   0  0  0  0  0  0
   34.7439    2.4236   18.5154 C   0  0  0  0  0  0
   35.6353    3.3162   17.9438 C   0  0  0  0  0  0
   36.3149    4.2216   18.7496 C   0  0  0  0  0  0
   35.0264    3.2241   22.2307 C   0  0  0  0  0  0
   34.5444    2.0253   22.6724 O   0  0  0  0  0  0
   35.2717    4.1548   22.9959 O   0  0  0  0  0  0
   39.8085    7.6728   18.1258 N   0  0  0  0  0  0
   39.5210    7.1805   16.8398 C   0  0  0  0  0  0
   38.2786    6.6208   16.5221 C   0  0  0  0  0  0
   40.3073    6.7950   14.5615 C   0  0  0  0  0  0
   40.5078    7.2790   15.8559 C   0  0  0  0  0  0
   39.0862    6.1797   14.2592 C   0  0  0  0  0  0
   38.0633    6.0927   15.2472 C   0  0  0  0  0  0
   36.9971    5.4340   14.5897 C   0  0  0  0  0  0
   37.4655    5.1846   13.3251 N   0  0  0  0  0  0
   38.7072    5.6241   13.0716 N   0  0  0  0  0  0
   37.7347    6.8174   22.8124 H   0  0  0  0  0  0
   39.4171    8.6183   22.4254 H   0  0  0  0  0  0
   36.5470    5.1195   21.9124 H   0  0  0  0  0  0
   33.8638    1.6965   20.2919 H   0  0  0  0  0  0
   34.2030    1.7232   17.8952 H   0  0  0  0  0  0
   35.7911    3.3239   16.8751 H   0  0  0  0  0  0
   36.9942    4.8829   18.2538 H   0  0  0  0  0  0
   34.6908    1.3087   22.0344 H   0  0  0  0  0  0
   40.5792    8.3195   18.1699 H   0  0  0  0  0  0
   37.4710    6.6158   17.2309 H   0  0  0  0  0  0
   41.0781    6.8827   13.8090 H   0  0  0  0  0  0
   41.4571    7.7354   16.0944 H   0  0  0  0  0  0
   36.0064    5.1209   14.8893 H   0  0  0  0  0  0
   36.9330    4.6904   12.6214 H   0  0  0  0  0  0
  1  2  2  0  0  0
  1  6  1  0  0  0
  2  3  1  0  0  0
  2 17  1  0  0  0
  3  4  2  0  0  0
  4  7  1  0  0  0
  4  5  1  0  0  0
  5  6  2  0  0  0
  5 27  1  0  0  0
  6 28  1  0  0  0
  7  8  1  0  0  0
  7 29  1  0  0  0
  8 13  1  0  0  0
  8  9  2  0  0  0
  9 14  1  0  0  0
  9 10  1  0  0  0
 10 11  2  0  0  0
 10 30  1  0  0  0
 11 12  1  0  0  0
 11 31  1  0  0  0
 12 13  2  0  0  0
 12 32  1  0  0  0
 13 33  1  0  0  0
 14 15  1  0  0  0
 14 16  2  0  0  0
 15 34  1  0  0  0
 17 18  1  0  0  0
 17 35  1  0  0  0
 18 19  2  0  0  0
 18 21  1  0  0  0
 19 36  1  0  0  0
 19 23  1  0  0  0
 20 22  1  0  0  0
 20 37  1  0  0  0
 20 21  2  0  0  0
 21 38  1  0  0  0
 22 26  2  0  0  0
 22 23  1  0  0  0
 23 24  2  0  0  0
 24 39  1  0  0  0
 24 25  1  0  0  0
 25 40  1  0  0  0
 25 26  1  0  0  0
M  END
> <s_m_entry_id>
7639

> <s_m_entry_name>
dock_pv.200

> <s_m_Source_Path>
/home/csk/Desktop/cluster/DUD-E-result/mapk2

> <s_m_Source_File>
dock_pv.maegz

> <i_m_Source_File_Index>
200

> <chembl_id>
CHEMBL396523

> <chembl_pref_name>
None

> <i_lp_mmshare_version>
53161

> <i_f3d_flags>
0

> <r_lp_tautomer_probability>
0.01682948890584

> <s_lp_Force_Field>
OPLS_2005

> <r_lp_Energy>
31.740416

> <b_lp_Chiralities_Consistent>
1

> <s_lp_Variant>
CHEMBL2208_lig1414-2

> <s_i_glide_gridfile>
glide-grid_3m2w

> <i_i_glide_lignum>
1956

> <i_i_glide_rotatable_bonds>
6

> <r_i_docking_score>
-7.0011487497711

> <r_i_glide_ligand_efficiency>
-0.269274951914273

> <r_i_glide_ligand_efficiency_sa>
-0.797725985500261

> <r_i_glide_ligand_efficiency_ln>
-1.64419681124096

> <r_i_glide_gscore>
-7.0011487497711

> <r_i_glide_lipo>
-2.22378452779818

> <r_i_glide_hbond>
-0.304

> <r_i_glide_metal>
0

> <r_i_glide_rewards>
-2.02359798349865

> <r_i_glide_evdw>
-41.3917388916016

> <r_i_glide_ecoul>
-7.47394800186157

> <r_i_glide_erotb>
0.792431043310425

> <r_i_glide_esite>
-0.0515181369253809

> <r_i_glide_emodel>
-69.8812085472067

> <r_i_glide_energy>
-48.8656868934631

> <r_i_glide_einternal>
3.0930643081665

> <i_i_glide_confnum>
3

> <i_i_glide_posenum>
366

> <r_i_glide_eff_state_penalty>
0

> <s_user_duplicate_titles>
CHEMBL2208_lig1414

> <s_m_subgroup_title>
dock_pv

> <s_m_subgroupid>
dock_pv

> <b_m_subgroup_collapsed>
1

$$$$
CHEMBL2208_lig119
                    3D
 Schrodinger Suite 2021-1.
 35 37  0  0  1  0            999 V2000
   36.9386    4.7140   20.8054 C   0  0  0  0  0  0
   35.7814    4.2680   20.1740 C   0  0  0  0  0  0
   35.5729    4.4074   18.8035 C   0  0  0  0  0  0
   37.9397    5.3588   20.0605 C   0  0  0  0  0  0
   37.7668    5.5296   18.6766 C   0  0  0  0  0  0
   36.5764    5.0437   18.0693 C   0  0  0  0  0  0
   36.6775    5.3179   16.7220 N   0  0  0  0  0  0
   38.5684    6.0796   17.6203 C   0  0  0  0  0  0
   37.8842    5.9031   16.4301 C   0  0  0  0  0  0
   38.4068    6.3352   15.0427 C   0  0  1  0  0  0
   39.8751    6.6146   15.1086 N   0  0  2  0  0  0
   40.2410    7.3995   16.3038 C   0  0  0  0  0  0
   39.9526    6.6760   17.6409 C   0  0  0  0  0  0
   38.0745    5.3353   13.8813 C   0  0  0  0  0  0
   37.5858    4.1290   14.2868 O   0  0  0  0  0  0
   38.2067    5.6245   12.6934 O   0  0  0  0  0  0
   37.0171    4.4671   22.1603 O   0  0  0  0  0  0
   38.2774    4.5987   22.8038 C   0  0  0  0  0  0
   40.3905    7.3650   13.9593 C   0  0  0  0  0  0
   35.0311    3.7672   20.7703 H   0  0  0  0  0  0
   34.6780    4.0234   18.3358 H   0  0  0  0  0  0
   38.8484    5.7035   20.5304 H   0  0  0  0  0  0
   35.9968    5.0905   16.0103 H   0  0  0  0  0  0
   37.8778    7.2283   14.7264 H   0  0  0  0  0  0
   39.7500    8.3750   16.2769 H   0  0  0  0  0  0
   41.3103    7.6218   16.2902 H   0  0  0  0  0  0
   40.6781    5.8859   17.8088 H   0  0  0  0  0  0
   40.1030    7.3639   18.4732 H   0  0  0  0  0  0
   37.4804    3.4886   13.5662 H   0  0  0  0  0  0
   38.2159    4.2029   23.8178 H   0  0  0  0  0  0
   39.0411    4.0261   22.2715 H   0  0  0  0  0  0
   38.5910    5.6413   22.8711 H   0  0  0  0  0  0
   41.4555    7.5763   14.0618 H   0  0  0  0  0  0
   40.2777    6.8213   13.0245 H   0  0  0  0  0  0
   39.8789    8.3235   13.8721 H   0  0  0  0  0  0
  1  4  1  0  0  0
  1 17  1  0  0  0
  1  2  2  0  0  0
  2  3  1  0  0  0
  2 20  1  0  0  0
  3  6  2  0  0  0
  3 21  1  0  0  0
  4  5  2  0  0  0
  4 22  1  0  0  0
  5  6  1  0  0  0
  5  8  1  0  0  0
  6  7  1  0  0  0
  7  9  1  0  0  0
  7 23  1  0  0  0
  8 13  1  0  0  0
  8  9  2  0  0  0
  9 10  1  0  0  0
 10 11  1  0  0  0
 10 14  1  0  0  0
 10 24  1  0  0  0
 11 12  1  0  0  0
 11 19  1  0  0  0
 12 13  1  0  0  0
 12 25  1  0  0  0
 12 26  1  0  0  0
 13 27  1  0  0  0
 13 28  1  0  0  0
 14 15  1  0  0  0
 14 16  2  0  0  0
 15 29  1  0  0  0
 17 18  1  0  0  0
 18 30  1  0  0  0
 18 31  1  0  0  0
 18 32  1  0  0  0
 19 33  1  0  0  0
 19 34  1  0  0  0
 19 35  1  0  0  0
M  END
> <s_m_entry_id>
7640

> <s_m_entry_name>
dock_pv.201

> <s_m_Source_Path>
/home/csk/Desktop/cluster/DUD-E-result/mapk2

> <s_m_Source_File>
dock_pv.maegz

> <i_m_Source_File_Index>
201

> <chembl_id>
CHEMBL397649

> <chembl_pref_name>
None

> <i_lp_mmshare_version>
53161

> <i_f3d_flags>
0

> <r_lp_tautomer_probability>
1

> <s_lp_Force_Field>
OPLS_2005

> <r_lp_Energy>
22.877381

> <b_lp_Chiralities_Consistent>
1

> <s_lp_Variant>
CHEMBL2208_lig119-2

> <s_i_glide_gridfile>
glide-grid_3m2w

> <i_i_glide_lignum>
161

> <i_i_glide_rotatable_bonds>
3

> <r_i_docking_score>
-6.99741207786676

> <r_i_glide_ligand_efficiency>
-0.368284846203514

> <r_i_glide_ligand_efficiency_sa>
-0.982731889844233

> <r_i_glide_ligand_efficiency_ln>
-1.77399425237033

> <r_i_glide_gscore>
-6.99741207786676

> <r_i_glide_lipo>
-1.50817034798174

> <r_i_glide_hbond>
-0.335245175257883

> <r_i_glide_metal>
0

> <r_i_glide_rewards>
-2.50010579680255

> <r_i_glide_evdw>
-25.8715381622314

> <r_i_glide_ecoul>
-10.7116022109985

> <r_i_glide_erotb>
0.261252753237393

> <r_i_glide_esite>
-0.0148262713006329

> <r_i_glide_emodel>
-51.3086754236799

> <r_i_glide_energy>
-36.58314037323

> <r_i_glide_einternal>
4.04348468780518

> <i_i_glide_confnum>
2

> <i_i_glide_posenum>
223

> <r_i_glide_eff_state_penalty>
0

> <s_user_duplicate_titles>
CHEMBL2208_lig119

> <s_m_subgroup_title>
dock_pv

> <s_m_subgroupid>
dock_pv

> <b_m_subgroup_collapsed>
1

$$$$
CHEMBL2208_lig113
                    3D
 Schrodinger Suite 2021-1.
 37 39  0  0  1  0            999 V2000
   39.0926    5.9727   14.3183 C   0  0  0  0  0  0
   40.2779    6.6749   14.5196 C   0  0  0  0  0  0
   40.7059    7.0845   15.7839 C   0  0  0  0  0  0
   38.2754    5.6514   15.4111 C   0  0  0  0  0  0
   38.6725    6.0270   16.7005 C   0  0  0  0  0  0
   39.8908    6.7468   16.8669 C   0  0  0  0  0  0
   40.0310    6.9771   18.2200 N   0  0  0  0  0  0
   38.1121    5.8409   18.0032 C   0  0  0  0  0  0
   38.9786    6.4207   18.9048 C   0  0  0  0  0  0
   38.7848    6.4222   20.4196 C   0  0  2  0  0  0
   37.6781    5.5268   20.8176 N   0  0  1  0  0  0
   36.5089    5.4824   19.9189 C   0  0  1  0  0  0
   36.8747    5.0977   18.4589 C   0  0  0  0  0  0
   38.4900    7.8354   20.9779 C   0  0  0  0  0  0
   38.4881    7.8643   22.3412 O   0  0  0  0  0  0
   38.3003    8.8251   20.2723 O   0  0  0  0  0  0
   38.7988    5.6284   13.0170 O   0  0  0  0  0  0
   37.4733    5.2253   12.7125 C   0  0  0  0  0  0
   35.3840    4.5560   20.4249 C   0  0  0  0  0  0
   34.6604    5.1717   21.5198 N   0  0  0  0  0  0
   40.8822    6.9156   13.6566 H   0  0  0  0  0  0
   41.6307    7.6254   15.9098 H   0  0  0  0  0  0
   37.3562    5.1021   15.2846 H   0  0  0  0  0  0
   40.7820    7.4606   18.6886 H   0  0  0  0  0  0
   39.7032    6.1150   20.9262 H   0  0  0  0  0  0
   37.9908    4.6019   21.0885 H   0  0  0  0  0  0
   36.1017    6.4962   19.8995 H   0  0  0  0  0  0
   37.0620    4.0249   18.3954 H   0  0  0  0  0  0
   36.0304    5.3020   17.7971 H   0  0  0  0  0  0
   38.6882    7.0091   22.7308 H   0  0  0  0  0  0
   37.3508    5.1313   11.6325 H   0  0  0  0  0  0
   37.2231    4.2676   13.1656 H   0  0  0  0  0  0
   36.7598    5.9687   13.0724 H   0  0  0  0  0  0
   35.7879    3.5915   20.7375 H   0  0  0  0  0  0
   34.6676    4.3517   19.6290 H   0  0  0  0  0  0
   34.1141    4.4692   22.0024 H   0  0  0  0  0  0
   35.3296    5.5131   22.2008 H   0  0  0  0  0  0
  1  4  1  0  0  0
  1 17  1  0  0  0
  1  2  2  0  0  0
  2  3  1  0  0  0
  2 21  1  0  0  0
  3  6  2  0  0  0
  3 22  1  0  0  0
  4  5  2  0  0  0
  4 23  1  0  0  0
  5  6  1  0  0  0
  5  8  1  0  0  0
  6  7  1  0  0  0
  7  9  1  0  0  0
  7 24  1  0  0  0
  8 13  1  0  0  0
  8  9  2  0  0  0
  9 10  1  0  0  0
 10 11  1  0  0  0
 10 14  1  0  0  0
 10 25  1  0  0  0
 11 12  1  0  0  0
 11 26  1  0  0  0
 12 13  1  0  0  0
 12 19  1  0  0  0
 12 27  1  0  0  0
 13 28  1  0  0  0
 13 29  1  0  0  0
 14 15  1  0  0  0
 14 16  2  0  0  0
 15 30  1  0  0  0
 17 18  1  0  0  0
 18 31  1  0  0  0
 18 32  1  0  0  0
 18 33  1  0  0  0
 19 20  1  0  0  0
 19 34  1  0  0  0
 19 35  1  0  0  0
 20 36  1  0  0  0
 20 37  1  0  0  0
M  END
> <s_m_entry_id>
7641

> <s_m_entry_name>
dock_pv.202

> <s_m_Source_Path>
/home/csk/Desktop/cluster/DUD-E-result/mapk2

> <s_m_Source_File>
dock_pv.maegz

> <i_m_Source_File_Index>
202

> <chembl_id>
CHEMBL248525

> <chembl_pref_name>
None

> <i_lp_mmshare_version>
53161

> <i_f3d_flags>
0

> <r_lp_tautomer_probability>
1

> <s_lp_Force_Field>
OPLS_2005

> <r_lp_Energy>
24.770249

> <b_lp_Chiralities_Consistent>
1

> <s_lp_Variant>
CHEMBL2208_lig113-3

> <s_i_glide_gridfile>
glide-grid_3m2w

> <i_i_glide_lignum>
140

> <i_i_glide_rotatable_bonds>
4

> <r_i_docking_score>
-6.99584573824297

> <r_i_glide_ligand_efficiency>
-0.349792286912149

> <r_i_glide_ligand_efficiency_sa>
-0.949482344795225

> <r_i_glide_ligand_efficiency_ln>
-1.75082944984713

> <r_i_glide_gscore>
-6.99584573824297

> <r_i_glide_lipo>
-1.97029314711488

> <r_i_glide_hbond>
-0.608

> <r_i_glide_metal>
0

> <r_i_glide_rewards>
-1.56127355800674

> <r_i_glide_evdw>
-31.6105403900146

> <r_i_glide_ecoul>
-9.89145088195801

> <r_i_glide_erotb>
0.237122565806624

> <r_i_glide_esite>
-0.0291569471335451

> <r_i_glide_emodel>
-58.8496555185931

> <r_i_glide_energy>
-41.5019912719727

> <r_i_glide_einternal>
4.50129270553589

> <i_i_glide_confnum>
2

> <i_i_glide_posenum>
41

> <r_i_glide_eff_state_penalty>
0

> <s_user_duplicate_titles>
CHEMBL2208_lig113

> <s_m_subgroup_title>
dock_pv

> <s_m_subgroupid>
dock_pv

> <b_m_subgroup_collapsed>
1

$$$$
CHEMBL2208_lig13
                    3D
 Schrodinger Suite 2021-1.
 69 75  0  0  1  0            999 V2000
   35.8752    4.4783   18.4674 C   0  0  0  0  0  0
   36.2562    5.0264   19.6888 C   0  0  0  0  0  0
   36.4649    4.2144   20.8044 C   0  0  0  0  0  0
   36.2765    2.8353   20.6547 C   0  0  0  0  0  0
   35.8814    2.2942   19.4335 C   0  0  0  0  0  0
   35.6958    3.1016   18.3050 C   0  0  0  0  0  0
   36.7981    4.7951   22.0238 N   0  0  0  0  0  0
   37.8749    5.8026   22.1147 C   0  0  0  0  0  0
   37.7823    6.6956   23.3739 C   0  0  0  0  0  0
   37.7572    5.8937   24.5922 N   0  0  0  0  0  0
   36.5934    5.0191   24.5383 C   0  0  0  0  0  0
   36.6612    4.0837   23.3089 C   0  0  0  0  0  0
   35.2606    2.5366   17.0721 N   0  0  0  0  0  0
   34.3892    1.3651   17.0683 C   0  0  2  0  0  0
   34.1609    1.0795   15.7000 O   0  0  0  0  0  0
   34.8522    2.0364   14.9377 N   0  0  0  0  0  0
   35.4517    2.8252   15.7241 C   0  0  0  0  0  0
   36.2397    3.9261   15.1605 C   0  0  0  0  0  0
   37.0780    4.6148   15.9616 O   0  0  0  0  0  0
   37.7465    5.5352   15.2192 C   0  0  0  0  0  0
   37.3126    5.4465   13.9061 C   0  0  0  0  0  0
   36.3604    4.4250   13.8720 C   0  0  0  0  0  0
   38.7713    6.3393   15.9376 C   0  0  0  0  0  0
   38.6916    6.4744   17.3256 C   0  0  0  0  0  0
   39.6691    7.1653   18.0300 C   0  0  0  0  0  0
   40.7377    7.7316   17.3377 C   0  0  0  0  0  0
   40.8245    7.6045   15.9484 C   0  0  0  0  0  0
   39.8359    6.9176   15.2475 C   0  0  0  0  0  0
   33.0650    1.4868   17.8532 C   0  0  0  0  0  0
   32.5535    2.7440   18.2090 C   0  0  0  0  0  0
   31.4283    2.8601   19.0194 C   0  0  0  0  0  0
   30.7838    1.7144   19.4693 C   0  0  0  0  0  0
   31.2451    0.4583   19.0807 C   0  0  0  0  0  0
   32.3684    0.3322   18.2576 C   0  0  0  0  0  0
   32.7891   -1.0204   17.8332 C   0  0  0  0  0  0
   33.3409   -1.9307   18.7372 C   0  0  0  0  0  0
   33.7348   -3.1745   18.3708 N   0  0  0  0  0  0
   33.5354   -3.5098   17.0715 C   0  0  0  0  0  0
   33.0171   -2.7080   16.1070 N   0  0  0  0  0  0
   32.6497   -1.4632   16.5119 C   0  0  0  0  0  0
   41.7801    8.4252   18.0821 C   0  0  0  0  0  0
   42.6141    8.9672   18.6721 N   0  0  0  0  0  0
   35.6436    5.1599   17.6659 H   0  0  0  0  0  0
   36.3425    6.1002   19.7694 H   0  0  0  0  0  0
   36.4242    2.1609   21.4861 H   0  0  0  0  0  0
   35.7405    1.2256   19.3834 H   0  0  0  0  0  0
   38.8304    5.2745   22.1533 H   0  0  0  0  0  0
   37.9075    6.4389   21.2321 H   0  0  0  0  0  0
   36.8906    7.3279   23.3291 H   0  0  0  0  0  0
   38.6302    7.3815   23.4261 H   0  0  0  0  0  0
   37.7206    6.4993   25.3994 H   0  0  0  0  0  0
   35.6816    5.6201   24.5185 H   0  0  0  0  0  0
   36.5490    4.4389   25.4612 H   0  0  0  0  0  0
   35.7739    3.4491   23.2963 H   0  0  0  0  0  0
   37.5329    3.4354   23.4280 H   0  0  0  0  0  0
   34.9466    0.5196   17.4740 H   0  0  0  0  0  0
   37.6628    6.0314   13.0691 H   0  0  0  0  0  0
   35.8375    4.0448   13.0057 H   0  0  0  0  0  0
   37.8821    6.0320   17.8748 H   0  0  0  0  0  0
   39.5957    7.2372   19.1088 H   0  0  0  0  0  0
   41.6529    8.0247   15.4001 H   0  0  0  0  0  0
   39.9177    6.8149   14.1738 H   0  0  0  0  0  0
   33.0463    3.6429   17.8766 H   0  0  0  0  0  0
   31.0665    3.8364   19.3017 H   0  0  0  0  0  0
   29.9265    1.7956   20.1181 H   0  0  0  0  0  0
   30.7172   -0.4232   19.4176 H   0  0  0  0  0  0
   33.4787   -1.6647   19.7776 H   0  0  0  0  0  0
   33.8225   -4.5069   16.7749 H   0  0  0  0  0  0
   32.2279   -0.8137   15.7557 H   0  0  0  0  0  0
  1  6  1  0  0  0
  1  2  2  0  0  0
  1 43  1  0  0  0
  2  3  1  0  0  0
  2 44  1  0  0  0
  3  7  1  0  0  0
  3  4  2  0  0  0
  4  5  1  0  0  0
  4 45  1  0  0  0
  5  6  2  0  0  0
  5 46  1  0  0  0
  6 13  1  0  0  0
  7 12  1  0  0  0
  7  8  1  0  0  0
  8  9  1  0  0  0
  8 47  1  0  0  0
  8 48  1  0  0  0
  9 10  1  0  0  0
  9 49  1  0  0  0
  9 50  1  0  0  0
 10 11  1  0  0  0
 10 51  1  0  0  0
 11 12  1  0  0  0
 11 52  1  0  0  0
 11 53  1  0  0  0
 12 54  1  0  0  0
 12 55  1  0  0  0
 13 14  1  0  0  0
 13 17  1  0  0  0
 14 15  1  0  0  0
 14 29  1  0  0  0
 14 56  1  0  0  0
 15 16  1  0  0  0
 16 17  2  0  0  0
 17 18  1  0  0  0
 18 22  2  0  0  0
 18 19  1  0  0  0
 19 20  1  0  0  0
 20 21  2  0  0  0
 20 23  1  0  0  0
 21 22  1  0  0  0
 21 57  1  0  0  0
 22 58  1  0  0  0
 23 24  2  0  0  0
 23 28  1  0  0  0
 24 25  1  0  0  0
 24 59  1  0  0  0
 25 26  2  0  0  0
 25 60  1  0  0  0
 26 27  1  0  0  0
 26 41  1  0  0  0
 27 28  2  0  0  0
 27 61  1  0  0  0
 28 62  1  0  0  0
 29 30  2  0  0  0
 29 34  1  0  0  0
 30 31  1  0  0  0
 30 63  1  0  0  0
 31 32  2  0  0  0
 31 64  1  0  0  0
 32 33  1  0  0  0
 32 65  1  0  0  0
 33 34  2  0  0  0
 33 66  1  0  0  0
 34 35  1  0  0  0
 35 36  2  0  0  0
 35 40  1  0  0  0
 36 37  1  0  0  0
 36 67  1  0  0  0
 37 38  2  0  0  0
 38 39  1  0  0  0
 38 68  1  0  0  0
 39 40  2  0  0  0
 40 69  1  0  0  0
 41 42  3  0  0  0
M  END
> <s_m_entry_id>
7643

> <s_m_entry_name>
dock_pv.204

> <s_m_Source_Path>
/home/csk/Desktop/cluster/DUD-E-result/mapk2

> <s_m_Source_File>
dock_pv.maegz

> <i_m_Source_File_Index>
204

> <chembl_id>
CHEMBL2036616

> <chembl_pref_name>
None

> <i_lp_mmshare_version>
53161

> <i_f3d_flags>
0

> <r_lp_tautomer_probability>
1

> <s_lp_Force_Field>
OPLS_2005

> <r_lp_Energy>
57.386794

> <b_lp_Chiralities_Consistent>
1

> <s_lp_Variant>
CHEMBL2208_lig13-1

> <s_i_glide_gridfile>
glide-grid_3m2w

> <i_i_glide_lignum>
16

> <i_i_glide_rotatable_bonds>
6

> <r_i_docking_score>
-6.98666723392839

> <r_i_glide_ligand_efficiency>
-0.166349219855438

> <r_i_glide_ligand_efficiency_sa>
-0.57823431985316

> <r_i_glide_ligand_efficiency_ln>
-1.47470545581435

> <r_i_glide_gscore>
-6.98666723392839

> <r_i_glide_lipo>
-2.62654438655328

> <r_i_glide_hbond>
-0.476236402073921

> <r_i_glide_metal>
0

> <r_i_glide_rewards>
-0.4820489279548

> <r_i_glide_evdw>
-55.126293182373

> <r_i_glide_ecoul>
-6.23284721374512

> <r_i_glide_erotb>
0.333646313288458

> <r_i_glide_esite>
-0.0442420894544285

> <r_i_glide_emodel>
-82.2610098734265

> <r_i_glide_energy>
-61.3591403961182

> <r_i_glide_einternal>
4.03909111022949

> <i_i_glide_confnum>
57

> <i_i_glide_posenum>
153

> <r_i_glide_eff_state_penalty>
0

> <s_user_duplicate_titles>
CHEMBL2208_lig13

> <s_m_subgroup_title>
dock_pv

> <s_m_subgroupid>
dock_pv

> <b_m_subgroup_collapsed>
1

$$$$
CHEMBL2208_lig164
                    3D
 Schrodinger Suite 2021-1.
 42 45  0  0  1  0            999 V2000
   35.3585    3.2511   13.9995 C   0  0  0  0  0  0
   34.6932    2.4252   14.9358 C   0  0  0  0  0  0
   33.6247    1.6239   14.5188 C   0  0  0  0  0  0
   33.2146    1.6282   13.1885 C   0  0  0  0  0  0
   33.8780    2.4249   12.2617 C   0  0  0  0  0  0
   34.9536    3.2193   12.6584 C   0  0  0  0  0  0
   38.2597    6.1011   19.3958 C   0  0  1  0  0  0
   39.3008    6.3439   14.0459 C   0  0  0  0  0  0
   38.2312    5.6497   14.6332 C   0  0  0  0  0  0
   38.0488    5.7049   16.0230 C   0  0  0  0  0  0
   40.1957    7.1126   14.7883 C   0  0  0  0  0  0
   39.9964    7.1428   16.1689 C   0  0  0  0  0  0
   38.9399    6.4313   16.8037 C   0  0  0  0  0  0
   40.6787    7.7909   17.1704 N   0  0  0  0  0  0
   40.1303    7.4932   18.3937 C   0  0  0  0  0  0
   39.0564    6.6381   18.2092 C   0  0  0  0  0  0
   39.1885    6.2041   20.6374 C   0  0  0  0  0  0
   39.8472    7.5296   20.6732 N   0  0  0  0  0  0
   40.5905    8.0061   19.6495 C   0  0  0  0  0  0
   41.4779    8.8250   19.8381 O   0  0  0  0  0  0
   36.9224    6.8251   19.6192 C   0  0  0  0  0  0
   37.2871    4.8517   13.7681 C   0  0  0  0  0  0
   36.3961    4.0916   14.4448 N   0  0  0  0  0  0
   37.3866    4.9210   12.5419 O   0  0  0  0  0  0
   35.0837    2.3593   16.3451 C   0  0  0  0  0  0
   35.3995    2.3093   17.4567 N   0  0  0  0  0  0
   33.1000    0.9902   15.2215 H   0  0  0  0  0  0
   32.3848    1.0111   12.8743 H   0  0  0  0  0  0
   33.5691    2.4201   11.2263 H   0  0  0  0  0  0
   35.4448    3.7980   11.8952 H   0  0  0  0  0  0
   38.0389    5.0440   19.2357 H   0  0  0  0  0  0
   39.4489    6.3045   12.9755 H   0  0  0  0  0  0
   37.2443    5.1909   16.5261 H   0  0  0  0  0  0
   41.0017    7.6522   14.3109 H   0  0  0  0  0  0
   41.4732    8.4060   17.0727 H   0  0  0  0  0  0
   39.9530    5.4239   20.6095 H   0  0  0  0  0  0
   38.6343    6.0455   21.5633 H   0  0  0  0  0  0
   39.9957    7.9417   21.5821 H   0  0  0  0  0  0
   36.2835    6.7731   18.7362 H   0  0  0  0  0  0
   36.3698    6.3758   20.4459 H   0  0  0  0  0  0
   37.0717    7.8758   19.8720 H   0  0  0  0  0  0
   36.5021    4.0983   15.4457 H   0  0  0  0  0  0
  1  2  2  0  0  0
  1 23  1  0  0  0
  1  6  1  0  0  0
  2  3  1  0  0  0
  2 25  1  0  0  0
  3  4  2  0  0  0
  3 27  1  0  0  0
  4  5  1  0  0  0
  4 28  1  0  0  0
  5  6  2  0  0  0
  5 29  1  0  0  0
  6 30  1  0  0  0
  7 16  1  0  0  0
  7 17  1  0  0  0
  7 21  1  0  0  0
  7 31  1  0  0  0
  8  9  2  0  0  0
  8 11  1  0  0  0
  8 32  1  0  0  0
  9 10  1  0  0  0
  9 22  1  0  0  0
 10 13  2  0  0  0
 10 33  1  0  0  0
 11 12  2  0  0  0
 11 34  1  0  0  0
 12 14  1  0  0  0
 12 13  1  0  0  0
 13 16  1  0  0  0
 14 15  1  0  0  0
 14 35  1  0  0  0
 15 16  2  0  0  0
 15 19  1  0  0  0
 17 18  1  0  0  0
 17 36  1  0  0  0
 17 37  1  0  0  0
 18 19  1  0  0  0
 18 38  1  0  0  0
 19 20  2  0  0  0
 21 39  1  0  0  0
 21 40  1  0  0  0
 21 41  1  0  0  0
 22 23  1  0  0  0
 22 24  2  0  0  0
 23 42  1  0  0  0
 25 26  3  0  0  0
M  END
> <s_m_entry_id>
7644

> <s_m_entry_name>
dock_pv.205

> <s_m_Source_Path>
/home/csk/Desktop/cluster/DUD-E-result/mapk2

> <s_m_Source_File>
dock_pv.maegz

> <i_m_Source_File_Index>
205

> <chembl_id>
CHEMBL429474

> <chembl_pref_name>
None

> <i_lp_mmshare_version>
53161

> <i_f3d_flags>
0

> <r_lp_tautomer_probability>
1

> <s_lp_Force_Field>
OPLS_2005

> <r_lp_Energy>
32.207881

> <b_lp_Chiralities_Consistent>
1

> <s_lp_Variant>
CHEMBL2208_lig164-2

> <s_i_glide_gridfile>
glide-grid_3m2w

> <i_i_glide_lignum>
249

> <i_i_glide_rotatable_bonds>
3

> <r_i_docking_score>
-6.98281213899394

> <r_i_glide_ligand_efficiency>
-0.268569697653613

> <r_i_glide_ligand_efficiency_sa>
-0.795636672528098

> <r_i_glide_ligand_efficiency_ln>
-1.63989051836727

> <r_i_glide_gscore>
-6.98281213899394

> <r_i_glide_lipo>
-2.65363120888981

> <r_i_glide_hbond>
-0.46776817027056

> <r_i_glide_metal>
0

> <r_i_glide_rewards>
-1.22796624165283

> <r_i_glide_evdw>
-35.5189094543457

> <r_i_glide_ecoul>
-8.16031646728516

> <r_i_glide_erotb>
0.480313527513786

> <r_i_glide_esite>
-0.113767102884464

> <r_i_glide_emodel>
-62.9035066163658

> <r_i_glide_energy>
-43.6792259216309

> <r_i_glide_einternal>
0.0332711152732372

> <i_i_glide_confnum>
1

> <i_i_glide_posenum>
106

> <r_i_glide_eff_state_penalty>
0

> <s_user_duplicate_titles>
CHEMBL2208_lig164

> <s_m_subgroup_title>
dock_pv

> <s_m_subgroupid>
dock_pv

> <b_m_subgroup_collapsed>
1

$$$$
CHEMBL2208_lig157
                    3D
 Schrodinger Suite 2021-1.
 40 43  0  0  1  0            999 V2000
   38.2705    6.0923   19.3744 C   0  0  1  0  0  0
   39.3504    6.3519   14.0331 C   0  0  0  0  0  0
   38.2570    5.6821   14.6047 C   0  0  0  0  0  0
   38.0656    5.7326   15.9930 C   0  0  0  0  0  0
   40.2506    7.1044   14.7858 C   0  0  0  0  0  0
   40.0355    7.1370   16.1640 C   0  0  0  0  0  0
   38.9633    6.4389   16.7864 C   0  0  0  0  0  0
   40.7132    7.7795   17.1718 N   0  0  0  0  0  0
   40.1544    7.4797   18.3908 C   0  0  0  0  0  0
   39.0750    6.6331   18.1949 C   0  0  0  0  0  0
   39.1973    6.1785   20.6205 C   0  0  0  0  0  0
   39.8643    7.4995   20.6722 N   0  0  0  0  0  0
   40.6032    7.9925   19.6523 C   0  0  0  0  0  0
   41.4780    8.8250   19.8486 O   0  0  0  0  0  0
   36.9385    6.8247   19.6009 C   0  0  0  0  0  0
   37.2988    4.9169   13.7230 C   0  0  0  0  0  0
   36.3729    4.1850   14.3864 N   0  0  0  0  0  0
   37.4108    4.9865   12.4978 O   0  0  0  0  0  0
   35.3253    3.3864   13.9197 C   0  0  0  0  0  0
   34.5563    2.7384   14.8925 C   0  0  0  0  0  0
   33.4667    1.9655   14.4909 C   0  0  0  0  0  0
   33.1160    1.8067   13.1908 N   0  0  0  0  0  0
   33.8780    2.4249   12.2560 C   0  0  0  0  0  0
   34.9932    3.2116   12.5704 C   0  0  0  0  0  0
   38.0451    5.0376   19.2062 H   0  0  0  0  0  0
   39.5132    6.3055   12.9656 H   0  0  0  0  0  0
   37.2460    5.2324   16.4863 H   0  0  0  0  0  0
   41.0743    7.6269   14.3185 H   0  0  0  0  0  0
   41.5106    8.3933   17.0812 H   0  0  0  0  0  0
   39.9555    5.3940   20.5894 H   0  0  0  0  0  0
   38.6382    6.0167   21.5432 H   0  0  0  0  0  0
   39.9998    7.9082   21.5861 H   0  0  0  0  0  0
   36.3009    6.7924   18.7153 H   0  0  0  0  0  0
   36.3791    6.3660   20.4174 H   0  0  0  0  0  0
   37.0970    7.8693   19.8719 H   0  0  0  0  0  0
   36.4354    4.2117   15.3889 H   0  0  0  0  0  0
   34.7816    2.8338   15.9447 H   0  0  0  0  0  0
   32.8488    1.4632   15.2208 H   0  0  0  0  0  0
   33.5853    2.2752   11.2273 H   0  0  0  0  0  0
   35.5771    3.6251   11.7654 H   0  0  0  0  0  0
  1 10  1  0  0  0
  1 11  1  0  0  0
  1 15  1  0  0  0
  1 25  1  0  0  0
  2  3  2  0  0  0
  2  5  1  0  0  0
  2 26  1  0  0  0
  3  4  1  0  0  0
  3 16  1  0  0  0
  4  7  2  0  0  0
  4 27  1  0  0  0
  5  6  2  0  0  0
  5 28  1  0  0  0
  6  8  1  0  0  0
  6  7  1  0  0  0
  7 10  1  0  0  0
  8  9  1  0  0  0
  8 29  1  0  0  0
  9 13  1  0  0  0
  9 10  2  0  0  0
 11 12  1  0  0  0
 11 30  1  0  0  0
 11 31  1  0  0  0
 12 13  1  0  0  0
 12 32  1  0  0  0
 13 14  2  0  0  0
 15 33  1  0  0  0
 15 34  1  0  0  0
 15 35  1  0  0  0
 16 17  1  0  0  0
 16 18  2  0  0  0
 17 19  1  0  0  0
 17 36  1  0  0  0
 19 20  2  0  0  0
 19 24  1  0  0  0
 20 21  1  0  0  0
 20 37  1  0  0  0
 21 22  2  0  0  0
 21 38  1  0  0  0
 22 23  1  0  0  0
 23 24  2  0  0  0
 23 39  1  0  0  0
 24 40  1  0  0  0
M  END
> <s_m_entry_id>
7645

> <s_m_entry_name>
dock_pv.206

> <s_m_Source_Path>
/home/csk/Desktop/cluster/DUD-E-result/mapk2

> <s_m_Source_File>
dock_pv.maegz

> <i_m_Source_File_Index>
206

> <chembl_id>
CHEMBL247509

> <chembl_pref_name>
None

> <i_lp_mmshare_version>
53161

> <i_f3d_flags>
0

> <r_lp_tautomer_probability>
1

> <s_lp_Force_Field>
OPLS_2005

> <r_lp_Energy>
30.586236

> <b_lp_Chiralities_Consistent>
1

> <s_lp_Variant>
CHEMBL2208_lig157-2

> <s_i_glide_gridfile>
glide-grid_3m2w

> <i_i_glide_lignum>
236

> <i_i_glide_rotatable_bonds>
3

> <r_i_docking_score>
-6.98169836336297

> <r_i_glide_ligand_efficiency>
-0.290904098473457

> <r_i_glide_ligand_efficiency_sa>
-0.8391126211591

> <r_i_glide_ligand_efficiency_ln>
-1.67104078761511

> <r_i_glide_gscore>
-6.98169836336297

> <r_i_glide_lipo>
-2.50074508153469

> <r_i_glide_hbond>
-0.478448349275132

> <r_i_glide_metal>
0

> <r_i_glide_rewards>
-1.40562647396463

> <r_i_glide_evdw>
-33.0681571960449

> <r_i_glide_ecoul>
-9.2277250289917

> <r_i_glide_erotb>
0.545836948123788

> <r_i_glide_esite>
-0.105148792561306

> <r_i_glide_emodel>
-60.6377476746558

> <r_i_glide_energy>
-42.2958822250366

> <r_i_glide_einternal>
0.22175557911396

> <i_i_glide_confnum>
1

> <i_i_glide_posenum>
154

> <r_i_glide_eff_state_penalty>
0

> <s_user_duplicate_titles>
CHEMBL2208_lig157,412026

> <s_m_subgroup_title>
dock_pv

> <s_m_subgroupid>
dock_pv

> <b_m_subgroup_collapsed>
1

$$$$
CHEMBL2208_lig809
                    3D
 Schrodinger Suite 2021-1.
 50 54  0  0  1  0            999 V2000
   37.5582    6.2637   20.8449 C   0  0  1  0  0  0
   38.0899    4.9620   21.4490 C   0  0  0  0  0  0
   37.0100    4.5481   22.4514 C   0  0  0  0  0  0
   35.7665    5.2244   22.0835 N   0  0  2  0  0  0
   36.0446    6.0121   20.8938 C   0  0  0  0  0  0
   37.9545    7.5364   21.6660 C   0  0  0  0  0  0
   39.3530    7.9392   21.3982 N   0  0  0  0  0  0
   39.9472    7.9696   20.1779 C   0  0  0  0  0  0
   41.0784    8.4251   20.0364 O   0  0  0  0  0  0
   38.0790    6.5017   19.4392 C   0  0  0  0  0  0
   39.1570    7.3248   19.1676 C   0  0  0  0  0  0
   39.3776    7.2417   17.7873 C   0  0  0  0  0  0
   38.4114    6.4242   17.2158 C   0  0  0  0  0  0
   37.6363    5.9733   18.2592 N   0  0  0  0  0  0
   38.1946    6.0250   15.8042 C   0  0  0  0  0  0
   39.0751    6.4201   14.7912 C   0  0  0  0  0  0
   38.8214    6.0040   13.4848 C   0  0  0  0  0  0
   37.7582    5.2250   13.1546 N   0  0  0  0  0  0
   36.9207    4.8260   14.1471 C   0  0  0  0  0  0
   37.0938    5.2334   15.4713 C   0  0  0  0  0  0
   35.8767    3.9800   13.7536 N   0  0  0  0  0  0
   35.2207    3.0514   14.4894 C   0  0  0  0  0  0
   34.1303    2.2708   13.7794 C   0  0  0  0  0  0
   35.4787    2.8066   15.6709 O   0  0  0  0  0  0
   33.8770    2.4249   12.4044 C   0  0  0  0  0  0
   32.8666    1.6944   11.7862 C   0  0  0  0  0  0
   32.0982    0.8060   12.5317 C   0  0  0  0  0  0
   32.3325    0.6417   13.8924 C   0  0  0  0  0  0
   33.3434    1.3698   14.5129 C   0  0  0  0  0  0
   31.1188    0.0948   11.9280 F   0  0  0  0  0  0
   38.2021    4.1848   20.6892 H   0  0  0  0  0  0
   39.0780    5.0764   21.8961 H   0  0  0  0  0  0
   36.8420    3.4686   22.4085 H   0  0  0  0  0  0
   37.3036    4.7846   23.4776 H   0  0  0  0  0  0
   35.4588    5.8268   22.8428 H   0  0  0  0  0  0
   35.4768    6.9426   20.8857 H   0  0  0  0  0  0
   35.7171    5.4239   20.0367 H   0  0  0  0  0  0
   37.8304    7.3666   22.7352 H   0  0  0  0  0  0
   37.3084    8.3770   21.4112 H   0  0  0  0  0  0
   39.9560    8.0767   22.1989 H   0  0  0  0  0  0
   40.1767    7.7438   17.2616 H   0  0  0  0  0  0
   36.8685    5.3235   18.1681 H   0  0  0  0  0  0
   39.9368    7.0345   15.0027 H   0  0  0  0  0  0
   39.4824    6.2934   12.6794 H   0  0  0  0  0  0
   36.3885    4.9394   16.2325 H   0  0  0  0  0  0
   35.6753    4.0015   12.7683 H   0  0  0  0  0  0
   34.4567    3.0985   11.7893 H   0  0  0  0  0  0
   32.6750    1.8103   10.7283 H   0  0  0  0  0  0
   31.7266   -0.0453   14.4657 H   0  0  0  0  0  0
   33.5036    1.2305   15.5724 H   0  0  0  0  0  0
  1 10  1  0  0  0
  1  6  1  0  0  0
  1  5  1  0  0  0
  1  2  1  0  0  0
  2  3  1  0  0  0
  2 31  1  0  0  0
  2 32  1  0  0  0
  3  4  1  0  0  0
  3 33  1  0  0  0
  3 34  1  0  0  0
  4  5  1  0  0  0
  4 35  1  0  0  0
  5 36  1  0  0  0
  5 37  1  0  0  0
  6  7  1  0  0  0
  6 38  1  0  0  0
  6 39  1  0  0  0
  7  8  1  0  0  0
  7 40  1  0  0  0
  8 11  1  0  0  0
  8  9  2  0  0  0
 10 14  1  0  0  0
 10 11  2  0  0  0
 11 12  1  0  0  0
 12 13  2  0  0  0
 12 41  1  0  0  0
 13 15  1  0  0  0
 13 14  1  0  0  0
 14 42  1  0  0  0
 15 16  2  0  0  0
 15 20  1  0  0  0
 16 17  1  0  0  0
 16 43  1  0  0  0
 17 18  2  0  0  0
 17 44  1  0  0  0
 18 19  1  0  0  0
 19 20  2  0  0  0
 19 21  1  0  0  0
 20 45  1  0  0  0
 21 22  1  0  0  0
 21 46  1  0  0  0
 22 23  1  0  0  0
 22 24  2  0  0  0
 23 25  2  0  0  0
 23 29  1  0  0  0
 25 26  1  0  0  0
 25 47  1  0  0  0
 26 27  2  0  0  0
 26 48  1  0  0  0
 27 28  1  0  0  0
 27 30  1  0  0  0
 28 29  2  0  0  0
 28 49  1  0  0  0
 29 50  1  0  0  0
M  END
> <s_m_entry_id>
7646

> <s_m_entry_name>
dock_pv.207

> <s_m_Source_Path>
/home/csk/Desktop/cluster/DUD-E-result/mapk2

> <s_m_Source_File>
dock_pv.maegz

> <i_m_Source_File_Index>
207

> <chembl_id>
CHEMBL1933190

> <chembl_pref_name>
None

> <i_lp_mmshare_version>
53161

> <i_f3d_flags>
0

> <r_lp_tautomer_probability>
1

> <s_lp_Force_Field>
OPLS_2005

> <r_lp_Energy>
52.80777

> <b_lp_Chiralities_Consistent>
1

> <s_lp_Variant>
CHEMBL2208_lig809-1

> <s_i_glide_gridfile>
glide-grid_3m2w

> <i_i_glide_lignum>
1029

> <i_i_glide_rotatable_bonds>
4

> <r_i_docking_score>
-6.98090616188588

> <r_i_glide_ligand_efficiency>
-0.232696872062863

> <r_i_glide_ligand_efficiency_sa>
-0.723043284087775

> <r_i_glide_ligand_efficiency_ln>
-1.58613794304528

> <r_i_glide_gscore>
-6.98090616188588

> <r_i_glide_lipo>
-2.32546914456245

> <r_i_glide_hbond>
-0.626128638410724

> <r_i_glide_metal>
0

> <r_i_glide_rewards>
-1.05030800408415

> <r_i_glide_evdw>
-44.4298362731934

> <r_i_glide_ecoul>
-7.45489263534546

> <r_i_glide_erotb>
0.478254447928135

> <r_i_glide_esite>
-0.117529113795202

> <r_i_glide_emodel>
-72.210113558602

> <r_i_glide_energy>
-51.8847289085388

> <r_i_glide_einternal>
4.3608717918396

> <i_i_glide_confnum>
93

> <i_i_glide_posenum>
215

> <r_i_glide_eff_state_penalty>
0

> <s_user_duplicate_titles>
CHEMBL2208_lig809

> <s_m_subgroup_title>
dock_pv

> <s_m_subgroupid>
dock_pv

> <b_m_subgroup_collapsed>
1

$$$$
CHEMBL2208_lig814
                    3D
 Schrodinger Suite 2021-1.
 52 56  0  0  1  0            999 V2000
   37.7815    6.2183   20.6652 C   0  0  1  0  0  0
   38.4919    4.9952   21.3054 C   0  0  0  0  0  0
   37.8310    4.5832   22.6311 C   0  0  0  0  0  0
   36.3221    4.3380   22.4481 C   0  0  0  0  0  0
   35.6543    5.5055   21.8721 N   0  0  2  0  0  0
   36.2530    5.9341   20.6131 C   0  0  0  0  0  0
   38.0838    7.5576   21.4264 C   0  0  0  0  0  0
   39.4779    8.0185   21.1966 N   0  0  0  0  0  0
   40.1159    8.0256   19.9943 C   0  0  0  0  0  0
   41.2331    8.5212   19.8720 O   0  0  0  0  0  0
   38.3122    6.4862   19.2702 C   0  0  0  0  0  0
   39.3595    7.3461   18.9837 C   0  0  0  0  0  0
   39.5721    7.2575   17.6015 C   0  0  0  0  0  0
   38.6057    6.4255   17.0459 C   0  0  0  0  0  0
   37.8668    5.9505   18.0981 N   0  0  0  0  0  0
   38.3342    6.0245   15.6472 C   0  0  0  0  0  0
   39.1994    6.3776   14.6101 C   0  0  0  0  0  0
   38.8859    5.9623   13.3190 C   0  0  0  0  0  0
   37.7818    5.2230   13.0259 N   0  0  0  0  0  0
   36.9611    4.8522   14.0444 C   0  0  0  0  0  0
   37.1977    5.2649   15.3579 C   0  0  0  0  0  0
   35.8778    4.0239   13.7067 N   0  0  0  0  0  0
   35.2647    3.0923   14.4849 C   0  0  0  0  0  0
   34.1091    2.3222   13.8686 C   0  0  0  0  0  0
   35.6081    2.8351   15.6412 O   0  0  0  0  0  0
   32.0025    0.9247   12.7241 C   0  0  0  0  0  0
   32.8526    1.7373   11.9751 C   0  0  0  0  0  0
   33.8828    2.4249   12.5255 N   0  0  0  0  0  0
   32.2282    0.8175   14.0973 C   0  0  0  0  0  0
   33.2888    1.5168   14.6781 C   0  0  0  0  0  0
   38.4408    4.1404   20.6289 H   0  0  0  0  0  0
   39.5528    5.1962   21.4663 H   0  0  0  0  0  0
   38.2986    3.6670   22.9965 H   0  0  0  0  0  0
   38.0101    5.3180   23.4170 H   0  0  0  0  0  0
   36.1553    3.4751   21.7981 H   0  0  0  0  0  0
   35.8605    4.1053   23.4086 H   0  0  0  0  0  0
   35.6680    6.2568   22.5554 H   0  0  0  0  0  0
   35.7270    6.8251   20.2724 H   0  0  0  0  0  0
   36.0352    5.1575   19.8786 H   0  0  0  0  0  0
   37.9206    7.4505   22.4980 H   0  0  0  0  0  0
   37.4138    8.3513   21.0921 H   0  0  0  0  0  0
   40.0440    8.2064   22.0151 H   0  0  0  0  0  0
   40.3482    7.7774   17.0573 H   0  0  0  0  0  0
   37.1069    5.2902   18.0196 H   0  0  0  0  0  0
   40.0892    6.9613   14.7902 H   0  0  0  0  0  0
   39.5296    6.2242   12.4905 H   0  0  0  0  0  0
   36.5058    4.9953   16.1409 H   0  0  0  0  0  0
   35.6006    4.0480   12.7385 H   0  0  0  0  0  0
   31.1865    0.3940   12.2550 H   0  0  0  0  0  0
   32.7165    1.8484   10.9096 H   0  0  0  0  0  0
   31.5845    0.2005   14.7102 H   0  0  0  0  0  0
   33.4615    1.4344   15.7427 H   0  0  0  0  0  0
  1  6  1  0  0  0
  1 11  1  0  0  0
  1  7  1  0  0  0
  1  2  1  0  0  0
  2  3  1  0  0  0
  2 31  1  0  0  0
  2 32  1  0  0  0
  3  4  1  0  0  0
  3 33  1  0  0  0
  3 34  1  0  0  0
  4  5  1  0  0  0
  4 35  1  0  0  0
  4 36  1  0  0  0
  5  6  1  0  0  0
  5 37  1  0  0  0
  6 38  1  0  0  0
  6 39  1  0  0  0
  7  8  1  0  0  0
  7 40  1  0  0  0
  7 41  1  0  0  0
  8  9  1  0  0  0
  8 42  1  0  0  0
  9 12  1  0  0  0
  9 10  2  0  0  0
 11 15  1  0  0  0
 11 12  2  0  0  0
 12 13  1  0  0  0
 13 14  2  0  0  0
 13 43  1  0  0  0
 14 15  1  0  0  0
 14 16  1  0  0  0
 15 44  1  0  0  0
 16 17  2  0  0  0
 16 21  1  0  0  0
 17 18  1  0  0  0
 17 45  1  0  0  0
 18 19  2  0  0  0
 18 46  1  0  0  0
 19 20  1  0  0  0
 20 21  2  0  0  0
 20 22  1  0  0  0
 21 47  1  0  0  0
 22 23  1  0  0  0
 22 48  1  0  0  0
 23 24  1  0  0  0
 23 25  2  0  0  0
 24 30  2  0  0  0
 24 28  1  0  0  0
 26 29  2  0  0  0
 26 27  1  0  0  0
 26 49  1  0  0  0
 27 28  2  0  0  0
 27 50  1  0  0  0
 29 30  1  0  0  0
 29 51  1  0  0  0
 30 52  1  0  0  0
M  END
> <s_m_entry_id>
7647

> <s_m_entry_name>
dock_pv.208

> <s_m_Source_Path>
/home/csk/Desktop/cluster/DUD-E-result/mapk2

> <s_m_Source_File>
dock_pv.maegz

> <i_m_Source_File_Index>
208

> <chembl_id>
CHEMBL1933185

> <chembl_pref_name>
None

> <i_lp_mmshare_version>
53161

> <i_f3d_flags>
0

> <r_lp_tautomer_probability>
1

> <s_lp_Force_Field>
OPLS_2005

> <r_lp_Energy>
38.57582

> <b_lp_Chiralities_Consistent>
1

> <s_lp_Variant>
CHEMBL2208_lig814-1

> <s_i_glide_gridfile>
glide-grid_3m2w

> <i_i_glide_lignum>
1039

> <i_i_glide_rotatable_bonds>
4

> <r_i_docking_score>
-6.97713694461442

> <r_i_glide_ligand_efficiency>
-0.232571231487147

> <r_i_glide_ligand_efficiency_sa>
-0.722652889607289

> <r_i_glide_ligand_efficiency_ln>
-1.58528153581229

> <r_i_glide_gscore>
-6.97713694461442

> <r_i_glide_lipo>
-2.16368543129019

> <r_i_glide_hbond>
-0.628085459645837

> <r_i_glide_metal>
0

> <r_i_glide_rewards>
-1.11613062477839

> <r_i_glide_evdw>
-45.3419036865234

> <r_i_glide_ecoul>
-7.8092155456543

> <r_i_glide_erotb>
0.484644268898379

> <r_i_glide_esite>
-0.115402181624064

> <r_i_glide_emodel>
-72.8026925060042

> <r_i_glide_energy>
-53.1511192321777

> <r_i_glide_einternal>
4.87856245040894

> <i_i_glide_confnum>
48

> <i_i_glide_posenum>
362

> <r_i_glide_eff_state_penalty>
0

> <s_user_duplicate_titles>
CHEMBL2208_lig814

> <s_m_subgroup_title>
dock_pv

> <s_m_subgroupid>
dock_pv

> <b_m_subgroup_collapsed>
1

$$$$
CHEMBL2208_lig1342
                    3D
 Schrodinger Suite 2021-1.
 49 52  0  0  1  0            999 V2000
   33.8781   -0.3754   16.7011 Cl  0  0  0  0  0  0
   37.5187    5.2099   21.9557 O   0  0  0  0  0  0
   40.2080    6.4240   13.5240 N   0  0  0  0  0  0
   39.1022    5.8084   13.0735 N   0  0  0  0  0  0
   39.0354    8.3708   20.9913 N   0  0  0  0  0  0
   34.7689    4.4708   22.4852 N   0  0  0  0  0  0
   38.8992    6.1172   15.2997 C   0  0  0  0  0  0
   40.1499    6.6386   14.8865 C   0  0  0  0  0  0
   39.4107    6.8045   17.5707 C   0  0  0  0  0  0
   38.5350    6.2000   16.6569 C   0  0  0  0  0  0
   38.3106    5.6077   14.0968 C   0  0  0  0  0  0
   39.0430    6.9598   19.0092 C   0  0  0  0  0  0
   41.0429    7.2249   15.7835 C   0  0  0  0  0  0
   40.6416    7.2939   17.1158 C   0  0  0  0  0  0
   38.4243    5.9374   19.7487 C   0  0  0  0  0  0
   38.1149    6.1273   21.1101 C   0  0  0  0  0  0
   39.3152    8.1570   19.6843 C   0  0  0  0  0  0
   38.4538    7.3575   21.6771 C   0  0  0  0  0  0
   36.9948    4.8894   13.9059 C   0  0  0  0  0  0
   36.9476    3.9927   21.4675 C   0  0  0  0  0  0
   35.4264    4.1653   21.2246 C   0  0  1  0  0  0
   34.9824    2.5763   19.1813 C   0  0  0  0  0  0
   34.7385    2.9007   20.6535 C   0  0  0  0  0  0
   34.4343    1.3977   18.6661 C   0  0  0  0  0  0
   34.5973    1.0642   17.3219 C   0  0  0  0  0  0
   35.7005    3.4205   18.3261 C   0  0  0  0  0  0
   35.3262    1.9041   16.4805 C   0  0  0  0  0  0
   35.8765    3.0801   16.9876 C   0  0  0  0  0  0
   40.9469    6.6713   12.8748 H   0  0  0  0  0  0
   34.9465    3.7290   23.1474 H   0  0  0  0  0  0
   35.1806    5.3054   22.8895 H   0  0  0  0  0  0
   37.5787    5.8214   16.9857 H   0  0  0  0  0  0
   41.9945    7.6251   15.4712 H   0  0  0  0  0  0
   41.3201    7.7517   17.8208 H   0  0  0  0  0  0
   38.2224    5.0009   19.2564 H   0  0  0  0  0  0
   39.7671    8.9880   19.1647 H   0  0  0  0  0  0
   38.2598    7.5405   22.7241 H   0  0  0  0  0  0
   37.0587    3.8623   14.2632 H   0  0  0  0  0  0
   36.1803    5.3749   14.4443 H   0  0  0  0  0  0
   36.6976    4.8263   12.8584 H   0  0  0  0  0  0
   37.0947    3.2410   22.2445 H   0  0  0  0  0  0
   37.4629    3.5876   20.5991 H   0  0  0  0  0  0
   35.2482    5.0157   20.5657 H   0  0  0  0  0  0
   33.6557    3.0008   20.7548 H   0  0  0  0  0  0
   35.0156    2.0287   21.2500 H   0  0  0  0  0  0
   33.8792    0.7366   19.3169 H   0  0  0  0  0  0
   36.1186    4.3501   18.6757 H   0  0  0  0  0  0
   35.4574    1.6545   15.4377 H   0  0  0  0  0  0
   36.4321    3.7431   16.3476 H   0  0  0  0  0  0
  1 25  1  0  0  0
  2 16  1  0  0  0
  2 20  1  0  0  0
  3  4  1  0  0  0
  3  8  1  0  0  0
  3 29  1  0  0  0
  4 11  2  0  0  0
  5 17  1  0  0  0
  5 18  2  0  0  0
  6 21  1  0  0  0
  6 30  1  0  0  0
  6 31  1  0  0  0
  7  8  1  0  0  0
  7 10  2  0  0  0
  7 11  1  0  0  0
  8 13  2  0  0  0
  9 10  1  0  0  0
  9 12  1  0  0  0
  9 14  2  0  0  0
 10 32  1  0  0  0
 11 19  1  0  0  0
 12 15  1  0  0  0
 12 17  2  0  0  0
 13 14  1  0  0  0
 13 33  1  0  0  0
 14 34  1  0  0  0
 15 16  2  0  0  0
 15 35  1  0  0  0
 16 18  1  0  0  0
 17 36  1  0  0  0
 18 37  1  0  0  0
 19 38  1  0  0  0
 19 39  1  0  0  0
 19 40  1  0  0  0
 20 21  1  0  0  0
 20 41  1  0  0  0
 20 42  1  0  0  0
 21 23  1  0  0  0
 21 43  1  0  0  0
 22 23  1  0  0  0
 22 24  1  0  0  0
 22 26  2  0  0  0
 23 44  1  0  0  0
 23 45  1  0  0  0
 24 25  2  0  0  0
 24 46  1  0  0  0
 25 27  1  0  0  0
 26 28  1  0  0  0
 26 47  1  0  0  0
 27 28  2  0  0  0
 27 48  1  0  0  0
 28 49  1  0  0  0
M  END
> <s_m_entry_id>
7648

> <s_m_entry_name>
dock_pv.209

> <s_m_Source_Path>
/home/csk/Desktop/cluster/DUD-E-result/mapk2

> <s_m_Source_File>
dock_pv.maegz

> <i_m_Source_File_Index>
209

> <chembl_id>
CHEMBL1974870

> <chembl_pref_name>
None

> <i_lp_mmshare_version>
53161

> <i_f3d_flags>
0

> <r_lp_tautomer_probability>
0.980392156862745

> <s_lp_Force_Field>
OPLS_2005

> <r_lp_Energy>
22.342756

> <b_lp_Chiralities_Consistent>
1

> <s_lp_Variant>
CHEMBL2208_lig1342-2

> <s_i_glide_gridfile>
glide-grid_3m2w

> <i_i_glide_lignum>
1824

> <i_i_glide_rotatable_bonds>
6

> <r_i_docking_score>
-6.97484104831247

> <r_i_glide_ligand_efficiency>
-0.24910146601116

> <r_i_glide_ligand_efficiency_sa>
-0.756418763727367

> <r_i_glide_ligand_efficiency_ln>
-1.60999810418239

> <r_i_glide_gscore>
-6.97484104831247

> <r_i_glide_lipo>
-2.32456143934446

> <r_i_glide_hbond>
-0.606842851015848

> <r_i_glide_metal>
0

> <r_i_glide_rewards>
-1.62326679097208

> <r_i_glide_evdw>
-43.9366226196289

> <r_i_glide_ecoul>
-5.70629501342773

> <r_i_glide_erotb>
0.632605416015526

> <r_i_glide_esite>
0

> <r_i_glide_emodel>
-65.2053342251319

> <r_i_glide_energy>
-49.6429176330566

> <r_i_glide_einternal>
10.755859375

> <i_i_glide_confnum>
72

> <i_i_glide_posenum>
21

> <r_i_glide_eff_state_penalty>
0

> <s_user_duplicate_titles>
CHEMBL2208_lig1342

> <s_m_subgroup_title>
dock_pv

> <s_m_subgroupid>
dock_pv

> <b_m_subgroup_collapsed>
1

$$$$
CHEMBL2208_lig489
                    3D
 Schrodinger Suite 2021-1.
 39 43  0  0  1  0            999 V2000
   39.4783    7.5435   20.7677 N   0  0  0  0  0  0
   38.2795    6.8932   20.7958 C   0  0  0  0  0  0
   37.6424    6.5300   19.6004 C   0  0  0  0  0  0
   40.0871    7.7793   19.5857 C   0  0  0  0  0  0
   39.5789    7.3625   18.3441 C   0  0  0  0  0  0
   38.3265    6.6932   18.3675 C   0  0  0  0  0  0
   39.7320    7.0637   15.9172 C   0  0  0  0  0  0
   40.2508    7.5617   17.1139 C   0  0  0  0  0  0
   38.5309    6.3373   15.9290 C   0  0  0  0  0  0
   37.8234    6.1772   17.1496 C   0  0  0  0  0  0
   36.6803    5.4333   16.9175 N   0  0  0  0  0  0
   37.7681    5.6249   14.9526 C   0  0  0  0  0  0
   36.6919    5.0861   15.5906 C   0  0  0  0  0  0
   35.8793    4.2616   14.6739 C   0  0  0  0  0  0
   36.6773    4.4251   13.4701 N   0  0  0  0  0  0
   37.7217    5.2730   13.5730 C   0  0  0  0  0  0
   38.4736    5.6247   12.6720 O   0  0  0  0  0  0
   37.7505    6.5903   22.1811 C   0  0  0  0  0  0
   38.0991    7.4808   23.2145 C   0  0  0  0  0  0
   37.8211    7.2262   24.5511 C   0  0  0  0  0  0
   37.0970    6.0987   24.8984 C   0  0  0  0  0  0
   36.6775    5.2252   23.9044 C   0  0  0  0  0  0
   36.9923    5.4384   22.5493 C   0  0  0  0  0  0
   36.5359    4.3480   21.5653 C   0  0  0  0  0  0
   36.1964    3.2238   22.1904 F   0  0  0  0  0  0
   35.4374    4.7639   20.9319 F   0  0  0  0  0  0
   37.4784    4.0245   20.6814 F   0  0  0  0  0  0
   36.6723    6.0724   19.5858 H   0  0  0  0  0  0
   41.0435    8.2764   19.6322 H   0  0  0  0  0  0
   40.2743    7.2016   14.9932 H   0  0  0  0  0  0
   41.1942    8.0887   17.1063 H   0  0  0  0  0  0
   35.9679    5.1273   17.5649 H   0  0  0  0  0  0
   35.8305    3.2118   14.9669 H   0  0  0  0  0  0
   34.8655    4.6298   14.5257 H   0  0  0  0  0  0
   36.7386    3.6399   12.8347 H   0  0  0  0  0  0
   38.6769    8.3688   23.0044 H   0  0  0  0  0  0
   38.1688    7.9100   25.3120 H   0  0  0  0  0  0
   36.8620    5.8986   25.9332 H   0  0  0  0  0  0
   36.1119    4.3582   24.2134 H   0  0  0  0  0  0
  1  2  2  0  0  0
  1  4  1  0  0  0
  2  3  1  0  0  0
  2 18  1  0  0  0
  3  6  2  0  0  0
  3 28  1  0  0  0
  4  5  2  0  0  0
  4 29  1  0  0  0
  5  6  1  0  0  0
  5  8  1  0  0  0
  6 10  1  0  0  0
  7  9  1  0  0  0
  7  8  2  0  0  0
  7 30  1  0  0  0
  8 31  1  0  0  0
  9 10  2  0  0  0
  9 12  1  0  0  0
 10 11  1  0  0  0
 11 13  1  0  0  0
 11 32  1  0  0  0
 12 16  1  0  0  0
 12 13  2  0  0  0
 13 14  1  0  0  0
 14 15  1  0  0  0
 14 33  1  0  0  0
 14 34  1  0  0  0
 15 16  1  0  0  0
 15 35  1  0  0  0
 16 17  2  0  0  0
 18 19  2  0  0  0
 18 23  1  0  0  0
 19 20  1  0  0  0
 19 36  1  0  0  0
 20 21  2  0  0  0
 20 37  1  0  0  0
 21 22  1  0  0  0
 21 38  1  0  0  0
 22 23  2  0  0  0
 22 39  1  0  0  0
 23 24  1  0  0  0
 24 25  1  0  0  0
 24 26  1  0  0  0
 24 27  1  0  0  0
M  END
> <s_m_entry_id>
7649

> <s_m_entry_name>
dock_pv.210

> <s_m_Source_Path>
/home/csk/Desktop/cluster/DUD-E-result/mapk2

> <s_m_Source_File>
dock_pv.maegz

> <i_m_Source_File_Index>
210

> <chembl_id>
CHEMBL1801379

> <chembl_pref_name>
None

> <i_lp_mmshare_version>
53161

> <i_f3d_flags>
0

> <r_lp_tautomer_probability>
1

> <s_lp_Force_Field>
OPLS_2005

> <r_lp_Energy>
63.065582

> <b_lp_Chiralities_Consistent>
1

> <s_lp_Variant>
CHEMBL2208_lig489-1

> <s_i_glide_gridfile>
glide-grid_3m2w

> <i_i_glide_lignum>
659

> <i_i_glide_rotatable_bonds>
2

> <r_i_docking_score>
-6.9745549626421

> <r_i_glide_ligand_efficiency>
-0.258316850468226

> <r_i_glide_ligand_efficiency_sa>
-0.774950550553307

> <r_i_glide_ligand_efficiency_ln>
-1.62356141077799

> <r_i_glide_gscore>
-6.9745549626421

> <r_i_glide_lipo>
-1.88395104194594

> <r_i_glide_hbond>
-0.52671585874469

> <r_i_glide_metal>
0

> <r_i_glide_rewards>
-1.99702276159533

> <r_i_glide_evdw>
-37.4491996765137

> <r_i_glide_ecoul>
-4.77557563781738

> <r_i_glide_erotb>
0.142724561480689

> <r_i_glide_esite>
-0.120793532338535

> <r_i_glide_emodel>
-58.4992943162789

> <r_i_glide_energy>
-42.2247753143311

> <r_i_glide_einternal>
2.15097141265869

> <i_i_glide_confnum>
1

> <i_i_glide_posenum>
137

> <r_i_glide_eff_state_penalty>
0

> <s_user_duplicate_titles>
CHEMBL2208_lig489

> <s_m_subgroup_title>
dock_pv

> <s_m_subgroupid>
dock_pv

> <b_m_subgroup_collapsed>
1

$$$$
CHEMBL2208_lig1061
                    3D
 Schrodinger Suite 2021-1.
 29 31  0  0  1  0            999 V2000
   41.0777    7.6241   14.4167 O   0  0  0  0  0  0
   37.5844    5.1285   12.9063 O   0  0  0  0  0  0
   41.4779    8.6497   19.5101 O   0  0  0  0  0  0
   39.4774    7.8981   21.1019 O   0  0  0  0  0  0
   37.1531    5.3853   15.9513 N   0  0  0  0  0  0
   39.4891    6.3003   13.4233 N   0  0  0  0  0  0
   39.2341    6.5728   15.6399 C   0  0  0  0  0  0
   39.3334    6.8863   17.0199 C   0  0  0  0  0  0
   38.1719    5.8415   15.1841 C   0  0  0  0  0  0
   38.2910    6.4252   17.8771 C   0  0  0  0  0  0
   40.0744    6.9181   14.4663 C   0  0  0  0  0  0
   38.3284    5.6771   13.7163 C   0  0  0  0  0  0
   40.4004    7.6274   17.5693 C   0  0  0  0  0  0
   40.4382    7.9358   18.9351 C   0  0  0  0  0  0
   37.2311    5.6838   17.2747 C   0  0  0  0  0  0
   39.3993    7.5113   19.7748 C   0  0  0  0  0  0
   38.3421    6.7418   19.2536 C   0  0  0  0  0  0
   42.5946    9.0258   18.7129 C   0  0  0  0  0  0
   38.4920    7.4463   22.0285 C   0  0  0  0  0  0
   39.8686    6.3634   12.4923 H   0  0  0  0  0  0
   41.1817    7.9543   16.9028 H   0  0  0  0  0  0
   36.4180    5.3229   17.8856 H   0  0  0  0  0  0
   37.5391    6.3926   19.8833 H   0  0  0  0  0  0
   43.2906    9.6250   19.3007 H   0  0  0  0  0  0
   43.1319    8.1557   18.3327 H   0  0  0  0  0  0
   42.2713    9.6250   17.8718 H   0  0  0  0  0  0
   38.6869    7.8705   23.0144 H   0  0  0  0  0  0
   38.5152    6.3595   22.1293 H   0  0  0  0  0  0
   37.4881    7.7593   21.7366 H   0  0  0  0  0  0
  1 11  2  0  0  0
  2 12  2  0  0  0
  3 14  1  0  0  0
  3 18  1  0  0  0
  4 16  1  0  0  0
  4 19  1  0  0  0
  5  9  2  0  0  0
  5 15  1  0  0  0
  6 11  1  0  0  0
  6 12  1  0  0  0
  6 20  1  0  0  0
  7  8  2  0  0  0
  7  9  1  0  0  0
  7 11  1  0  0  0
  8 10  1  0  0  0
  8 13  1  0  0  0
  9 12  1  0  0  0
 10 15  2  0  0  0
 10 17  1  0  0  0
 13 14  2  0  0  0
 13 21  1  0  0  0
 14 16  1  0  0  0
 15 22  1  0  0  0
 16 17  2  0  0  0
 17 23  1  0  0  0
 18 24  1  0  0  0
 18 25  1  0  0  0
 18 26  1  0  0  0
 19 27  1  0  0  0
 19 28  1  0  0  0
 19 29  1  0  0  0
M  END
> <s_m_entry_id>
7651

> <s_m_entry_name>
dock_pv.212

> <s_m_Source_Path>
/home/csk/Desktop/cluster/DUD-E-result/mapk2

> <s_m_Source_File>
dock_pv.maegz

> <i_m_Source_File_Index>
212

> <chembl_id>
CHEMBL1982506

> <chembl_pref_name>
None

> <i_lp_mmshare_version>
53161

> <i_f3d_flags>
0

> <r_lp_tautomer_probability>
1

> <s_lp_Force_Field>
OPLS_2005

> <r_lp_Energy>
37.801341

> <b_lp_Chiralities_Consistent>
1

> <s_lp_Variant>
CHEMBL2208_lig1061-1

> <s_i_glide_gridfile>
glide-grid_3m2w

> <i_i_glide_lignum>
1403

> <i_i_glide_rotatable_bonds>
2

> <r_i_docking_score>
-6.96562892297974

> <r_i_glide_ligand_efficiency>
-0.366612048577881

> <r_i_glide_ligand_efficiency_sa>
-0.978268193906397

> <r_i_glide_ligand_efficiency_ln>
-1.7659365399669

> <r_i_glide_gscore>
-6.96562892297974

> <r_i_glide_lipo>
-1.39821737813585

> <r_i_glide_hbond>
-0.47101654377398

> <r_i_glide_metal>
0

> <r_i_glide_rewards>
-2.85956761564434

> <r_i_glide_evdw>
-36.5856857299805

> <r_i_glide_ecoul>
-2.71695399284363

> <r_i_glide_erotb>
0

> <r_i_glide_esite>
0

> <r_i_glide_emodel>
-55.620774404474

> <r_i_glide_energy>
-39.3026397228241

> <r_i_glide_einternal>
0.346014410257339

> <i_i_glide_confnum>
1

> <i_i_glide_posenum>
137

> <r_i_glide_eff_state_penalty>
0

> <s_user_duplicate_titles>
CHEMBL2208_lig1061

> <s_m_subgroup_title>
dock_pv

> <s_m_subgroupid>
dock_pv

> <b_m_subgroup_collapsed>
1

$$$$
CHEMBL2208_lig1368
                    3D
 Schrodinger Suite 2021-1.
 40 42  0  0  1  0            999 V2000
   40.6536    8.4249   20.2731 Cl  0  0  0  0  0  0
   40.2546    7.2017   14.8578 O   0  0  0  0  0  0
   37.4358    5.0793   12.6030 O   0  0  0  0  0  0
   39.4781    6.0249   12.6720 O   0  0  0  0  0  0
   37.6656    6.1985   18.8286 N   0  0  0  0  0  0
   38.2751    6.7130   21.0147 N   0  0  0  0  0  0
   37.0055    5.5225   16.7124 N   0  0  0  0  0  0
   34.6179    4.8244   21.8722 N   0  0  0  0  0  0
   39.0321    6.8483   16.9120 C   0  0  0  0  0  0
   37.9247    6.2062   17.5084 C   0  0  0  0  0  0
   39.8755    7.5908   17.7810 C   0  0  0  0  0  0
   38.5189    6.8536   19.6481 C   0  0  0  0  0  0
   39.6182    7.5800   19.1656 C   0  0  0  0  0  0
   39.2737    6.7041   15.4157 C   0  0  0  0  0  0
   38.2463    5.9003   14.6831 C   0  0  0  0  0  0
   37.1920    5.3814   15.3626 C   0  0  0  0  0  0
   38.3173    5.6250   13.2559 C   0  0  0  0  0  0
   36.9701    6.8927   21.6649 C   0  0  0  0  0  0
   38.9468    5.6250   21.7177 C   0  0  0  0  0  0
   41.0442    8.4255   17.2462 C   0  0  0  0  0  0
   36.7865    5.7326   22.6635 C   0  0  2  0  0  0
   38.2233    5.4184   23.0365 C   0  0  0  0  0  0
   36.0176    4.5106   22.1045 C   0  0  0  0  0  0
   40.0392    6.4811   13.3112 H   0  0  0  0  0  0
   36.1977    5.1110   17.1604 H   0  0  0  0  0  0
   34.1089    3.9623   21.7293 H   0  0  0  0  0  0
   34.2471    5.2447   22.7161 H   0  0  0  0  0  0
   36.4177    4.7903   14.8852 H   0  0  0  0  0  0
   36.9695    7.8016   22.2689 H   0  0  0  0  0  0
   36.1405    6.8529   20.9576 H   0  0  0  0  0  0
   38.9153    4.7003   21.1374 H   0  0  0  0  0  0
   39.9877    5.9006   21.8712 H   0  0  0  0  0  0
   41.5147    9.0888   17.9669 H   0  0  0  0  0  0
   41.8175    7.7837   16.8239 H   0  0  0  0  0  0
   40.6773    9.0807   16.4563 H   0  0  0  0  0  0
   36.2778    6.0899   23.5584 H   0  0  0  0  0  0
   38.3502    4.3972   23.4003 H   0  0  0  0  0  0
   38.6198    6.0818   23.8083 H   0  0  0  0  0  0
   36.4712    4.1516   21.1789 H   0  0  0  0  0  0
   36.0704    3.6862   22.8176 H   0  0  0  0  0  0
  1 13  1  0  0  0
  2 14  2  0  0  0
  3 17  2  0  0  0
  4 17  1  0  0  0
  4 24  1  0  0  0
  5 10  1  0  0  0
  5 12  2  0  0  0
  6 12  1  0  0  0
  6 18  1  0  0  0
  6 19  1  0  0  0
  7 10  1  0  0  0
  7 16  1  0  0  0
  7 25  1  0  0  0
  8 23  1  0  0  0
  8 26  1  0  0  0
  8 27  1  0  0  0
  9 10  2  0  0  0
  9 11  1  0  0  0
  9 14  1  0  0  0
 11 13  2  0  0  0
 11 20  1  0  0  0
 12 13  1  0  0  0
 14 15  1  0  0  0
 15 16  2  0  0  0
 15 17  1  0  0  0
 16 28  1  0  0  0
 18 21  1  0  0  0
 18 29  1  0  0  0
 18 30  1  0  0  0
 19 22  1  0  0  0
 19 31  1  0  0  0
 19 32  1  0  0  0
 20 33  1  0  0  0
 20 34  1  0  0  0
 20 35  1  0  0  0
 21 22  1  0  0  0
 21 23  1  0  0  0
 21 36  1  0  0  0
 22 37  1  0  0  0
 22 38  1  0  0  0
 23 39  1  0  0  0
 23 40  1  0  0  0
M  END
> <s_m_entry_id>
7652

> <s_m_entry_name>
dock_pv.213

> <s_m_Source_Path>
/home/csk/Desktop/cluster/DUD-E-result/mapk2

> <s_m_Source_File>
dock_pv.maegz

> <i_m_Source_File_Index>
213

> <chembl_id>
CHEMBL1999774

> <chembl_pref_name>
None

> <i_lp_mmshare_version>
53161

> <i_f3d_flags>
0

> <r_lp_tautomer_probability>
1

> <s_lp_Force_Field>
OPLS_2005

> <r_lp_Energy>
47.944392

> <b_lp_Chiralities_Consistent>
1

> <s_lp_Variant>
CHEMBL2208_lig1368-1

> <s_i_glide_gridfile>
glide-grid_3m2w

> <i_i_glide_lignum>
1872

> <i_i_glide_rotatable_bonds>
4

> <r_i_docking_score>
-6.96526541511176

> <r_i_glide_ligand_efficiency>
-0.302837626743989

> <r_i_glide_ligand_efficiency_sa>
-0.861229926053718

> <r_i_glide_ligand_efficiency_ln>
-1.68426433490896

> <r_i_glide_gscore>
-6.96526541511176

> <r_i_glide_lipo>
-1.59490327344736

> <r_i_glide_hbond>
-0.493545193619753

> <r_i_glide_metal>
0

> <r_i_glide_rewards>
-2.20695144899619

> <r_i_glide_evdw>
-37.6826515197754

> <r_i_glide_ecoul>
-7.2681245803833

> <r_i_glide_erotb>
0.333121466341908

> <r_i_glide_esite>
-0.0286357023440978

> <r_i_glide_emodel>
-61.169357266123

> <r_i_glide_energy>
-44.9507761001587

> <r_i_glide_einternal>
2.3074905872345

> <i_i_glide_confnum>
14

> <i_i_glide_posenum>
363

> <r_i_glide_eff_state_penalty>
0

> <s_user_duplicate_titles>
CHEMBL2208_lig1368

> <s_m_subgroup_title>
dock_pv

> <s_m_subgroupid>
dock_pv

> <b_m_subgroup_collapsed>
1

$$$$
CHEMBL2208_lig297
                    3D
 Schrodinger Suite 2021-1.
 29 31  0  0  1  0            999 V2000
   39.4230    7.1768   18.8297 C   0  0  0  0  0  0
   38.4940    6.4097   18.1209 C   0  0  0  0  0  0
   40.5233    8.0240   17.7410 S   0  0  0  0  0  0
   38.7100    6.4243   16.7039 C   0  0  0  0  0  0
   39.5984    7.4681   20.2524 C   0  0  0  0  0  0
   39.8228    7.2345   16.3448 C   0  0  0  0  0  0
   37.4974    5.6365   18.6693 N   0  0  0  0  0  0
   39.0757    6.6209   21.1573 N   0  0  0  0  0  0
   38.0166    5.7574   15.6746 C   0  0  0  0  0  0
   40.2776    8.4250   20.6168 O   0  0  0  0  0  0
   40.2551    7.3453   15.0188 C   0  0  0  0  0  0
   38.4561    5.8539   14.3473 C   0  0  0  0  0  0
   39.5716    6.6244   14.0475 C   0  0  0  0  0  0
   37.8483    5.2248   13.2803 O   0  0  0  0  0  0
   37.8068    4.8376   19.8414 C   0  0  0  0  0  0
   37.9528    5.6866   21.1069 C   0  0  0  0  0  0
   36.6776    4.4477   13.5175 C   0  0  0  0  0  0
   36.9896    5.0976   17.9812 H   0  0  0  0  0  0
   39.3804    6.8553   22.0930 H   0  0  0  0  0  0
   37.1609    5.1530   15.9249 H   0  0  0  0  0  0
   41.0987    7.9639   14.7513 H   0  0  0  0  0  0
   39.9014    6.6821   13.0220 H   0  0  0  0  0  0
   38.7485    4.3177   19.6537 H   0  0  0  0  0  0
   37.0595    4.0571   19.9886 H   0  0  0  0  0  0
   37.0348    6.2469   21.2912 H   0  0  0  0  0  0
   38.0615    5.0005   21.9481 H   0  0  0  0  0  0
   36.3250    4.0232   12.5777 H   0  0  0  0  0  0
   36.8671    3.6271   14.2127 H   0  0  0  0  0  0
   35.8725    5.0637   13.9184 H   0  0  0  0  0  0
  1  2  2  0  0  0
  1  3  1  0  0  0
  1  5  1  0  0  0
  2  4  1  0  0  0
  2  7  1  0  0  0
  3  6  1  0  0  0
  4  9  2  0  0  0
  4  6  1  0  0  0
  5  8  1  0  0  0
  5 10  2  0  0  0
  6 11  2  0  0  0
  7 15  1  0  0  0
  7 18  1  0  0  0
  8 16  1  0  0  0
  8 19  1  0  0  0
  9 12  1  0  0  0
  9 20  1  0  0  0
 11 13  1  0  0  0
 11 21  1  0  0  0
 12 14  1  0  0  0
 12 13  2  0  0  0
 13 22  1  0  0  0
 14 17  1  0  0  0
 15 16  1  0  0  0
 15 23  1  0  0  0
 15 24  1  0  0  0
 16 25  1  0  0  0
 16 26  1  0  0  0
 17 27  1  0  0  0
 17 28  1  0  0  0
 17 29  1  0  0  0
M  END
> <s_m_entry_id>
7653

> <s_m_entry_name>
dock_pv.214

> <s_m_Source_Path>
/home/csk/Desktop/cluster/DUD-E-result/mapk2

> <s_m_Source_File>
dock_pv.maegz

> <i_m_Source_File_Index>
214

> <chembl_id>
CHEMBL319171

> <chembl_pref_name>
None

> <i_lp_mmshare_version>
53161

> <i_f3d_flags>
0

> <r_lp_tautomer_probability>
1

> <s_lp_Force_Field>
OPLS_2005

> <r_lp_Energy>
23.700211

> <b_lp_Chiralities_Consistent>
1

> <s_lp_Variant>
CHEMBL2208_lig297-1

> <s_i_glide_gridfile>
glide-grid_3m2w

> <i_i_glide_lignum>
436

> <i_i_glide_rotatable_bonds>
1

> <r_i_docking_score>
-6.96278853567085

> <r_i_glide_ligand_efficiency>
-0.409575796215933

> <r_i_glide_ligand_efficiency_sa>
-1.05313470379463

> <r_i_glide_ligand_efficiency_ln>
-1.81643647527925

> <r_i_glide_gscore>
-6.96278853567085

> <r_i_glide_lipo>
-2.16902592179063

> <r_i_glide_hbond>
-0.188771044811596

> <r_i_glide_metal>
0

> <r_i_glide_rewards>
-1.84945558337495

> <r_i_glide_evdw>
-31.8734588623047

> <r_i_glide_ecoul>
-7.16070985794067

> <r_i_glide_erotb>
0

> <r_i_glide_esite>
-0.087756563887341

> <r_i_glide_emodel>
-55.4287833513539

> <r_i_glide_energy>
-39.0341687202454

> <r_i_glide_einternal>
0.0428335070610046

> <i_i_glide_confnum>
1

> <i_i_glide_posenum>
112

> <r_i_glide_eff_state_penalty>
0

> <s_user_duplicate_titles>
CHEMBL2208_lig297,164953

> <s_m_subgroup_title>
dock_pv

> <s_m_subgroupid>
dock_pv

> <b_m_subgroup_collapsed>
1

$$$$
CHEMBL2208_lig876
                    3D
 Schrodinger Suite 2021-1.
 32 34  0  0  1  0            999 V2000
   37.4781    5.1167   12.4409 Cl  0  0  0  0  0  0
   40.1525    7.8523   17.4193 S   0  0  0  0  0  0
   40.6777    8.4250   20.2719 O   0  0  0  0  0  0
   37.6611    6.0251   17.4689 N   0  0  0  0  0  0
   39.2727    7.1770   18.8297 C   0  0  0  0  0  0
   38.2017    6.3513   18.6964 C   0  0  0  0  0  0
   38.2591    6.2097   16.2125 C   0  0  0  0  0  0
   39.4475    6.9464   16.0736 C   0  0  0  0  0  0
   37.5713    6.6753   21.1752 C   0  0  0  0  0  0
   39.7602    7.6133   20.1449 C   0  0  0  0  0  0
   37.4217    5.7959   19.8951 C   0  0  0  0  0  0
   39.0781    6.9896   21.3761 C   0  0  0  0  0  0
   37.6643    5.6251   15.0917 C   0  0  0  0  0  0
   40.0602    7.0289   14.8212 C   0  0  0  0  0  0
   38.2620    5.7518   13.8389 C   0  0  0  0  0  0
   39.4777    6.4229   13.7102 C   0  0  0  0  0  0
   36.7741    7.9975   21.0505 C   0  0  0  0  0  0
   37.1083    5.8336   22.3829 C   0  0  0  0  0  0
   36.8068    5.4870   17.4792 H   0  0  0  0  0  0
   37.7749    4.7731   20.0425 H   0  0  0  0  0  0
   36.3515    5.7577   19.6775 H   0  0  0  0  0  0
   39.6131    6.0542   21.5532 H   0  0  0  0  0  0
   39.2667    7.6122   22.2514 H   0  0  0  0  0  0
   36.7365    5.0789   15.1865 H   0  0  0  0  0  0
   40.9750    7.5906   14.7003 H   0  0  0  0  0  0
   39.9476    6.5154   12.7409 H   0  0  0  0  0  0
   36.8084    8.5637   21.9843 H   0  0  0  0  0  0
   37.1583    8.6526   20.2694 H   0  0  0  0  0  0
   35.7230    7.8094   20.8319 H   0  0  0  0  0  0
   37.2174    6.3858   23.3183 H   0  0  0  0  0  0
   36.0558    5.5568   22.2948 H   0  0  0  0  0  0
   37.6837    4.9112   22.4862 H   0  0  0  0  0  0
  1 15  1  0  0  0
  2  8  1  0  0  0
  2  5  1  0  0  0
  3 10  2  0  0  0
  4  6  1  0  0  0
  4  7  1  0  0  0
  4 19  1  0  0  0
  5 10  1  0  0  0
  5  6  2  0  0  0
  6 11  1  0  0  0
  7  8  1  0  0  0
  7 13  2  0  0  0
  8 14  2  0  0  0
  9 11  1  0  0  0
  9 12  1  0  0  0
  9 17  1  0  0  0
  9 18  1  0  0  0
 10 12  1  0  0  0
 11 20  1  0  0  0
 11 21  1  0  0  0
 12 22  1  0  0  0
 12 23  1  0  0  0
 13 15  1  0  0  0
 13 24  1  0  0  0
 14 16  1  0  0  0
 14 25  1  0  0  0
 15 16  2  0  0  0
 16 26  1  0  0  0
 17 27  1  0  0  0
 17 28  1  0  0  0
 17 29  1  0  0  0
 18 30  1  0  0  0
 18 31  1  0  0  0
 18 32  1  0  0  0
M  END
> <s_m_entry_id>
7654

> <s_m_entry_name>
dock_pv.215

> <s_m_Source_Path>
/home/csk/Desktop/cluster/DUD-E-result/mapk2

> <s_m_Source_File>
dock_pv.maegz

> <i_m_Source_File_Index>
215

> <chembl_id>
CHEMBL1562756

> <chembl_pref_name>
None

> <i_lp_mmshare_version>
53161

> <i_f3d_flags>
0

> <r_lp_tautomer_probability>
0.999999999998843

> <s_lp_Force_Field>
OPLS_2005

> <r_lp_Energy>
12.691402

> <b_lp_Chiralities_Consistent>
1

> <s_lp_Variant>
CHEMBL2208_lig876-1

> <s_i_glide_gridfile>
glide-grid_3m2w

> <i_i_glide_lignum>
1121

> <i_i_glide_rotatable_bonds>
0

> <r_i_docking_score>
-6.96095495473294

> <r_i_glide_ligand_efficiency>
-0.386719719707386

> <r_i_glide_ligand_efficiency_sa>
-1.01349237641755

> <r_i_glide_ligand_efficiency_ln>
-1.78927757754886

> <r_i_glide_gscore>
-6.96095495473294

> <r_i_glide_lipo>
-2.4343774377442

> <r_i_glide_hbond>
-0.14713864382744

> <r_i_glide_metal>
0

> <r_i_glide_rewards>
-1.60026210850239

> <r_i_glide_evdw>
-36.3849143981934

> <r_i_glide_ecoul>
-6.1645712852478

> <r_i_glide_erotb>
0

> <r_i_glide_esite>
-0.0352453519620755

> <r_i_glide_emodel>
-59.6126003361719

> <r_i_glide_energy>
-42.5494856834412

> <r_i_glide_einternal>
0

> <i_i_glide_confnum>
1

> <i_i_glide_posenum>
163

> <r_i_glide_eff_state_penalty>
0

> <s_user_duplicate_titles>
CHEMBL2208_lig876

> <s_m_subgroup_title>
dock_pv

> <s_m_subgroupid>
dock_pv

> <b_m_subgroup_collapsed>
1

$$$$
CHEMBL2208_lig211
                    3D
 Schrodinger Suite 2021-1.
 37 40  0  0  1  0            999 V2000
   39.1258    6.2111   14.0557 C   0  0  0  0  0  0
   38.0359    5.6254   14.7138 C   0  0  0  0  0  0
   37.8678    5.7982   16.0986 C   0  0  0  0  0  0
   40.0578    6.9932   14.7287 C   0  0  0  0  0  0
   37.0633    4.7849   13.9229 C   0  0  0  0  0  0
   37.0780    4.8250   12.6905 O   0  0  0  0  0  0
   36.2780    3.9736   14.6728 N   0  0  0  0  0  0
   35.3146    3.0629   14.2720 C   0  0  0  0  0  0
   39.9153    7.1641   16.1094 C   0  0  0  0  0  0
   38.8237    6.5473   16.7808 C   0  0  0  0  0  0
   40.6617    7.8499   17.1044 C   0  0  0  0  0  0
   40.0349    7.6615   18.3187 C   0  0  0  0  0  0
   38.9543    6.8250   18.1298 N   0  0  0  0  0  0
   38.1796    6.2670   19.2331 C   0  0  0  0  0  0
   38.1928    7.2733   20.4178 C   0  0  2  0  0  0
   39.5278    7.8773   20.5904 N   0  0  0  0  0  0
   40.4388    8.1192   19.6174 C   0  0  0  0  0  0
   41.4780    8.7140   19.8720 O   0  0  0  0  0  0
   34.8186    2.8761   13.0714 N   0  0  0  0  0  0
   33.8780    1.9496   13.0720 C   0  0  0  0  0  0
   33.6224    1.3319   14.2922 C   0  0  0  0  0  0
   34.6618    2.0250   15.5000 S   0  0  0  0  0  0
   37.6716    6.6218   21.7066 C   0  0  0  0  0  0
   39.2645    6.0616   12.9936 H   0  0  0  0  0  0
   37.0400    5.3663   16.6413 H   0  0  0  0  0  0
   40.8809    7.4457   14.1950 H   0  0  0  0  0  0
   36.4479    3.9853   15.6649 H   0  0  0  0  0  0
   41.5635    8.4250   16.9772 H   0  0  0  0  0  0
   38.6482    5.3269   19.5306 H   0  0  0  0  0  0
   37.1604    6.0465   18.9146 H   0  0  0  0  0  0
   37.5167    8.0980   20.1816 H   0  0  0  0  0  0
   39.7922    8.1456   21.5280 H   0  0  0  0  0  0
   33.3793    1.7188   12.1419 H   0  0  0  0  0  0
   32.9122    0.5544   14.5326 H   0  0  0  0  0  0
   36.7023    6.1498   21.5428 H   0  0  0  0  0  0
   38.3466    5.8402   22.0604 H   0  0  0  0  0  0
   37.5386    7.3555   22.5026 H   0  0  0  0  0  0
  1  2  2  0  0  0
  1  4  1  0  0  0
  1 24  1  0  0  0
  2  5  1  0  0  0
  2  3  1  0  0  0
  3 10  2  0  0  0
  3 25  1  0  0  0
  4  9  2  0  0  0
  4 26  1  0  0  0
  5  6  2  0  0  0
  5  7  1  0  0  0
  7  8  1  0  0  0
  7 27  1  0  0  0
  8 19  2  0  0  0
  8 22  1  0  0  0
  9 11  1  0  0  0
  9 10  1  0  0  0
 10 13  1  0  0  0
 11 12  2  0  0  0
 11 28  1  0  0  0
 12 13  1  0  0  0
 12 17  1  0  0  0
 13 14  1  0  0  0
 14 15  1  0  0  0
 14 29  1  0  0  0
 14 30  1  0  0  0
 15 16  1  0  0  0
 15 23  1  0  0  0
 15 31  1  0  0  0
 16 17  1  0  0  0
 16 32  1  0  0  0
 17 18  2  0  0  0
 19 20  1  0  0  0
 20 21  2  0  0  0
 20 33  1  0  0  0
 21 22  1  0  0  0
 21 34  1  0  0  0
 23 35  1  0  0  0
 23 36  1  0  0  0
 23 37  1  0  0  0
M  END
> <s_m_entry_id>
7655

> <s_m_entry_name>
dock_pv.216

> <s_m_Source_Path>
/home/csk/Desktop/cluster/DUD-E-result/mapk2

> <s_m_Source_File>
dock_pv.maegz

> <i_m_Source_File_Index>
216

> <chembl_id>
CHEMBL272364

> <chembl_pref_name>
None

> <i_lp_mmshare_version>
53161

> <i_f3d_flags>
0

> <r_lp_tautomer_probability>
0.999000488399163

> <s_lp_Force_Field>
OPLS_2005

> <r_lp_Energy>
21.573973

> <b_lp_Chiralities_Consistent>
1

> <s_lp_Variant>
CHEMBL2208_lig211-1

> <s_i_glide_gridfile>
glide-grid_3m2w

> <i_i_glide_lignum>
333

> <i_i_glide_rotatable_bonds>
3

> <r_i_docking_score>
-6.9602697261759

> <r_i_glide_ligand_efficiency>
-0.302620422877213

> <r_i_glide_ligand_efficiency_sa>
-0.860612227149742

> <r_i_glide_ligand_efficiency_ln>
-1.68305633202587

> <r_i_glide_gscore>
-6.9602697261759

> <r_i_glide_lipo>
-2.55574568956116

> <r_i_glide_hbond>
-0.236270556394291

> <r_i_glide_metal>
0

> <r_i_glide_rewards>
-1.55887778582634

> <r_i_glide_evdw>
-39.2165718078613

> <r_i_glide_ecoul>
-7.12165546417236

> <r_i_glide_erotb>
0.528179042631369

> <r_i_glide_esite>
-0.108477827006556

> <r_i_glide_emodel>
-65.0426292741755

> <r_i_glide_energy>
-46.3382272720337

> <r_i_glide_einternal>
1.22811007499695

> <i_i_glide_confnum>
6

> <i_i_glide_posenum>
32

> <r_i_glide_eff_state_penalty>
0

> <s_user_duplicate_titles>
CHEMBL2208_lig211

> <s_m_subgroup_title>
dock_pv

> <s_m_subgroupid>
dock_pv

> <b_m_subgroup_collapsed>
1

$$$$
CHEMBL2208_lig1455
                    3D
 Schrodinger Suite 2021-1.
 44 46  0  0  1  0            999 V2000
   39.1543    6.9661   18.1482 C   0  0  0  0  0  0
   39.7623    7.9787   18.8432 N   0  0  0  0  0  0
   39.7494    8.0320   20.1902 N   0  0  0  0  0  0
   38.4677    5.9472   18.8238 C   0  0  0  0  0  0
   38.4484    5.9977   20.2209 C   0  0  0  0  0  0
   39.1132    7.0605   20.8478 C   0  0  0  0  0  0
   38.9967    6.8368   22.2075 N   0  0  0  0  0  0
   38.2778    5.7226   22.4582 N   0  0  0  0  0  0
   37.9371    5.2145   21.2985 C   0  0  0  0  0  0
   37.2587    4.0250   21.1567 N   0  0  0  0  0  0
   36.1356    3.8829   20.4249 C   0  0  0  0  0  0
   35.6503    2.4382   20.2230 C   0  0  0  0  0  0
   35.5012    4.8218   19.9429 O   0  0  0  0  0  0
   34.8724    2.1625   18.9100 C   0  0  0  0  0  0
   35.6682    2.4339   17.6097 C   0  0  0  0  0  0
   39.3306    6.9499   16.6540 C   0  0  0  0  0  0
   38.4317    6.2936   15.7822 C   0  0  0  0  0  0
   38.6864    6.2166   14.4100 C   0  0  0  0  0  0
   39.8150    6.8226   13.8721 C   0  0  0  0  0  0
   40.6749    7.5301   14.7007 C   0  0  0  0  0  0
   40.4460    7.5777   16.0734 C   0  0  0  0  0  0
   34.9942    1.9316   16.4061 N   0  0  0  0  0  0
   35.5809    2.5345   15.2110 C   0  0  0  0  0  0
   35.0679    0.4763   16.2982 C   0  0  0  0  0  0
   37.2899    5.7296   16.2423 F   0  0  0  0  0  0
   37.8320    5.5607   13.5907 F   0  0  0  0  0  0
   37.9968    5.1231   18.3150 H   0  0  0  0  0  0
   39.4307    7.3426   22.9743 H   0  0  0  0  0  0
   37.7189    3.1868   21.4983 H   0  0  0  0  0  0
   34.9982    2.2066   21.0662 H   0  0  0  0  0  0
   36.4895    1.7441   20.2975 H   0  0  0  0  0  0
   33.9956    2.8134   18.9075 H   0  0  0  0  0  0
   34.4732    1.1488   18.9361 H   0  0  0  0  0  0
   36.6779    2.0327   17.6847 H   0  0  0  0  0  0
   35.7913    3.5160   17.5228 H   0  0  0  0  0  0
   40.0074    6.7682   12.8108 H   0  0  0  0  0  0
   41.5385    8.0250   14.2821 H   0  0  0  0  0  0
   41.1640    8.1026   16.6867 H   0  0  0  0  0  0
   35.5216    3.6227   15.2565 H   0  0  0  0  0  0
   35.0360    2.2253   14.3184 H   0  0  0  0  0  0
   36.6275    2.2570   15.0759 H   0  0  0  0  0  0
   34.5700   -0.0208   17.1294 H   0  0  0  0  0  0
   34.5731    0.1372   15.3882 H   0  0  0  0  0  0
   36.1009    0.1282   16.2679 H   0  0  0  0  0  0
  1  2  2  0  0  0
  1  4  1  0  0  0
  1 16  1  0  0  0
  2  3  1  0  0  0
  3  6  2  0  0  0
  4  5  2  0  0  0
  4 27  1  0  0  0
  5  9  1  0  0  0
  5  6  1  0  0  0
  6  7  1  0  0  0
  7  8  1  0  0  0
  7 28  1  0  0  0
  8  9  2  0  0  0
  9 10  1  0  0  0
 10 11  1  0  0  0
 10 29  1  0  0  0
 11 13  2  0  0  0
 11 12  1  0  0  0
 12 14  1  0  0  0
 12 30  1  0  0  0
 12 31  1  0  0  0
 14 15  1  0  0  0
 14 32  1  0  0  0
 14 33  1  0  0  0
 15 22  1  0  0  0
 15 34  1  0  0  0
 15 35  1  0  0  0
 16 17  2  0  0  0
 16 21  1  0  0  0
 17 18  1  0  0  0
 17 25  1  0  0  0
 18 19  2  0  0  0
 18 26  1  0  0  0
 19 20  1  0  0  0
 19 36  1  0  0  0
 20 21  2  0  0  0
 20 37  1  0  0  0
 21 38  1  0  0  0
 22 23  1  0  0  0
 22 24  1  0  0  0
 23 39  1  0  0  0
 23 40  1  0  0  0
 23 41  1  0  0  0
 24 42  1  0  0  0
 24 43  1  0  0  0
 24 44  1  0  0  0
M  END
> <s_m_entry_id>
7656

> <s_m_entry_name>
dock_pv.217

> <s_m_Source_Path>
/home/csk/Desktop/cluster/DUD-E-result/mapk2

> <s_m_Source_File>
dock_pv.maegz

> <i_m_Source_File_Index>
217

> <chembl_id>
CHEMBL41783

> <chembl_pref_name>
None

> <i_lp_mmshare_version>
53161

> <i_f3d_flags>
0

> <r_lp_tautomer_probability>
1

> <s_lp_Force_Field>
OPLS_2005

> <r_lp_Energy>
32.976042

> <b_lp_Chiralities_Consistent>
1

> <s_lp_Variant>
CHEMBL2208_lig1455-1

> <s_i_glide_gridfile>
glide-grid_3m2w

> <i_i_glide_lignum>
2021

> <i_i_glide_rotatable_bonds>
7

> <r_i_docking_score>
-6.9593350445069

> <r_i_glide_ligand_efficiency>
-0.267666732481035

> <r_i_glide_ligand_efficiency_sa>
-0.792961641757331

> <r_i_glide_ligand_efficiency_ln>
-1.63437699976162

> <r_i_glide_gscore>
-6.9593350445069

> <r_i_glide_lipo>
-2.28555533733645

> <r_i_glide_hbond>
-0.453821633262926

> <r_i_glide_metal>
0

> <r_i_glide_rewards>
-1.7833713325769

> <r_i_glide_evdw>
-39.7608909606934

> <r_i_glide_ecoul>
-7.23792219161987

> <r_i_glide_erotb>
0.88609552035843

> <r_i_glide_esite>
-0.248949384911417

> <r_i_glide_emodel>
-64.6760714840991

> <r_i_glide_energy>
-46.9988131523132

> <r_i_glide_einternal>
6.17666482925415

> <i_i_glide_confnum>
151

> <i_i_glide_posenum>
165

> <r_i_glide_eff_state_penalty>
0

> <s_user_duplicate_titles>
CHEMBL2208_lig1455

> <s_m_subgroup_title>
dock_pv

> <s_m_subgroupid>
dock_pv

> <b_m_subgroup_collapsed>
1

$$$$
CHEMBL2208_lig174
                    3D
 Schrodinger Suite 2021-1.
 41 44  0  0  1  0            999 V2000
   35.1503    3.2301   14.0216 C   0  0  0  0  0  0
   34.7727    3.1290   12.6746 C   0  0  0  0  0  0
   33.6284    2.4224   12.3146 C   0  0  0  0  0  0
   32.8964    1.7402   13.2839 C   0  0  0  0  0  0
   33.2931    1.7886   14.6201 C   0  0  0  0  0  0
   34.4120    2.5370   14.9861 C   0  0  0  0  0  0
   38.2512    6.0866   19.4502 C   0  0  1  0  0  0
   39.1104    6.2926   14.0612 C   0  0  0  0  0  0
   38.0477    5.6133   14.6756 C   0  0  0  0  0  0
   37.9115    5.6670   16.0710 C   0  0  0  0  0  0
   40.0382    7.0491   14.7748 C   0  0  0  0  0  0
   39.8834    7.0839   16.1593 C   0  0  0  0  0  0
   38.8379    6.3870   16.8288 C   0  0  0  0  0  0
   40.6062    7.7322   17.1336 N   0  0  0  0  0  0
   40.0931    7.4542   18.3779 C   0  0  0  0  0  0
   39.0102    6.6000   18.2322 C   0  0  0  0  0  0
   39.2063    6.2131   20.6727 C   0  0  0  0  0  0
   39.8774    7.5329   20.6717 N   0  0  0  0  0  0
   40.5889    7.9936   19.6141 C   0  0  0  0  0  0
   41.4780    8.8249   19.7595 O   0  0  0  0  0  0
   36.9254    6.8249   19.6735 C   0  0  0  0  0  0
   37.0795    4.8219   13.8258 C   0  0  0  0  0  0
   36.1975    4.0409   14.4972 N   0  0  0  0  0  0
   37.1602    4.8844   12.5987 O   0  0  0  0  0  0
   33.2303    2.3907   11.0237 F   0  0  0  0  0  0
   35.3128    3.6255   11.8859 H   0  0  0  0  0  0
   32.0171    1.1825   12.9981 H   0  0  0  0  0  0
   32.7196    1.2700   15.3751 H   0  0  0  0  0  0
   34.6793    2.5981   16.0315 H   0  0  0  0  0  0
   38.0247    5.0270   19.3168 H   0  0  0  0  0  0
   39.2304    6.2523   12.9875 H   0  0  0  0  0  0
   37.1136    5.1587   16.5913 H   0  0  0  0  0  0
   40.8361    7.5755   14.2692 H   0  0  0  0  0  0
   41.4010    8.3431   17.0052 H   0  0  0  0  0  0
   39.9630    5.4269   20.6505 H   0  0  0  0  0  0
   38.6661    6.0773   21.6110 H   0  0  0  0  0  0
   40.0532    7.9571   21.5706 H   0  0  0  0  0  0
   36.2864    6.7452   18.7947 H   0  0  0  0  0  0
   36.3786    6.4123   20.5224 H   0  0  0  0  0  0
   37.0854    7.8858   19.8728 H   0  0  0  0  0  0
   36.2804    4.0498   15.5002 H   0  0  0  0  0  0
  1  6  1  0  0  0
  1  2  2  0  0  0
  1 23  1  0  0  0
  2  3  1  0  0  0
  2 26  1  0  0  0
  3  4  2  0  0  0
  3 25  1  0  0  0
  4  5  1  0  0  0
  4 27  1  0  0  0
  5  6  2  0  0  0
  5 28  1  0  0  0
  6 29  1  0  0  0
  7 16  1  0  0  0
  7 17  1  0  0  0
  7 21  1  0  0  0
  7 30  1  0  0  0
  8  9  2  0  0  0
  8 11  1  0  0  0
  8 31  1  0  0  0
  9 10  1  0  0  0
  9 22  1  0  0  0
 10 13  2  0  0  0
 10 32  1  0  0  0
 11 12  2  0  0  0
 11 33  1  0  0  0
 12 14  1  0  0  0
 12 13  1  0  0  0
 13 16  1  0  0  0
 14 15  1  0  0  0
 14 34  1  0  0  0
 15 16  2  0  0  0
 15 19  1  0  0  0
 17 18  1  0  0  0
 17 35  1  0  0  0
 17 36  1  0  0  0
 18 19  1  0  0  0
 18 37  1  0  0  0
 19 20  2  0  0  0
 21 38  1  0  0  0
 21 39  1  0  0  0
 21 40  1  0  0  0
 22 23  1  0  0  0
 22 24  2  0  0  0
 23 41  1  0  0  0
M  END
> <s_m_entry_id>
7657

> <s_m_entry_name>
dock_pv.218

> <s_m_Source_Path>
/home/csk/Desktop/cluster/DUD-E-result/mapk2

> <s_m_Source_File>
dock_pv.maegz

> <i_m_Source_File_Index>
218

> <chembl_id>
CHEMBL246697

> <chembl_pref_name>
None

> <i_lp_mmshare_version>
53161

> <i_f3d_flags>
0

> <r_lp_tautomer_probability>
1

> <s_lp_Force_Field>
OPLS_2005

> <r_lp_Energy>
32.283422

> <b_lp_Chiralities_Consistent>
1

> <s_lp_Variant>
CHEMBL2208_lig174-2

> <s_i_glide_gridfile>
glide-grid_3m2w

> <i_i_glide_lignum>
269

> <i_i_glide_rotatable_bonds>
3

> <r_i_docking_score>
-6.95352779038566

> <r_i_glide_ligand_efficiency>
-0.278141111615427

> <r_i_glide_ligand_efficiency_sa>
-0.813289543217126

> <r_i_glide_ligand_efficiency_ln>
-1.64819446673401

> <r_i_glide_gscore>
-6.95352779038566

> <r_i_glide_lipo>
-2.52003829756579

> <r_i_glide_hbond>
-0.317270843847274

> <r_i_glide_metal>
0

> <r_i_glide_rewards>
-1.62161876764236

> <r_i_glide_evdw>
-32.850414276123

> <r_i_glide_ecoul>
-8.30475807189941

> <r_i_glide_erotb>
0.498176077279357

> <r_i_glide_esite>
-0.104541534018524

> <r_i_glide_emodel>
-59.6177703941632

> <r_i_glide_energy>
-41.1551723480225

> <r_i_glide_einternal>
0.0891770869493484

> <i_i_glide_confnum>
1

> <i_i_glide_posenum>
115

> <r_i_glide_eff_state_penalty>
0

> <s_user_duplicate_titles>
CHEMBL2208_lig174

> <s_m_subgroup_title>
dock_pv

> <s_m_subgroupid>
dock_pv

> <b_m_subgroup_collapsed>
1

$$$$
CHEMBL2208_lig259
                    3D
 Schrodinger Suite 2021-1.
 44 46  0  0  1  0            999 V2000
   40.9021    7.6066   17.3755 C   0  0  0  0  0  0
   39.4809    7.1995   17.7425 C   0  0  0  0  0  0
   39.6023    7.6434   19.0283 C   0  0  0  0  0  0
   40.9967    8.2001   18.8190 C   0  0  0  0  0  0
   41.8328    8.8251   19.4720 O   0  0  0  0  0  0
   41.6739    7.4907   16.4270 O   0  0  0  0  0  0
   38.8467    7.7036   20.1757 N   0  0  0  0  0  0
   38.4850    6.5483   17.0403 N   0  0  0  0  0  0
   38.3819    6.1393   15.7020 C   0  0  0  0  0  0
   37.3058    5.3080   15.3739 C   0  0  0  0  0  0
   37.1528    4.8738   14.0586 C   0  0  0  0  0  0
   38.0114    5.2252   13.0712 N   0  0  0  0  0  0
   39.0554    6.0249   13.3949 C   0  0  0  0  0  0
   39.2537    6.5262   14.6774 C   0  0  0  0  0  0
   37.4342    7.4051   20.3697 C   0  0  1  0  0  0
   37.1050    5.9077   20.3185 C   0  0  0  0  0  0
   37.3344    5.0850   21.4262 C   0  0  0  0  0  0
   36.9168    3.7561   21.4092 C   0  0  0  0  0  0
   36.3101    3.2128   20.2787 C   0  0  0  0  0  0
   36.0994    4.0138   19.1476 C   0  0  0  0  0  0
   36.4882    5.3570   19.1886 C   0  0  0  0  0  0
   36.9294    8.0954   21.6414 C   0  0  0  0  0  0
   35.4776    3.5708   17.9628 N   0  0  0  0  0  0
   35.2209    2.3153   17.5412 C   0  0  0  0  0  0
   34.5559    2.2068   16.1754 C   0  0  0  0  0  0
   35.4784    1.2825   18.1525 O   0  0  0  0  0  0
   39.3067    7.9328   21.0471 H   0  0  0  0  0  0
   37.7138    6.2042   17.5918 H   0  0  0  0  0  0
   36.5935    4.9968   16.1190 H   0  0  0  0  0  0
   36.3325    4.2260   13.7757 H   0  0  0  0  0  0
   39.7276    6.2974   12.5911 H   0  0  0  0  0  0
   40.0616    7.2162   14.8230 H   0  0  0  0  0  0
   36.8909    7.8671   19.5467 H   0  0  0  0  0  0
   37.8105    5.4734   22.3130 H   0  0  0  0  0  0
   37.0781    3.1346   22.2758 H   0  0  0  0  0  0
   36.0075    2.1748   20.3128 H   0  0  0  0  0  0
   36.2759    5.9963   18.3471 H   0  0  0  0  0  0
   35.8782    7.8683   21.8065 H   0  0  0  0  0  0
   37.4796    7.7771   22.5295 H   0  0  0  0  0  0
   37.0228    9.1792   21.5690 H   0  0  0  0  0  0
   35.1456    4.3049   17.3510 H   0  0  0  0  0  0
   33.6598    2.8249   16.1336 H   0  0  0  0  0  0
   34.2627    1.1758   15.9728 H   0  0  0  0  0  0
   35.2409    2.5286   15.3922 H   0  0  0  0  0  0
  1  4  1  0  0  0
  1  2  1  0  0  0
  1  6  2  0  0  0
  2  3  2  0  0  0
  2  8  1  0  0  0
  3  7  1  0  0  0
  3  4  1  0  0  0
  4  5  2  0  0  0
  7 15  1  0  0  0
  7 27  1  0  0  0
  8  9  1  0  0  0
  8 28  1  0  0  0
  9 14  1  0  0  0
  9 10  2  0  0  0
 10 11  1  0  0  0
 10 29  1  0  0  0
 11 12  2  0  0  0
 11 30  1  0  0  0
 12 13  1  0  0  0
 13 14  2  0  0  0
 13 31  1  0  0  0
 14 32  1  0  0  0
 15 16  1  0  0  0
 15 22  1  0  0  0
 15 33  1  0  0  0
 16 17  2  0  0  0
 16 21  1  0  0  0
 17 18  1  0  0  0
 17 34  1  0  0  0
 18 19  2  0  0  0
 18 35  1  0  0  0
 19 20  1  0  0  0
 19 36  1  0  0  0
 20 21  2  0  0  0
 20 23  1  0  0  0
 21 37  1  0  0  0
 22 38  1  0  0  0
 22 39  1  0  0  0
 22 40  1  0  0  0
 23 24  1  0  0  0
 23 41  1  0  0  0
 24 25  1  0  0  0
 24 26  2  0  0  0
 25 42  1  0  0  0
 25 43  1  0  0  0
 25 44  1  0  0  0
M  END
> <s_m_entry_id>
7658

> <s_m_entry_name>
dock_pv.219

> <s_m_Source_Path>
/home/csk/Desktop/cluster/DUD-E-result/mapk2

> <s_m_Source_File>
dock_pv.maegz

> <i_m_Source_File_Index>
219

> <chembl_id>
CHEMBL452699

> <chembl_pref_name>
None

> <i_lp_mmshare_version>
53161

> <i_f3d_flags>
0

> <r_lp_tautomer_probability>
1

> <s_lp_Force_Field>
OPLS_2005

> <r_lp_Energy>
41.216895

> <b_lp_Chiralities_Consistent>
1

> <s_lp_Variant>
CHEMBL2208_lig259-2

> <s_i_glide_gridfile>
glide-grid_3m2w

> <i_i_glide_lignum>
393

> <i_i_glide_rotatable_bonds>
7

> <r_i_docking_score>
-6.95174947117301

> <r_i_glide_ligand_efficiency>
-0.2673749796605

> <r_i_glide_ligand_efficiency_sa>
-0.792097325174489

> <r_i_glide_ligand_efficiency_ln>
-1.63259555275445

> <r_i_glide_gscore>
-6.95174947117301

> <r_i_glide_lipo>
-2.22428822740351

> <r_i_glide_hbond>
-0.778124379577213

> <r_i_glide_metal>
0

> <r_i_glide_rewards>
-1.54911962426866

> <r_i_glide_evdw>
-41.8978462219238

> <r_i_glide_ecoul>
-8.13548469543457

> <r_i_glide_erotb>
0.931575974084799

> <r_i_glide_esite>
-0.0165781985970461

> <r_i_glide_emodel>
-71.6367944063098

> <r_i_glide_energy>
-50.0333309173584

> <r_i_glide_einternal>
3.7248592376709

> <i_i_glide_confnum>
96

> <i_i_glide_posenum>
78

> <r_i_glide_eff_state_penalty>
0

> <s_user_duplicate_titles>
CHEMBL2208_lig259

> <s_m_subgroup_title>
dock_pv

> <s_m_subgroupid>
dock_pv

> <b_m_subgroup_collapsed>
1

$$$$
CHEMBL2208_lig886
                    3D
 Schrodinger Suite 2021-1.
 30 31  0  0  1  0            999 V2000
   40.6265    7.6263   17.0735 S   0  0  0  0  0  0
   39.4781    5.6677   19.8280 O   0  0  0  0  0  0
   39.8779    6.4251   13.3724 N   0  0  0  0  0  0
   37.7802    5.2250   13.3410 N   0  0  0  0  0  0
   36.7168    5.0413   15.5258 N   0  0  0  0  0  0
   37.7169    5.9606   17.4973 N   0  0  0  0  0  0
   38.8051    6.2225   15.3426 C   0  0  0  0  0  0
   38.7506    5.9043   13.9562 C   0  0  0  0  0  0
   40.0115    6.9802   15.5624 C   0  0  0  0  0  0
   37.7287    5.7385   16.1121 C   0  0  0  0  0  0
   40.5923    7.1149   14.3175 C   0  0  0  0  0  0
   36.7982    4.8249   14.1907 C   0  0  0  0  0  0
   36.8115    5.2244   18.3713 C   0  0  0  0  0  0
   39.6509    9.1550   17.0435 C   0  0  0  0  0  0
   37.0428    5.5129   19.8688 C   0  0  0  0  0  0
   38.3880    5.0019   20.4338 C   0  0  0  0  0  0
   40.3056    5.2302   20.0784 H   0  0  0  0  0  0
   40.1561    6.3947   12.3997 H   0  0  0  0  0  0
   38.6027    6.2249   17.9149 H   0  0  0  0  0  0
   41.4777    7.6512   14.0202 H   0  0  0  0  0  0
   35.9928    4.2492   13.7571 H   0  0  0  0  0  0
   36.9855    4.1626   18.1939 H   0  0  0  0  0  0
   35.7757    5.3855   18.0730 H   0  0  0  0  0  0
   39.4774    9.5052   18.0599 H   0  0  0  0  0  0
   40.1899    9.9276   16.4962 H   0  0  0  0  0  0
   38.6815    9.0073   16.5678 H   0  0  0  0  0  0
   36.2364    5.0456   20.4343 H   0  0  0  0  0  0
   36.9490    6.5823   20.0624 H   0  0  0  0  0  0
   38.5032    3.9399   20.2117 H   0  0  0  0  0  0
   38.4340    5.1096   21.5184 H   0  0  0  0  0  0
  1  9  1  0  0  0
  1 14  1  0  0  0
  2 16  1  0  0  0
  2 17  1  0  0  0
  3  8  1  0  0  0
  3 11  1  0  0  0
  3 18  1  0  0  0
  4  8  2  0  0  0
  4 12  1  0  0  0
  5 10  1  0  0  0
  5 12  2  0  0  0
  6 10  1  0  0  0
  6 13  1  0  0  0
  6 19  1  0  0  0
  7  8  1  0  0  0
  7  9  1  0  0  0
  7 10  2  0  0  0
  9 11  2  0  0  0
 11 20  1  0  0  0
 12 21  1  0  0  0
 13 15  1  0  0  0
 13 22  1  0  0  0
 13 23  1  0  0  0
 14 24  1  0  0  0
 14 25  1  0  0  0
 14 26  1  0  0  0
 15 16  1  0  0  0
 15 27  1  0  0  0
 15 28  1  0  0  0
 16 29  1  0  0  0
 16 30  1  0  0  0
M  END
> <s_m_entry_id>
7659

> <s_m_entry_name>
dock_pv.220

> <s_m_Source_Path>
/home/csk/Desktop/cluster/DUD-E-result/mapk2

> <s_m_Source_File>
dock_pv.maegz

> <i_m_Source_File_Index>
220

> <chembl_id>
CHEMBL2000114

> <chembl_pref_name>
None

> <i_lp_mmshare_version>
53161

> <i_f3d_flags>
0

> <r_lp_tautomer_probability>
1

> <s_lp_Force_Field>
OPLS_2005

> <r_lp_Energy>
5.388893

> <b_lp_Chiralities_Consistent>
1

> <s_lp_Variant>
CHEMBL2208_lig886-1

> <s_i_glide_gridfile>
glide-grid_3m2w

> <i_i_glide_lignum>
1135

> <i_i_glide_rotatable_bonds>
6

> <r_i_docking_score>
-6.95136091588489

> <r_i_glide_ligand_efficiency>
-0.434460057242806

> <r_i_glide_ligand_efficiency_sa>
-1.0947707419057

> <r_i_glide_ligand_efficiency_ln>
-1.84259706734157

> <r_i_glide_gscore>
-6.95136091588489

> <r_i_glide_lipo>
-1.70464324180387

> <r_i_glide_hbond>
-0.638469008474497

> <r_i_glide_metal>
0

> <r_i_glide_rewards>
-3.30232106930818

> <r_i_glide_evdw>
-31.9331493377686

> <r_i_glide_ecoul>
-6.16537475585938

> <r_i_glide_erotb>
1.21553608396899

> <r_i_glide_esite>
0

> <r_i_glide_emodel>
-52.4558009494599

> <r_i_glide_energy>
-38.0985240936279

> <r_i_glide_einternal>
2.60070776939392

> <i_i_glide_confnum>
22

> <i_i_glide_posenum>
159

> <r_i_glide_eff_state_penalty>
0

> <s_user_duplicate_titles>
CHEMBL2208_lig886

> <s_m_subgroup_title>
dock_pv

> <s_m_subgroupid>
dock_pv

> <b_m_subgroup_collapsed>
1

$$$$
CHEMBL2208_lig215
                    3D
 Schrodinger Suite 2021-1.
 34 37  0  0  1  0            999 V2000
   39.1286    6.2084   14.0470 C   0  0  0  0  0  0
   38.0393    5.6250   14.7082 C   0  0  0  0  0  0
   37.8746    5.7973   16.0932 C   0  0  0  0  0  0
   40.0627    6.9902   14.7172 C   0  0  0  0  0  0
   37.0652    4.7839   13.9203 C   0  0  0  0  0  0
   37.0780    4.8250   12.6879 O   0  0  0  0  0  0
   36.2780    3.9758   14.6720 N   0  0  0  0  0  0
   35.3147    3.0646   14.2720 C   0  0  0  0  0  0
   39.9216    7.1646   16.0974 C   0  0  0  0  0  0
   38.8313    6.5476   16.7719 C   0  0  0  0  0  0
   40.6692    7.8544   17.0891 C   0  0  0  0  0  0
   40.0305    7.6899   18.2999 C   0  0  0  0  0  0
   38.9690    6.8250   18.1196 N   0  0  0  0  0  0
   38.2153    6.2677   19.2404 C   0  0  0  0  0  0
   38.1398    7.3772   20.3173 C   0  0  0  0  0  0
   39.4784    7.9566   20.5587 N   0  0  0  0  0  0
   40.4201    8.1607   19.6021 C   0  0  0  0  0  0
   41.4780    8.7123   19.8720 O   0  0  0  0  0  0
   34.8180    2.8780   13.0715 N   0  0  0  0  0  0
   33.8780    1.9509   13.0720 C   0  0  0  0  0  0
   33.6238    1.3321   14.2920 C   0  0  0  0  0  0
   34.6637    2.0250   15.4996 S   0  0  0  0  0  0
   39.2653    6.0572   12.9849 H   0  0  0  0  0  0
   37.0485    5.3653   16.6383 H   0  0  0  0  0  0
   40.8851    7.4414   14.1813 H   0  0  0  0  0  0
   36.4505    3.9859   15.6637 H   0  0  0  0  0  0
   41.5728    8.4250   16.9598 H   0  0  0  0  0  0
   38.7900    5.4219   19.6233 H   0  0  0  0  0  0
   37.2263    5.9359   18.9243 H   0  0  0  0  0  0
   37.7199    6.9997   21.2511 H   0  0  0  0  0  0
   37.4974    8.1977   19.9931 H   0  0  0  0  0  0
   39.8169    7.9780   21.5119 H   0  0  0  0  0  0
   33.3789    1.7205   12.1420 H   0  0  0  0  0  0
   32.9144    0.5540   14.5323 H   0  0  0  0  0  0
  1  2  2  0  0  0
  1  4  1  0  0  0
  1 23  1  0  0  0
  2  5  1  0  0  0
  2  3  1  0  0  0
  3 10  2  0  0  0
  3 24  1  0  0  0
  4  9  2  0  0  0
  4 25  1  0  0  0
  5  6  2  0  0  0
  5  7  1  0  0  0
  7  8  1  0  0  0
  7 26  1  0  0  0
  8 19  2  0  0  0
  8 22  1  0  0  0
  9 11  1  0  0  0
  9 10  1  0  0  0
 10 13  1  0  0  0
 11 12  2  0  0  0
 11 27  1  0  0  0
 12 13  1  0  0  0
 12 17  1  0  0  0
 13 14  1  0  0  0
 14 15  1  0  0  0
 14 28  1  0  0  0
 14 29  1  0  0  0
 15 16  1  0  0  0
 15 30  1  0  0  0
 15 31  1  0  0  0
 16 17  1  0  0  0
 16 32  1  0  0  0
 17 18  2  0  0  0
 19 20  1  0  0  0
 20 21  2  0  0  0
 20 33  1  0  0  0
 21 22  1  0  0  0
 21 34  1  0  0  0
M  END
> <s_m_entry_id>
7660

> <s_m_entry_name>
dock_pv.221

> <s_m_Source_Path>
/home/csk/Desktop/cluster/DUD-E-result/mapk2

> <s_m_Source_File>
dock_pv.maegz

> <i_m_Source_File_Index>
221

> <chembl_id>
CHEMBL257887

> <chembl_pref_name>
None

> <i_lp_mmshare_version>
53161

> <i_f3d_flags>
0

> <r_lp_tautomer_probability>
0.999000488399163

> <s_lp_Force_Field>
OPLS_2005

> <r_lp_Energy>
22.073092

> <b_lp_Chiralities_Consistent>
1

> <s_lp_Variant>
CHEMBL2208_lig215-1

> <s_i_glide_gridfile>
glide-grid_3m2w

> <i_i_glide_lignum>
339

> <i_i_glide_rotatable_bonds>
3

> <r_i_docking_score>
-6.9453626912597

> <r_i_glide_ligand_efficiency>
-0.315698304148168

> <r_i_glide_ligand_efficiency_sa>
-0.884599063932929

> <r_i_glide_ligand_efficiency_ln>
-1.69769998000345

> <r_i_glide_gscore>
-6.9453626912597

> <r_i_glide_lipo>
-2.558836656461

> <r_i_glide_hbond>
-0.237260358352367

> <r_i_glide_metal>
0

> <r_i_glide_rewards>
-1.65453266583079

> <r_i_glide_evdw>
-37.3061866760254

> <r_i_glide_ecoul>
-7.2754487991333

> <r_i_glide_erotb>
0.570671563485778

> <r_i_glide_esite>
-0.108777920430057

> <r_i_glide_emodel>
-62.3963440609966

> <r_i_glide_energy>
-44.5816354751587

> <r_i_glide_einternal>
1.16264045238495

> <i_i_glide_confnum>
6

> <i_i_glide_posenum>
186

> <r_i_glide_eff_state_penalty>
0

> <s_user_duplicate_titles>
CHEMBL2208_lig215

> <s_m_subgroup_title>
dock_pv

> <s_m_subgroupid>
dock_pv

> <b_m_subgroup_collapsed>
1

$$$$
CHEMBL2208_lig161
                    3D
 Schrodinger Suite 2021-1.
 31 33  0  0  1  0            999 V2000
   37.9742    5.7730   19.0339 C   0  0  1  0  0  0
   39.6271    6.4545   13.8707 C   0  0  0  0  0  0
   38.5052    5.7237   14.2445 C   0  0  0  0  0  0
   38.1555    5.6271   15.5992 C   0  0  0  0  0  0
   40.4131    7.1569   14.7794 C   0  0  0  0  0  0
   40.0616    7.0493   16.1248 C   0  0  0  0  0  0
   38.9440    6.2769   16.5586 C   0  0  0  0  0  0
   40.6223    7.6023   17.2520 N   0  0  0  0  0  0
   39.9600    7.1780   18.3804 C   0  0  0  0  0  0
   38.9083    6.3655   17.9891 C   0  0  0  0  0  0
   38.7990    5.6452   20.3471 C   0  0  0  0  0  0
   39.4984    6.9176   20.6379 N   0  0  0  0  0  0
   40.2723    7.5718   19.7314 C   0  0  0  0  0  0
   41.0777    8.4250   20.0851 O   0  0  0  0  0  0
   37.7974    5.1393   13.2156 O   0  0  0  0  0  0
   36.6005    4.4391   13.5284 C   0  0  0  0  0  0
   36.7187    6.6322   19.2129 C   0  0  0  0  0  0
   37.6618    4.7730   18.7337 H   0  0  0  0  0  0
   39.8779    6.5053   12.8220 H   0  0  0  0  0  0
   37.2978    5.0581   15.9233 H   0  0  0  0  0  0
   41.2521    7.7499   14.4484 H   0  0  0  0  0  0
   41.4148    8.2275   17.2979 H   0  0  0  0  0  0
   39.5397    4.8466   20.2615 H   0  0  0  0  0  0
   38.1596    5.3791   21.1896 H   0  0  0  0  0  0
   39.5797    7.2054   21.6019 H   0  0  0  0  0  0
   36.1734    4.0238   12.6172 H   0  0  0  0  0  0
   36.7787    3.6243   14.2289 H   0  0  0  0  0  0
   35.8666    5.1151   13.9662 H   0  0  0  0  0  0
   36.2785    6.8244   18.2364 H   0  0  0  0  0  0
   35.9872    6.1326   19.8500 H   0  0  0  0  0  0
   36.9469    7.5956   19.6693 H   0  0  0  0  0  0
  1 10  1  0  0  0
  1 11  1  0  0  0
  1 17  1  0  0  0
  1 18  1  0  0  0
  2  3  2  0  0  0
  2  5  1  0  0  0
  2 19  1  0  0  0
  3  4  1  0  0  0
  3 15  1  0  0  0
  4  7  2  0  0  0
  4 20  1  0  0  0
  5  6  2  0  0  0
  5 21  1  0  0  0
  6  8  1  0  0  0
  6  7  1  0  0  0
  7 10  1  0  0  0
  8  9  1  0  0  0
  8 22  1  0  0  0
  9 10  2  0  0  0
  9 13  1  0  0  0
 11 12  1  0  0  0
 11 23  1  0  0  0
 11 24  1  0  0  0
 12 13  1  0  0  0
 12 25  1  0  0  0
 13 14  2  0  0  0
 15 16  1  0  0  0
 16 26  1  0  0  0
 16 27  1  0  0  0
 16 28  1  0  0  0
 17 29  1  0  0  0
 17 30  1  0  0  0
 17 31  1  0  0  0
M  END
> <s_m_entry_id>
7661

> <s_m_entry_name>
dock_pv.222

> <s_m_Source_Path>
/home/csk/Desktop/cluster/DUD-E-result/mapk2

> <s_m_Source_File>
dock_pv.maegz

> <i_m_Source_File_Index>
222

> <chembl_id>
CHEMBL246526

> <chembl_pref_name>
None

> <i_lp_mmshare_version>
53161

> <i_f3d_flags>
0

> <r_lp_tautomer_probability>
1

> <s_lp_Force_Field>
OPLS_2005

> <r_lp_Energy>
20.131689

> <b_lp_Chiralities_Consistent>
1

> <s_lp_Variant>
CHEMBL2208_lig161-2

> <s_i_glide_gridfile>
glide-grid_3m2w

> <i_i_glide_lignum>
244

> <i_i_glide_rotatable_bonds>
1

> <r_i_docking_score>
-6.94517796217764

> <r_i_glide_ligand_efficiency>
-0.408539880128096

> <r_i_glide_ligand_efficiency_sa>
-1.05047107183103

> <r_i_glide_ligand_efficiency_ln>
-1.81184226882306

> <r_i_glide_gscore>
-6.94517796217764

> <r_i_glide_lipo>
-2.12308200296528

> <r_i_glide_hbond>
-0.307248809668695

> <r_i_glide_metal>
0

> <r_i_glide_rewards>
-1.89743442746816

> <r_i_glide_evdw>
-29.6321258544922

> <r_i_glide_ecoul>
-6.94343900680542

> <r_i_glide_erotb>
0

> <r_i_glide_esite>
-0.0942905783300774

> <r_i_glide_emodel>
-51.6549034463399

> <r_i_glide_energy>
-36.5755648612976

> <r_i_glide_einternal>
0.245607301592827

> <i_i_glide_confnum>
1

> <i_i_glide_posenum>
110

> <r_i_glide_eff_state_penalty>
0

> <s_user_duplicate_titles>
CHEMBL2208_lig161

> <s_m_subgroup_title>
dock_pv

> <s_m_subgroupid>
dock_pv

> <b_m_subgroup_collapsed>
1

$$$$
CHEMBL2208_lig403
                    3D
 Schrodinger Suite 2021-1.
 35 36  0  0  1  0            999 V2000
   39.3000    6.6760   15.4390 C   0  0  0  0  0  0
   38.2513    6.0250   16.0202 N   0  0  0  0  0  0
   37.5177    5.1795   15.2571 C   0  0  0  0  0  0
   37.8060    4.9973   13.9061 C   0  0  0  0  0  0
   38.8532    5.6266   13.3157 N   0  0  0  0  0  0
   39.6025    6.4589   14.0857 C   0  0  0  0  0  0
   40.6780    7.0902   13.4720 N   0  0  0  0  0  0
   40.1381    7.5977   16.3358 C   0  0  0  0  0  0
   39.8479    7.4493   17.7651 N   0  0  0  0  0  0
   40.6045    7.9142   18.8009 C   0  0  0  0  0  0
   40.1494    7.5944   20.0437 N   0  0  0  0  0  0
   41.9940    8.8250   18.6720 S   0  0  0  0  0  0
   39.0099    6.8417   20.3710 C   0  0  0  0  0  0
   36.7730    5.3208   21.0563 C   0  0  0  0  0  0
   36.7649    6.7022   21.2472 C   0  0  0  0  0  0
   37.8857    7.4835   20.9103 C   0  0  0  0  0  0
   37.8973    4.6975   20.5218 C   0  0  0  0  0  0
   39.0144    5.4548   20.1795 C   0  0  0  0  0  0
   36.2780    4.2485   16.0009 Cl  0  0  0  0  0  0
   37.9408    8.8581   21.0614 O   0  0  0  0  0  0
   36.8496    9.5240   21.6779 C   0  0  0  0  0  0
   37.2279    4.3164   13.2988 H   0  0  0  0  0  0
   41.2517    7.7253   14.0050 H   0  0  0  0  0  0
   40.9100    6.8703   12.5026 H   0  0  0  0  0  0
   39.9440    8.6302   16.0408 H   0  0  0  0  0  0
   41.1955    7.3980   16.1540 H   0  0  0  0  0  0
   38.9531    7.0412   17.9963 H   0  0  0  0  0  0
   40.6657    7.9575   20.8310 H   0  0  0  0  0  0
   35.9107    4.7302   21.3301 H   0  0  0  0  0  0
   35.8780    7.1475   21.6691 H   0  0  0  0  0  0
   37.9088    3.6250   20.3846 H   0  0  0  0  0  0
   39.8780    4.9554   19.7697 H   0  0  0  0  0  0
   37.0774   10.5842   21.7870 H   0  0  0  0  0  0
   35.9365    9.4363   21.0867 H   0  0  0  0  0  0
   36.6780    9.1123   22.6720 H   0  0  0  0  0  0
  1  6  1  0  0  0
  1  2  2  0  0  0
  1  8  1  0  0  0
  2  3  1  0  0  0
  3  4  2  0  0  0
  3 19  1  0  0  0
  4  5  1  0  0  0
  4 22  1  0  0  0
  5  6  2  0  0  0
  6  7  1  0  0  0
  7 23  1  0  0  0
  7 24  1  0  0  0
  8  9  1  0  0  0
  8 25  1  0  0  0
  8 26  1  0  0  0
  9 10  1  0  0  0
  9 27  1  0  0  0
 10 11  1  0  0  0
 10 12  2  0  0  0
 11 13  1  0  0  0
 11 28  1  0  0  0
 13 18  2  0  0  0
 13 16  1  0  0  0
 14 17  2  0  0  0
 14 15  1  0  0  0
 14 29  1  0  0  0
 15 16  2  0  0  0
 15 30  1  0  0  0
 16 20  1  0  0  0
 17 18  1  0  0  0
 17 31  1  0  0  0
 18 32  1  0  0  0
 20 21  1  0  0  0
 21 33  1  0  0  0
 21 34  1  0  0  0
 21 35  1  0  0  0
M  END
> <s_m_entry_id>
7662

> <s_m_entry_name>
dock_pv.223

> <s_m_Source_Path>
/home/csk/Desktop/cluster/DUD-E-result/mapk2

> <s_m_Source_File>
dock_pv.maegz

> <i_m_Source_File_Index>
223

> <chembl_id>
CHEMBL1783673

> <chembl_pref_name>
None

> <i_lp_mmshare_version>
53161

> <i_f3d_flags>
0

> <r_lp_tautomer_probability>
0.999999901280008

> <s_lp_Force_Field>
OPLS_2005

> <r_lp_Energy>
27.611942

> <b_lp_Chiralities_Consistent>
1

> <s_lp_Variant>
CHEMBL2208_lig403-1

> <s_i_glide_gridfile>
glide-grid_3m2w

> <i_i_glide_lignum>
573

> <i_i_glide_rotatable_bonds>
6

> <r_i_docking_score>
-6.94052743429461

> <r_i_glide_ligand_efficiency>
-0.330501306394981

> <r_i_glide_ligand_efficiency_sa>
-0.911828043613298

> <r_i_glide_ligand_efficiency_ln>
-1.71603138347312

> <r_i_glide_gscore>
-6.94052743429461

> <r_i_glide_lipo>
-1.57389904661111

> <r_i_glide_hbond>
-0.49935806532767

> <r_i_glide_metal>
0

> <r_i_glide_rewards>
-2.37080718259115

> <r_i_glide_evdw>
-34.9392204284668

> <r_i_glide_ecoul>
-8.84078788757324

> <r_i_glide_erotb>
0.624873246650523

> <r_i_glide_esite>
-0.0482571818558708

> <r_i_glide_emodel>
-58.2401012899009

> <r_i_glide_energy>
-43.78000831604

> <r_i_glide_einternal>
7.3731575012207

> <i_i_glide_confnum>
63

> <i_i_glide_posenum>
84

> <r_i_glide_eff_state_penalty>
0

> <s_user_duplicate_titles>
CHEMBL2208_lig403

> <s_m_subgroup_title>
dock_pv

> <s_m_subgroupid>
dock_pv

> <b_m_subgroup_collapsed>
1

$$$$
CHEMBL2208_lig422
                    3D
 Schrodinger Suite 2021-1.
 50 51  0  0  1  0            999 V2000
   39.2667    6.6404   15.4230 C   0  0  0  0  0  0
   38.1885    6.0252   15.9879 N   0  0  0  0  0  0
   37.4292    5.2240   15.2024 C   0  0  0  0  0  0
   37.7285    5.0333   13.8540 C   0  0  0  0  0  0
   38.8092    5.6251   13.2844 N   0  0  0  0  0  0
   39.5777    6.4251   14.0703 C   0  0  0  0  0  0
   40.6780    7.0297   13.4720 N   0  0  0  0  0  0
   40.1172    7.5335   16.3349 C   0  0  0  0  0  0
   39.7968    7.3973   17.7603 N   0  0  0  0  0  0
   40.5269    7.8857   18.8042 C   0  0  0  0  0  0
   40.0522    7.5868   20.0481 N   0  0  0  0  0  0
   41.8964    8.8246   18.6720 S   0  0  0  0  0  0
   39.0626    6.6549   20.4081 C   0  0  0  0  0  0
   37.1149    4.8247   21.1856 C   0  0  0  0  0  0
   38.1122    4.4344   20.2944 C   0  0  0  0  0  0
   39.0786    5.3503   19.8993 C   0  0  0  0  0  0
   37.1014    6.1263   21.7077 C   0  0  0  0  0  0
   38.0818    7.0389   21.3232 C   0  0  0  0  0  0
   36.2782    4.5130   15.8784 C   0  0  0  0  0  0
   36.1824    3.8526   21.5678 N   0  0  0  0  0  0
   34.8575    4.0397   21.7197 C   0  0  0  0  0  0
   34.2779    5.0991   21.4716 O   0  0  0  0  0  0
   34.0541    2.8224   22.1975 C   0  0  0  0  0  0
   33.0247    3.1300   23.3130 C   0  0  0  0  0  0
   33.6066    3.6928   24.6291 C   0  0  0  0  0  0
   34.5885    2.7463   25.3372 C   0  0  0  0  0  0
   37.1295    4.3892   13.2270 H   0  0  0  0  0  0
   41.2581    7.6508   14.0142 H   0  0  0  0  0  0
   40.9056    6.8250   12.4984 H   0  0  0  0  0  0
   39.9624    8.5706   16.0329 H   0  0  0  0  0  0
   41.1697    7.2946   16.1730 H   0  0  0  0  0  0
   38.9106    6.9632   17.9773 H   0  0  0  0  0  0
   40.5197    8.0242   20.8280 H   0  0  0  0  0  0
   38.1481    3.4244   19.9112 H   0  0  0  0  0  0
   39.8600    5.0322   19.2233 H   0  0  0  0  0  0
   36.3469    6.4251   22.4223 H   0  0  0  0  0  0
   38.0746    8.0349   21.7411 H   0  0  0  0  0  0
   35.4762    4.3183   15.1681 H   0  0  0  0  0  0
   36.6116    3.5610   16.2887 H   0  0  0  0  0  0
   35.8819    5.1079   16.7017 H   0  0  0  0  0  0
   36.5328    2.9077   21.6379 H   0  0  0  0  0  0
   34.7235    2.0250   22.5236 H   0  0  0  0  0  0
   33.5322    2.4200   21.3289 H   0  0  0  0  0  0
   32.4704    2.2172   23.5359 H   0  0  0  0  0  0
   32.2778    3.8278   22.9299 H   0  0  0  0  0  0
   32.7834    3.9148   25.3097 H   0  0  0  0  0  0
   34.0959    4.6501   24.4413 H   0  0  0  0  0  0
   34.9209    3.1685   26.2862 H   0  0  0  0  0  0
   35.4778    2.5702   24.7327 H   0  0  0  0  0  0
   34.1289    1.7812   25.5501 H   0  0  0  0  0  0
  1  2  2  0  0  0
  1  8  1  0  0  0
  1  6  1  0  0  0
  2  3  1  0  0  0
  3  4  2  0  0  0
  3 19  1  0  0  0
  4  5  1  0  0  0
  4 27  1  0  0  0
  5  6  2  0  0  0
  6  7  1  0  0  0
  7 28  1  0  0  0
  7 29  1  0  0  0
  8  9  1  0  0  0
  8 30  1  0  0  0
  8 31  1  0  0  0
  9 10  1  0  0  0
  9 32  1  0  0  0
 10 11  1  0  0  0
 10 12  2  0  0  0
 11 13  1  0  0  0
 11 33  1  0  0  0
 13 18  2  0  0  0
 13 16  1  0  0  0
 14 17  2  0  0  0
 14 15  1  0  0  0
 14 20  1  0  0  0
 15 16  2  0  0  0
 15 34  1  0  0  0
 16 35  1  0  0  0
 17 18  1  0  0  0
 17 36  1  0  0  0
 18 37  1  0  0  0
 19 38  1  0  0  0
 19 39  1  0  0  0
 19 40  1  0  0  0
 20 21  1  0  0  0
 20 41  1  0  0  0
 21 22  2  0  0  0
 21 23  1  0  0  0
 23 24  1  0  0  0
 23 42  1  0  0  0
 23 43  1  0  0  0
 24 25  1  0  0  0
 24 44  1  0  0  0
 24 45  1  0  0  0
 25 26  1  0  0  0
 25 46  1  0  0  0
 25 47  1  0  0  0
 26 48  1  0  0  0
 26 49  1  0  0  0
 26 50  1  0  0  0
M  END
> <s_m_entry_id>
7664

> <s_m_entry_name>
dock_pv.225

> <s_m_Source_Path>
/home/csk/Desktop/cluster/DUD-E-result/mapk2

> <s_m_Source_File>
dock_pv.maegz

> <i_m_Source_File_Index>
225

> <chembl_id>
CHEMBL1783698

> <chembl_pref_name>
None

> <i_lp_mmshare_version>
53161

> <i_f3d_flags>
0

> <r_lp_tautomer_probability>
0.999999901280008

> <s_lp_Force_Field>
OPLS_2005

> <r_lp_Energy>
29.109671

> <b_lp_Chiralities_Consistent>
1

> <s_lp_Variant>
CHEMBL2208_lig422-1

> <s_i_glide_gridfile>
glide-grid_3m2w

> <i_i_glide_lignum>
592

> <i_i_glide_rotatable_bonds>
10

> <r_i_docking_score>
-6.93833459383974

> <r_i_glide_ligand_efficiency>
-0.26685902283999

> <r_i_glide_ligand_efficiency_sa>
-0.79056880512392

> <r_i_glide_ligand_efficiency_ln>
-1.62944511283054

> <r_i_glide_gscore>
-6.93833459383974

> <r_i_glide_lipo>
-1.38509682908054

> <r_i_glide_hbond>
-0.782414652890727

> <r_i_glide_metal>
0

> <r_i_glide_rewards>
-1.55320992214175

> <r_i_glide_evdw>
-38.0225028991699

> <r_i_glide_ecoul>
-14.0158281326294

> <r_i_glide_erotb>
0.877004819462806

> <r_i_glide_esite>
-0.0911186443366296

> <r_i_glide_emodel>
-66.8577737352248

> <r_i_glide_energy>
-52.0383310317993

> <r_i_glide_einternal>
9.47863292694092

> <i_i_glide_confnum>
34

> <i_i_glide_posenum>
354

> <r_i_glide_eff_state_penalty>
0

> <s_user_duplicate_titles>
CHEMBL2208_lig422

> <s_m_subgroup_title>
dock_pv

> <s_m_subgroupid>
dock_pv

> <b_m_subgroup_collapsed>
1

$$$$
CHEMBL2208_lig1473
                    3D
 Schrodinger Suite 2021-1.
 41 43  0  0  1  0            999 V2000
   41.0647    8.4986   19.3622 O   0  0  0  0  0  0
   34.1094    0.7014   16.2071 O   0  0  0  0  0  0
   33.2466    2.8250   16.0309 O   0  0  0  0  0  0
   41.0669    8.3261   17.0868 N   0  0  0  0  0  0
   37.8854    4.5825   20.3287 N   0  0  0  0  0  0
   39.7276    6.8841   18.1303 C   0  0  0  0  0  0
   39.7265    6.5910   16.6846 C   0  0  0  0  0  0
   37.9750    5.4242   19.2535 C   0  0  0  0  0  0
   40.5179    7.5485   16.0979 C   0  0  0  0  0  0
   40.6780    7.9696   18.3180 C   0  0  0  0  0  0
   36.8471    5.1983   18.4592 C   0  0  0  0  0  0
   39.0577    6.3914   19.1996 C   0  0  0  0  0  0
   36.1629    4.0868   19.0128 C   0  0  0  0  0  0
   36.7689    3.8010   20.2305 C   0  0  0  0  0  0
   39.1238    5.6255   15.8682 C   0  0  0  0  0  0
   40.6783    7.6250   14.7152 C   0  0  0  0  0  0
   34.9676    3.3464   18.4380 C   0  0  0  0  0  0
   39.2838    5.6706   14.4820 C   0  0  0  0  0  0
   40.0603    6.6743   13.9030 C   0  0  0  0  0  0
   36.4422    5.9928   17.2352 C   0  0  0  0  0  0
   36.3990    2.8250   21.3220 C   0  0  0  0  0  0
   35.3511    2.5480   17.1682 C   0  0  0  0  0  0
   34.1725    1.9075   16.4331 C   0  0  0  0  0  0
   33.4780    3.7395   16.2720 H   0  0  0  0  0  0
   41.7252    9.0710   16.9116 H   0  0  0  0  0  0
   38.5428    4.5471   21.0963 H   0  0  0  0  0  0
   39.3110    6.7655   20.1845 H   0  0  0  0  0  0
   38.5277    4.8292   16.2802 H   0  0  0  0  0  0
   41.2925    8.3926   14.2710 H   0  0  0  0  0  0
   34.1342    4.0250   18.2720 H   0  0  0  0  0  0
   34.5982    2.6344   19.1784 H   0  0  0  0  0  0
   38.8038    4.9270   13.8627 H   0  0  0  0  0  0
   40.1902    6.7122   12.8312 H   0  0  0  0  0  0
   37.1037    6.8262   17.0234 H   0  0  0  0  0  0
   36.3483    5.3809   16.3402 H   0  0  0  0  0  0
   35.4780    6.4462   17.3523 H   0  0  0  0  0  0
   35.3252    2.8134   21.5085 H   0  0  0  0  0  0
   36.6780    1.8047   21.0592 H   0  0  0  0  0  0
   36.8784    3.0621   22.2720 H   0  0  0  0  0  0
   36.0955    1.7891   17.4145 H   0  0  0  0  0  0
   35.8376    3.1978   16.4427 H   0  0  0  0  0  0
  1 10  2  0  0  0
  2 23  2  0  0  0
  3 23  1  0  0  0
  3 24  1  0  0  0
  4  9  1  0  0  0
  4 10  1  0  0  0
  4 25  1  0  0  0
  5  8  1  0  0  0
  5 14  1  0  0  0
  5 26  1  0  0  0
  6  7  1  0  0  0
  6 10  1  0  0  0
  6 12  2  3  0  0
  7  9  1  0  0  0
  7 15  2  0  0  0
  8 11  2  0  0  0
  8 12  1  0  0  0
  9 16  2  0  0  0
 11 13  1  0  0  0
 11 20  1  0  0  0
 12 27  1  0  0  0
 13 14  2  0  0  0
 13 17  1  0  0  0
 14 21  1  0  0  0
 15 18  1  0  0  0
 15 28  1  0  0  0
 16 19  1  0  0  0
 16 29  1  0  0  0
 17 22  1  0  0  0
 17 30  1  0  0  0
 17 31  1  0  0  0
 18 19  2  0  0  0
 18 32  1  0  0  0
 19 33  1  0  0  0
 20 34  1  0  0  0
 20 35  1  0  0  0
 20 36  1  0  0  0
 21 37  1  0  0  0
 21 38  1  0  0  0
 21 39  1  0  0  0
 22 23  1  0  0  0
 22 40  1  0  0  0
 22 41  1  0  0  0
M  END
> <s_m_entry_id>
7665

> <s_m_entry_name>
dock_pv.226

> <s_m_Source_Path>
/home/csk/Desktop/cluster/DUD-E-result/mapk2

> <s_m_Source_File>
dock_pv.maegz

> <i_m_Source_File_Index>
226

> <chembl_id>
CHEMBL2007064

> <chembl_pref_name>
None

> <i_lp_mmshare_version>
53161

> <i_f3d_flags>
0

> <r_lp_tautomer_probability>
1

> <s_lp_Force_Field>
OPLS_2005

> <r_lp_Energy>
28.688211

> <b_lp_Chiralities_Consistent>
1

> <s_lp_Variant>
CHEMBL2208_lig1473-2

> <s_i_glide_gridfile>
glide-grid_3m2w

> <i_i_glide_lignum>
2046

> <i_i_glide_rotatable_bonds>
5

> <r_i_docking_score>
-6.93674617144927

> <r_i_glide_ligand_efficiency>
-0.301597659628229

> <r_i_glide_ligand_efficiency_sa>
-0.857703624520791

> <r_i_glide_ligand_efficiency_ln>
-1.67736812319317

> <r_i_glide_gscore>
-6.93674617144927

> <r_i_glide_lipo>
-2.33919693875944

> <r_i_glide_hbond>
-0.0420801801616938

> <r_i_glide_metal>
0

> <r_i_glide_rewards>
-1.60500403286476

> <r_i_glide_evdw>
-28.6737976074219

> <r_i_glide_ecoul>
-14.8876962661743

> <r_i_glide_erotb>
0.769532500312959

> <r_i_glide_esite>
-0.0531531996790909

> <r_i_glide_emodel>
-60.5034430328935

> <r_i_glide_energy>
-43.5614938735962

> <r_i_glide_einternal>
3.66154623031616

> <i_i_glide_confnum>
23

> <i_i_glide_posenum>
158

> <r_i_glide_eff_state_penalty>
0

> <s_user_duplicate_titles>
CHEMBL2208_lig1473

> <s_m_subgroup_title>
dock_pv

> <s_m_subgroupid>
dock_pv

> <b_m_subgroup_collapsed>
1

$$$$
CHEMBL2208_lig1368
                    3D
 Schrodinger Suite 2021-1.
 40 42  0  0  1  0            999 V2000
   40.6775    8.4248   20.2730 Cl  0  0  0  0  0  0
   40.2807    7.1572   14.8802 O   0  0  0  0  0  0
   37.4370    5.0720   12.6222 O   0  0  0  0  0  0
   39.4780    6.0250   12.6848 O   0  0  0  0  0  0
   37.6209    6.2861   18.8410 N   0  0  0  0  0  0
   38.1907    6.8455   21.0143 N   0  0  0  0  0  0
   36.9688    5.5896   16.7209 N   0  0  0  0  0  0
   36.2776    5.0710   24.6620 N   0  0  0  0  0  0
   39.0273    6.8603   16.9251 C   0  0  0  0  0  0
   37.8964    6.2587   17.5211 C   0  0  0  0  0  0
   39.8822    7.5911   17.7914 C   0  0  0  0  0  0
   38.4997    6.9084   19.6578 C   0  0  0  0  0  0
   39.6252    7.5922   19.1749 C   0  0  0  0  0  0
   39.2800    6.6932   15.4326 C   0  0  0  0  0  0
   38.2397    5.9125   14.6974 C   0  0  0  0  0  0
   37.1665    5.4288   15.3733 C   0  0  0  0  0  0
   38.3167    5.6251   13.2716 C   0  0  0  0  0  0
   38.8615    5.9837   21.9837 C   0  0  0  0  0  0
   37.2134    7.6577   21.7310 C   0  0  0  0  0  0
   41.0523    8.4183   17.2501 C   0  0  0  0  0  0
   38.0911    6.0636   23.3021 C   0  0  1  0  0  0
   37.5466    7.4847   23.2145 C   0  0  0  0  0  0
   37.0332    4.9443   23.4280 C   0  0  0  0  0  0
   40.0426    6.4759   13.3246 H   0  0  0  0  0  0
   36.1435    5.2055   17.1605 H   0  0  0  0  0  0
   35.6770    5.8839   24.5904 H   0  0  0  0  0  0
   35.6600    4.2775   24.7611 H   0  0  0  0  0  0
   36.3821    4.8538   14.8937 H   0  0  0  0  0  0
   38.9200    4.9548   21.6237 H   0  0  0  0  0  0
   39.8780    6.3329   22.1355 H   0  0  0  0  0  0
   37.3458    8.7050   21.4568 H   0  0  0  0  0  0
   36.1920    7.3453   21.5070 H   0  0  0  0  0  0
   41.5179    9.0949   17.9620 H   0  0  0  0  0  0
   41.8284    7.7727   16.8382 H   0  0  0  0  0  0
   40.6786    9.0619   16.4530 H   0  0  0  0  0  0
   38.7931    5.9700   24.1335 H   0  0  0  0  0  0
   38.2863    8.2184   23.5410 H   0  0  0  0  0  0
   36.6780    7.6250   23.8490 H   0  0  0  0  0  0
   36.3432    4.9658   22.5831 H   0  0  0  0  0  0
   37.5227    3.9688   23.4153 H   0  0  0  0  0  0
  1 13  1  0  0  0
  2 14  2  0  0  0
  3 17  2  0  0  0
  4 17  1  0  0  0
  4 24  1  0  0  0
  5 10  1  0  0  0
  5 12  2  0  0  0
  6 12  1  0  0  0
  6 18  1  0  0  0
  6 19  1  0  0  0
  7 10  1  0  0  0
  7 16  1  0  0  0
  7 25  1  0  0  0
  8 23  1  0  0  0
  8 26  1  0  0  0
  8 27  1  0  0  0
  9 10  2  0  0  0
  9 11  1  0  0  0
  9 14  1  0  0  0
 11 13  2  0  0  0
 11 20  1  0  0  0
 12 13  1  0  0  0
 14 15  1  0  0  0
 15 16  2  0  0  0
 15 17  1  0  0  0
 16 28  1  0  0  0
 18 21  1  0  0  0
 18 29  1  0  0  0
 18 30  1  0  0  0
 19 22  1  0  0  0
 19 31  1  0  0  0
 19 32  1  0  0  0
 20 33  1  0  0  0
 20 34  1  0  0  0
 20 35  1  0  0  0
 21 22  1  0  0  0
 21 23  1  0  0  0
 21 36  1  0  0  0
 22 37  1  0  0  0
 22 38  1  0  0  0
 23 39  1  0  0  0
 23 40  1  0  0  0
M  END
> <s_m_entry_id>
7666

> <s_m_entry_name>
dock_pv.227

> <s_m_Source_Path>
/home/csk/Desktop/cluster/DUD-E-result/mapk2

> <s_m_Source_File>
dock_pv.maegz

> <i_m_Source_File_Index>
227

> <chembl_id>
CHEMBL1999774

> <chembl_pref_name>
None

> <i_lp_mmshare_version>
53161

> <i_f3d_flags>
0

> <r_lp_tautomer_probability>
1

> <s_lp_Force_Field>
OPLS_2005

> <r_lp_Energy>
45.614717

> <b_lp_Chiralities_Consistent>
1

> <s_lp_Variant>
CHEMBL2208_lig1368-2

> <s_i_glide_gridfile>
glide-grid_3m2w

> <i_i_glide_lignum>
1873

> <i_i_glide_rotatable_bonds>
4

> <r_i_docking_score>
-6.93590169391616

> <r_i_glide_ligand_efficiency>
-0.301560943213746

> <r_i_glide_ligand_efficiency_sa>
-0.857599207922133

> <r_i_glide_ligand_efficiency_ln>
-1.67716392086836

> <r_i_glide_gscore>
-6.93590169391616

> <r_i_glide_lipo>
-1.72752207248761

> <r_i_glide_hbond>
-0.450337055623916

> <r_i_glide_metal>
0

> <r_i_glide_rewards>
-2.22168615457625

> <r_i_glide_evdw>
-38.9555892944336

> <r_i_glide_ecoul>
-5.97398042678833

> <r_i_glide_erotb>
0.333121466341908

> <r_i_glide_esite>
-0.0256013488303654

> <r_i_glide_emodel>
-60.8837278625166

> <r_i_glide_energy>
-44.9295697212219

> <r_i_glide_einternal>
3.54082369804382

> <i_i_glide_confnum>
14

> <i_i_glide_posenum>
343

> <r_i_glide_eff_state_penalty>
0

> <s_user_duplicate_titles>
CHEMBL2208_lig1368

> <s_m_subgroup_title>
dock_pv

> <s_m_subgroupid>
dock_pv

> <b_m_subgroup_collapsed>
1

$$$$
CHEMBL2208_lig161
                    3D
 Schrodinger Suite 2021-1.
 31 33  0  0  1  0            999 V2000
   38.2661    6.5785   19.2272 C   0  0  2  0  0  0
   39.2593    6.1748   13.8583 C   0  0  0  0  0  0
   38.1721    5.5806   14.4990 C   0  0  0  0  0  0
   37.9965    5.7615   15.8810 C   0  0  0  0  0  0
   40.1911    6.9684   14.5246 C   0  0  0  0  0  0
   40.0037    7.1434   15.8959 C   0  0  0  0  0  0
   38.9186    6.5422   16.5981 C   0  0  0  0  0  0
   40.7316    7.8586   16.8242 N   0  0  0  0  0  0
   40.1757    7.7502   18.0740 C   0  0  0  0  0  0
   39.0646    6.9199   17.9779 C   0  0  0  0  0  0
   38.4483    7.7652   20.2194 C   0  0  0  0  0  0
   39.8761    8.1397   20.3375 N   0  0  0  0  0  0
   40.7225    8.3095   19.2913 C   0  0  0  0  0  0
   41.8270    8.8217   19.4670 O   0  0  0  0  0  0
   37.3281    4.8367   13.6970 O   0  0  0  0  0  0
   36.1963    4.1907   14.2751 C   0  0  0  0  0  0
   38.7052    5.2352   19.8353 C   0  0  0  0  0  0
   37.2076    6.5098   18.9770 H   0  0  0  0  0  0
   39.3770    6.0242   12.7966 H   0  0  0  0  0  0
   37.1663    5.3081   16.4046 H   0  0  0  0  0  0
   41.0097    7.4295   13.9909 H   0  0  0  0  0  0
   41.5631    8.4079   16.6550 H   0  0  0  0  0  0
   38.0571    7.5138   21.2066 H   0  0  0  0  0  0
   37.8821    8.6342   19.8747 H   0  0  0  0  0  0
   40.2703    8.2036   21.2662 H   0  0  0  0  0  0
   35.6754    3.6190   13.5044 H   0  0  0  0  0  0
   36.4943    3.4880   15.0570 H   0  0  0  0  0  0
   35.4800    4.9063   14.6911 H   0  0  0  0  0  0
   38.5305    4.4248   19.1293 H   0  0  0  0  0  0
   39.7652    5.2301   20.0902 H   0  0  0  0  0  0
   38.1457    5.0053   20.7429 H   0  0  0  0  0  0
  1 10  1  0  0  0
  1 11  1  0  0  0
  1 17  1  0  0  0
  1 18  1  0  0  0
  2  3  2  0  0  0
  2  5  1  0  0  0
  2 19  1  0  0  0
  3  4  1  0  0  0
  3 15  1  0  0  0
  4  7  2  0  0  0
  4 20  1  0  0  0
  5  6  2  0  0  0
  5 21  1  0  0  0
  6  8  1  0  0  0
  6  7  1  0  0  0
  7 10  1  0  0  0
  8  9  1  0  0  0
  8 22  1  0  0  0
  9 10  2  0  0  0
  9 13  1  0  0  0
 11 12  1  0  0  0
 11 23  1  0  0  0
 11 24  1  0  0  0
 12 13  1  0  0  0
 12 25  1  0  0  0
 13 14  2  0  0  0
 15 16  1  0  0  0
 16 26  1  0  0  0
 16 27  1  0  0  0
 16 28  1  0  0  0
 17 29  1  0  0  0
 17 30  1  0  0  0
 17 31  1  0  0  0
M  END
> <s_m_entry_id>
7667

> <s_m_entry_name>
dock_pv.228

> <s_m_Source_Path>
/home/csk/Desktop/cluster/DUD-E-result/mapk2

> <s_m_Source_File>
dock_pv.maegz

> <i_m_Source_File_Index>
228

> <chembl_id>
CHEMBL246526

> <chembl_pref_name>
None

> <i_lp_mmshare_version>
53161

> <i_f3d_flags>
0

> <r_lp_tautomer_probability>
1

> <s_lp_Force_Field>
OPLS_2005

> <r_lp_Energy>
20.131689

> <b_lp_Chiralities_Consistent>
1

> <s_lp_Variant>
CHEMBL2208_lig161-1

> <s_i_glide_gridfile>
glide-grid_3m2w

> <i_i_glide_lignum>
243

> <i_i_glide_rotatable_bonds>
1

> <r_i_docking_score>
-6.93517218234126

> <r_i_glide_ligand_efficiency>
-0.407951304843603

> <r_i_glide_ligand_efficiency_sa>
-1.04895767903872

> <r_i_glide_ligand_efficiency_ln>
-1.80923198368151

> <r_i_glide_gscore>
-6.93517218234126

> <r_i_glide_lipo>
-2.32149912133857

> <r_i_glide_hbond>
-0.194925740680251

> <r_i_glide_metal>
0

> <r_i_glide_rewards>
-1.90578625625232

> <r_i_glide_evdw>
-31.3729591369629

> <r_i_glide_ecoul>
-5.62718057632446

> <r_i_glide_erotb>
0

> <r_i_glide_esite>
-0.100236020773307

> <r_i_glide_emodel>
-52.5248654083012

> <r_i_glide_energy>
-37.0001397132874

> <r_i_glide_einternal>
0.0407955460250378

> <i_i_glide_confnum>
1

> <i_i_glide_posenum>
369

> <r_i_glide_eff_state_penalty>
0

> <s_user_duplicate_titles>
CHEMBL2208_lig161

> <s_m_subgroup_title>
dock_pv

> <s_m_subgroupid>
dock_pv

> <b_m_subgroup_collapsed>
1

$$$$
CHEMBL2208_lig907
                    3D
 Schrodinger Suite 2021-1.
 20 22  0  0  1  0            999 V2000
   42.2780    8.8250   18.6720 Br  0  0  0  0  0  0
   39.2531    6.2361   13.7908 N   0  0  0  0  0  0
   38.3087    5.6103   13.0720 N   0  0  0  0  0  0
   38.9386    6.3180   15.1193 C   0  0  0  0  0  0
   39.4221    6.8186   16.4077 C   0  0  0  0  0  0
   37.7394    5.6822   15.2397 C   0  0  0  0  0  0
   38.4540    6.4286   17.3437 C   0  0  0  0  0  0
   37.2905    5.6968   16.6755 C   0  0  0  0  0  0
   40.5510    7.5380   16.7912 C   0  0  0  0  0  0
   37.3976    5.2562   13.9542 C   0  0  0  0  0  0
   38.6478    6.7458   18.6908 C   0  0  0  0  0  0
   40.7239    7.8652   18.1357 C   0  0  0  0  0  0
   39.7816    7.4617   19.0855 C   0  0  0  0  0  0
   40.0898    6.6131   13.3677 H   0  0  0  0  0  0
   36.3509    6.2362   16.8009 H   0  0  0  0  0  0
   37.1362    4.6961   17.0777 H   0  0  0  0  0  0
   41.2901    7.8425   16.0651 H   0  0  0  0  0  0
   36.5105    4.7053   13.6771 H   0  0  0  0  0  0
   37.9264    6.4458   19.4368 H   0  0  0  0  0  0
   39.9294    7.6954   20.1297 H   0  0  0  0  0  0
  1 12  1  0  0  0
  2  3  1  0  0  0
  2  4  1  0  0  0
  2 14  1  0  0  0
  3 10  2  0  0  0
  4  5  1  0  0  0
  4  6  2  0  0  0
  5  7  1  0  0  0
  5  9  2  0  0  0
  6  8  1  0  0  0
  6 10  1  0  0  0
  7  8  1  0  0  0
  7 11  2  0  0  0
  8 15  1  0  0  0
  8 16  1  0  0  0
  9 12  1  0  0  0
  9 17  1  0  0  0
 10 18  1  0  0  0
 11 13  1  0  0  0
 11 19  1  0  0  0
 12 13  2  0  0  0
 13 20  1  0  0  0
M  END
> <s_m_entry_id>
7668

> <s_m_entry_name>
dock_pv.229

> <s_m_Source_Path>
/home/csk/Desktop/cluster/DUD-E-result/mapk2

> <s_m_Source_File>
dock_pv.maegz

> <i_m_Source_File_Index>
229

> <chembl_id>
CHEMBL1995172

> <chembl_pref_name>
None

> <i_lp_mmshare_version>
53161

> <i_f3d_flags>
0

> <r_lp_tautomer_probability>
0.5

> <s_lp_Force_Field>
OPLS_2005

> <r_lp_Energy>
40.180146

> <b_lp_Chiralities_Consistent>
1

> <s_lp_Variant>
CHEMBL2208_lig907-1

> <s_i_glide_gridfile>
glide-grid_3m2w

> <i_i_glide_lignum>
1161

> <i_i_glide_rotatable_bonds>
0

> <r_i_docking_score>
-6.93407037009665

> <r_i_glide_ligand_efficiency>
-0.533390028468973

> <r_i_glide_ligand_efficiency_sa>
-1.25417847495116

> <r_i_glide_ligand_efficiency_ln>
-1.94506840765731

> <r_i_glide_gscore>
-6.93407037009665

> <r_i_glide_lipo>
-2.14047950102695

> <r_i_glide_hbond>
-0.269013364214415

> <r_i_glide_metal>
0

> <r_i_glide_rewards>
-2.66034382031548

> <r_i_glide_evdw>
-27.7812538146973

> <r_i_glide_ecoul>
-3.16780662536621

> <r_i_glide_erotb>
0

> <r_i_glide_esite>
0

> <r_i_glide_emodel>
-43.9481030240111

> <r_i_glide_energy>
-30.9490604400635

> <r_i_glide_einternal>
0

> <i_i_glide_confnum>
1

> <i_i_glide_posenum>
331

> <r_i_glide_eff_state_penalty>
0

> <s_user_duplicate_titles>
CHEMBL2208_lig907

> <s_m_subgroup_title>
dock_pv

> <s_m_subgroupid>
dock_pv

> <b_m_subgroup_collapsed>
1

$$$$
CHEMBL2208_lig602
                    3D
 Schrodinger Suite 2021-1.
 68 74  0  0  1  0            999 V2000
   35.8777    2.3046   19.2987 C   0  0  0  0  0  0
   36.2788    2.8265   20.5292 C   0  0  0  0  0  0
   36.5065    4.2015   20.6879 C   0  0  0  0  0  0
   36.2770    5.0301   19.5892 C   0  0  0  0  0  0
   35.8707    4.5052   18.3691 C   0  0  0  0  0  0
   35.6925    3.1321   18.1841 C   0  0  0  0  0  0
   36.8968    4.7701   21.9008 N   0  0  0  0  0  0
   36.8849    4.0308   23.1757 C   0  0  0  0  0  0
   36.8377    4.9290   24.4350 C   0  0  0  0  0  0
   37.8822    5.9442   24.4318 N   0  0  0  0  0  0
   37.8373    6.7274   23.2063 C   0  0  0  0  0  0
   37.9262    5.8270   21.9532 C   0  0  0  0  0  0
   35.2698    2.5978   16.9330 N   0  0  0  0  0  0
   34.3977    1.4244   16.8760 C   0  0  2  0  0  0
   34.1365    1.2321   15.4978 O   0  0  0  0  0  0
   34.8527    2.2062   14.7796 N   0  0  0  0  0  0
   35.4782    2.9390   15.6001 C   0  0  0  0  0  0
   36.3515    4.0114   15.0837 C   0  0  0  0  0  0
   37.1347    4.7216   15.9325 O   0  0  0  0  0  0
   37.9250    5.5628   15.2167 C   0  0  0  0  0  0
   37.6292    5.4134   13.8725 C   0  0  0  0  0  0
   36.6457    4.4259   13.7926 C   0  0  0  0  0  0
   38.9201    6.3602   15.9804 C   0  0  0  0  0  0
   38.6698    6.7514   17.3005 C   0  0  0  0  0  0
   39.6181    7.4743   18.0246 C   0  0  0  0  0  0
   40.8399    7.7995   17.4338 C   0  0  0  0  0  0
   41.0998    7.3965   16.1229 C   0  0  0  0  0  0
   40.1433    6.6918   15.3941 C   0  0  0  0  0  0
   33.0921    1.4949   17.6920 C   0  0  0  0  0  0
   32.5148    2.7328   17.9925 C   0  0  0  0  0  0
   31.4089    2.8335   18.8298 C   0  0  0  0  0  0
   30.8484    1.6786   19.3656 C   0  0  0  0  0  0
   31.3637    0.4318   19.0192 C   0  0  0  0  0  0
   32.4655    0.3246   18.1621 C   0  0  0  0  0  0
   32.9106   -1.0259   17.7585 C   0  0  0  0  0  0
   32.7398   -1.5010   16.4517 C   0  0  0  0  0  0
   33.0771   -2.7626   16.0771 N   0  0  0  0  0  0
   33.6090   -3.5441   17.0502 C   0  0  0  0  0  0
   33.8448   -3.1751   18.3331 N   0  0  0  0  0  0
   33.4773   -1.9159   18.6724 C   0  0  0  0  0  0
   42.0372    8.6857   18.3139 Cl  0  0  0  0  0  0
   39.3459    7.8565   19.2941 F   0  0  0  0  0  0
   35.7301    1.2380   19.2262 H   0  0  0  0  0  0
   36.4285    2.1377   21.3484 H   0  0  0  0  0  0
   36.3702    6.1009   19.6809 H   0  0  0  0  0  0
   35.6277    5.1969   17.5809 H   0  0  0  0  0  0
   36.0405    3.3430   23.2062 H   0  0  0  0  0  0
   37.7976    3.4387   23.2225 H   0  0  0  0  0  0
   36.9459    4.3123   25.3271 H   0  0  0  0  0  0
   35.8666    5.4212   24.4949 H   0  0  0  0  0  0
   38.8131    5.5791   24.5989 H   0  0  0  0  0  0
   38.6765    7.4242   23.2109 H   0  0  0  0  0  0
   36.9161    7.3122   23.1774 H   0  0  0  0  0  0
   38.9057    5.3439   21.9479 H   0  0  0  0  0  0
   37.9096    6.4614   21.0694 H   0  0  0  0  0  0
   34.9707    0.5612   17.2173 H   0  0  0  0  0  0
   38.0943    5.9362   13.0503 H   0  0  0  0  0  0
   36.2084    4.0266   12.8882 H   0  0  0  0  0  0
   37.7332    6.5021   17.7674 H   0  0  0  0  0  0
   42.0490    7.6311   15.6661 H   0  0  0  0  0  0
   40.3655    6.3865   14.3808 H   0  0  0  0  0  0
   32.9413    3.6245   17.5736 H   0  0  0  0  0  0
   30.9933    3.8012   19.0693 H   0  0  0  0  0  0
   30.0040    1.7472   20.0330 H   0  0  0  0  0  0
   30.8911   -0.4593   19.4080 H   0  0  0  0  0  0
   32.3033   -0.8719   15.6899 H   0  0  0  0  0  0
   33.8834   -4.5502   16.7725 H   0  0  0  0  0  0
   33.6327   -1.6227   19.7012 H   0  0  0  0  0  0
  1  6  1  0  0  0
  1  2  2  0  0  0
  1 43  1  0  0  0
  2  3  1  0  0  0
  2 44  1  0  0  0
  3  7  1  0  0  0
  3  4  2  0  0  0
  4  5  1  0  0  0
  4 45  1  0  0  0
  5  6  2  0  0  0
  5 46  1  0  0  0
  6 13  1  0  0  0
  7 12  1  0  0  0
  7  8  1  0  0  0
  8  9  1  0  0  0
  8 47  1  0  0  0
  8 48  1  0  0  0
  9 10  1  0  0  0
  9 49  1  0  0  0
  9 50  1  0  0  0
 10 11  1  0  0  0
 10 51  1  0  0  0
 11 12  1  0  0  0
 11 52  1  0  0  0
 11 53  1  0  0  0
 12 54  1  0  0  0
 12 55  1  0  0  0
 13 14  1  0  0  0
 13 17  1  0  0  0
 14 15  1  0  0  0
 14 29  1  0  0  0
 14 56  1  0  0  0
 15 16  1  0  0  0
 16 17  2  0  0  0
 17 18  1  0  0  0
 18 22  2  0  0  0
 18 19  1  0  0  0
 19 20  1  0  0  0
 20 21  2  0  0  0
 20 23  1  0  0  0
 21 22  1  0  0  0
 21 57  1  0  0  0
 22 58  1  0  0  0
 23 24  2  0  0  0
 23 28  1  0  0  0
 24 25  1  0  0  0
 24 59  1  0  0  0
 25 26  2  0  0  0
 25 42  1  0  0  0
 26 27  1  0  0  0
 26 41  1  0  0  0
 27 28  2  0  0  0
 27 60  1  0  0  0
 28 61  1  0  0  0
 29 30  2  0  0  0
 29 34  1  0  0  0
 30 31  1  0  0  0
 30 62  1  0  0  0
 31 32  2  0  0  0
 31 63  1  0  0  0
 32 33  1  0  0  0
 32 64  1  0  0  0
 33 34  2  0  0  0
 33 65  1  0  0  0
 34 35  1  0  0  0
 35 36  2  0  0  0
 35 40  1  0  0  0
 36 37  1  0  0  0
 36 66  1  0  0  0
 37 38  2  0  0  0
 38 39  1  0  0  0
 38 67  1  0  0  0
 39 40  2  0  0  0
 40 68  1  0  0  0
M  END
> <s_m_entry_id>
7669

> <s_m_entry_name>
dock_pv.230

> <s_m_Source_Path>
/home/csk/Desktop/cluster/DUD-E-result/mapk2

> <s_m_Source_File>
dock_pv.maegz

> <i_m_Source_File_Index>
230

> <chembl_id>
CHEMBL2036612

> <chembl_pref_name>
None

> <i_lp_mmshare_version>
53161

> <i_f3d_flags>
0

> <r_lp_tautomer_probability>
1

> <s_lp_Force_Field>
OPLS_2005

> <r_lp_Energy>
57.704487

> <b_lp_Chiralities_Consistent>
1

> <s_lp_Variant>
CHEMBL2208_lig602-1

> <s_i_glide_gridfile>
glide-grid_3m2w

> <i_i_glide_lignum>
798

> <i_i_glide_rotatable_bonds>
6

> <r_i_docking_score>
-6.93243129646582

> <r_i_glide_ligand_efficiency>
-0.165057888011091

> <r_i_glide_ligand_efficiency_sa>
-0.573745615960412

> <r_i_glide_ligand_efficiency_ln>
-1.4632576466946

> <r_i_glide_gscore>
-6.93243129646582

> <r_i_glide_lipo>
-2.83426402509853

> <r_i_glide_hbond>
-0.328054068525048

> <r_i_glide_metal>
0

> <r_i_glide_rewards>
-0.349200313749373

> <r_i_glide_evdw>
-53.6691284179688

> <r_i_glide_ecoul>
-6.41955327987671

> <r_i_glide_erotb>
0.271135118938581

> <r_i_glide_esite>
-0.0456585951514993

> <r_i_glide_emodel>
-80.3230639978205

> <r_i_glide_energy>
-60.0886816978455

> <r_i_glide_einternal>
3.78986716270447

> <i_i_glide_confnum>
2

> <i_i_glide_posenum>
78

> <r_i_glide_eff_state_penalty>
0

> <s_user_duplicate_titles>
CHEMBL2208_lig602

> <s_m_subgroup_title>
dock_pv

> <s_m_subgroupid>
dock_pv

> <b_m_subgroup_collapsed>
1

$$$$
CHEMBL2208_lig355
                    3D
 Schrodinger Suite 2021-1.
 57 59  0  0  1  0            999 V2000
   40.5354    8.4190   19.0873 O   0  0  0  0  0  0
   39.6350    7.6163   18.8185 C   0  0  0  0  0  0
   38.8213    7.0723   20.0319 C   0  0  0  0  0  0
   37.2840    7.2382   19.9506 C   0  0  0  0  0  0
   36.6380    6.7392   21.2596 C   0  0  0  0  0  0
   37.0057    5.3438   21.5313 N   0  0  2  0  0  0
   36.3202    4.8476   22.7216 C   0  0  0  0  0  0
   38.4597    5.1596   21.6632 C   0  0  0  0  0  0
   39.2249    5.6297   20.4046 C   0  0  0  0  0  0
   39.4020    7.2268   17.5257 N   0  0  0  0  0  0
   38.3146    6.3210   17.0979 C   0  0  0  0  0  0
   40.1848    7.7077   16.3483 C   0  0  0  0  0  0
   41.6983    7.4198   16.4547 C   0  0  0  0  0  0
   39.8774    9.1919   16.0493 C   0  0  0  0  0  0
   39.6278    6.8441   15.2541 C   0  0  0  0  0  0
   39.8555    6.5497   13.9397 N   0  0  0  0  0  0
   38.9752    5.6551   13.4711 N   0  0  0  0  0  0
   38.1838    5.3670   14.4865 C   0  0  0  0  0  0
   38.5881    6.0737   15.6405 C   0  0  0  0  0  0
   37.1486    4.4762   14.2804 N   0  0  0  0  0  0
   36.2780    4.0168   15.1962 C   0  0  0  0  0  0
   36.2793    4.3131   16.3895 O   0  0  0  0  0  0
   35.2107    3.0516   14.6634 C   0  0  0  0  0  0
   35.4474    1.5535   14.9949 C   0  0  0  0  0  0
   34.4036    0.6850   14.2685 C   0  0  0  0  0  0
   35.4538    1.2354   16.5051 C   0  0  0  0  0  0
   39.1416    7.7158   20.8567 H   0  0  0  0  0  0
   37.0136    8.2912   19.8727 H   0  0  0  0  0  0
   36.8006    6.6541   19.1700 H   0  0  0  0  0  0
   36.9141    7.3693   22.1099 H   0  0  0  0  0  0
   35.5526    6.8044   21.1683 H   0  0  0  0  0  0
   36.6126    5.4031   23.6153 H   0  0  0  0  0  0
   35.2381    4.9345   22.6072 H   0  0  0  0  0  0
   36.5495    3.7926   22.8860 H   0  0  0  0  0  0
   38.8233    5.6807   22.5528 H   0  0  0  0  0  0
   38.6629    4.0991   21.8261 H   0  0  0  0  0  0
   39.0210    4.8964   19.6239 H   0  0  0  0  0  0
   40.2779    5.5930   20.6837 H   0  0  0  0  0  0
   37.3495    6.8133   17.2004 H   0  0  0  0  0  0
   38.2983    5.3992   17.6763 H   0  0  0  0  0  0
   42.2026    7.6260   15.5113 H   0  0  0  0  0  0
   42.1897    8.0190   17.2197 H   0  0  0  0  0  0
   41.8773    6.3688   16.6716 H   0  0  0  0  0  0
   40.2779    9.4979   15.0830 H   0  0  0  0  0  0
   38.8029    9.3803   16.0231 H   0  0  0  0  0  0
   40.3032    9.8491   16.8067 H   0  0  0  0  0  0
   40.5847    6.9459   13.3632 H   0  0  0  0  0  0
   37.0786    4.0885   13.3520 H   0  0  0  0  0  0
   35.1052    3.1776   13.5843 H   0  0  0  0  0  0
   34.2499    3.3660   15.0717 H   0  0  0  0  0  0
   36.4224    1.2653   14.6000 H   0  0  0  0  0  0
   33.3958    0.8810   14.6388 H   0  0  0  0  0  0
   34.6055   -0.3760   14.4055 H   0  0  0  0  0  0
   34.4029    0.8752   13.1944 H   0  0  0  0  0  0
   34.5230    1.5465   16.9807 H   0  0  0  0  0  0
   35.5795    0.1673   16.6887 H   0  0  0  0  0  0
   36.2702    1.7405   17.0215 H   0  0  0  0  0  0
  1  2  2  0  0  0
  2  3  1  0  0  0
  2 10  1  0  0  0
  3  4  1  0  0  0
  3  9  1  0  0  0
  3 27  1  0  0  0
  4  5  1  0  0  0
  4 28  1  0  0  0
  4 29  1  0  0  0
  5  6  1  0  0  0
  5 30  1  0  0  0
  5 31  1  0  0  0
  6  7  1  0  0  0
  6  8  1  0  0  0
  7 32  1  0  0  0
  7 33  1  0  0  0
  7 34  1  0  0  0
  8  9  1  0  0  0
  8 35  1  0  0  0
  8 36  1  0  0  0
  9 37  1  0  0  0
  9 38  1  0  0  0
 10 11  1  0  0  0
 10 12  1  0  0  0
 11 19  1  0  0  0
 11 39  1  0  0  0
 11 40  1  0  0  0
 12 13  1  0  0  0
 12 14  1  0  0  0
 12 15  1  0  0  0
 13 41  1  0  0  0
 13 42  1  0  0  0
 13 43  1  0  0  0
 14 44  1  0  0  0
 14 45  1  0  0  0
 14 46  1  0  0  0
 15 16  1  0  0  0
 15 19  2  0  0  0
 16 17  1  0  0  0
 16 47  1  0  0  0
 17 18  2  0  0  0
 18 19  1  0  0  0
 18 20  1  0  0  0
 20 21  1  0  0  0
 20 48  1  0  0  0
 21 22  2  0  0  0
 21 23  1  0  0  0
 23 24  1  0  0  0
 23 49  1  0  0  0
 23 50  1  0  0  0
 24 25  1  0  0  0
 24 26  1  0  0  0
 24 51  1  0  0  0
 25 52  1  0  0  0
 25 53  1  0  0  0
 25 54  1  0  0  0
 26 55  1  0  0  0
 26 56  1  0  0  0
 26 57  1  0  0  0
M  END
> <s_m_entry_id>
7670

> <s_m_entry_name>
dock_pv.231

> <s_m_Source_Path>
/home/csk/Desktop/cluster/DUD-E-result/mapk2

> <s_m_Source_File>
dock_pv.maegz

> <i_m_Source_File_Index>
231

> <chembl_id>
CHEMBL1230607

> <chembl_pref_name>
PHA-793887

> <i_lp_mmshare_version>
53161

> <i_f3d_flags>
0

> <r_lp_tautomer_probability>
0.5

> <s_lp_Force_Field>
OPLS_2005

> <r_lp_Energy>
50.677916

> <b_lp_Chiralities_Consistent>
1

> <s_lp_Variant>
CHEMBL2208_lig355-1

> <s_i_glide_gridfile>
glide-grid_3m2w

> <i_i_glide_lignum>
520

> <i_i_glide_rotatable_bonds>
6

> <r_i_docking_score>
-6.92859196060467

> <r_i_glide_ligand_efficiency>
-0.266484306177103

> <r_i_glide_ligand_efficiency_sa>
-0.789458708484556

> <r_i_glide_ligand_efficiency_ln>
-1.62715708738347

> <r_i_glide_gscore>
-6.92859196060467

> <r_i_glide_lipo>
-2.55821879447703

> <r_i_glide_hbond>
-0.17506788042903

> <r_i_glide_metal>
0

> <r_i_glide_rewards>
-1.91382819198853

> <r_i_glide_evdw>
-43.1495933532715

> <r_i_glide_ecoul>
-4.25355386734009

> <r_i_glide_erotb>
0.514035654054505

> <r_i_glide_esite>
0

> <r_i_glide_emodel>
-62.6978871053173

> <r_i_glide_energy>
-47.4031472206116

> <r_i_glide_einternal>
7.98895502090454

> <i_i_glide_confnum>
15

> <i_i_glide_posenum>
329

> <r_i_glide_eff_state_penalty>
0

> <s_user_duplicate_titles>
CHEMBL2208_lig355

> <s_m_subgroup_title>
dock_pv

> <s_m_subgroupid>
dock_pv

> <b_m_subgroup_collapsed>
1

$$$$
CHEMBL2208_lig1574
                    3D
 Schrodinger Suite 2021-1.
 46 49  0  0  1  0            999 V2000
   32.6652    0.5845   18.3420 O   0  0  0  0  0  0
   33.5849    1.6351   18.7893 S   0  0  0  0  0  0
   35.0355    1.4676   18.6635 O   0  0  0  0  0  0
   33.1632    1.9836   20.4762 N   0  0  0  0  0  0
   36.6400    4.9062   14.8059 C   0  0  0  0  0  0
   37.0971    4.8938   13.4898 C   0  0  0  0  0  0
   38.2584    5.4632   13.0719 N   0  0  0  0  0  0
   37.4083    5.5277   15.7905 C   0  0  0  0  0  0
   38.6300    6.1140   15.4098 C   0  0  0  0  0  0
   38.9807    6.0444   14.0320 C   0  0  0  0  0  0
   40.1843    6.6934   13.8733 N   0  0  0  0  0  0
   40.6010    7.1664   15.0974 C   0  0  0  0  0  0
   39.6941    6.8097   16.0870 C   0  0  0  0  0  0
   39.7906    7.0650   17.5160 C   0  0  0  0  0  0
   39.1824    6.2479   18.3579 N   0  0  0  0  0  0
   39.3259    6.6008   19.6121 C   0  0  0  0  0  0
   40.2778    8.0248   19.8566 S   0  0  0  0  0  0
   40.4738    8.1191   18.1264 C   0  0  0  0  0  0
   38.8096    5.9149   20.7018 N   0  0  0  0  0  0
   37.5746    5.3622   20.7338 C   0  0  0  0  0  0
   37.2607    4.5198   21.9843 C   0  0  0  0  0  0
   36.7351    5.5064   19.8392 O   0  0  0  0  0  0
   35.8034    4.0672   22.1412 C   0  0  0  0  0  0
   35.1766    3.2569   21.1821 C   0  0  0  0  0  0
   33.8503    2.8315   21.3591 C   0  0  0  0  0  0
   33.1598    3.2297   22.5068 C   0  0  0  0  0  0
   33.7773    4.0226   23.4696 C   0  0  0  0  0  0
   35.0982    4.4250   23.2924 C   0  0  0  0  0  0
   33.0843    3.2250   17.9527 C   0  0  0  0  0  0
   32.2672    1.6369   20.7760 H   0  0  0  0  0  0
   35.7011    4.4349   15.0637 H   0  0  0  0  0  0
   36.5180    4.3987   12.7242 H   0  0  0  0  0  0
   37.0711    5.5451   16.8175 H   0  0  0  0  0  0
   40.7032    6.8248   13.0132 H   0  0  0  0  0  0
   41.5315    7.7102   15.1719 H   0  0  0  0  0  0
   41.0387    8.9118   17.6591 H   0  0  0  0  0  0
   39.3864    5.8591   21.5304 H   0  0  0  0  0  0
   37.5813    5.0764   22.8660 H   0  0  0  0  0  0
   37.8778    3.6251   21.9534 H   0  0  0  0  0  0
   35.7482    2.9574   20.3197 H   0  0  0  0  0  0
   32.1404    2.9107   22.6688 H   0  0  0  0  0  0
   33.2374    4.3195   24.3566 H   0  0  0  0  0  0
   35.5628    5.0402   24.0497 H   0  0  0  0  0  0
   33.2100    3.0981   16.8799 H   0  0  0  0  0  0
   33.7300    4.0244   18.3160 H   0  0  0  0  0  0
   32.0438    3.4376   18.1868 H   0  0  0  0  0  0
  1  2  2  0  0  0
  2  3  2  0  0  0
  2  4  1  0  0  0
  2 29  1  0  0  0
  4 25  1  0  0  0
  4 30  1  0  0  0
  5  6  2  0  0  0
  5  8  1  0  0  0
  5 31  1  0  0  0
  6  7  1  0  0  0
  6 32  1  0  0  0
  7 10  2  0  0  0
  8  9  2  0  0  0
  8 33  1  0  0  0
  9 10  1  0  0  0
  9 13  1  0  0  0
 10 11  1  0  0  0
 11 12  1  0  0  0
 11 34  1  0  0  0
 12 13  2  0  0  0
 12 35  1  0  0  0
 13 14  1  0  0  0
 14 15  1  0  0  0
 14 18  2  0  0  0
 15 16  2  0  0  0
 16 17  1  0  0  0
 16 19  1  0  0  0
 17 18  1  0  0  0
 18 36  1  0  0  0
 19 20  1  0  0  0
 19 37  1  0  0  0
 20 21  1  0  0  0
 20 22  2  0  0  0
 21 23  1  0  0  0
 21 38  1  0  0  0
 21 39  1  0  0  0
 23 24  2  0  0  0
 23 28  1  0  0  0
 24 25  1  0  0  0
 24 40  1  0  0  0
 25 26  2  0  0  0
 26 27  1  0  0  0
 26 41  1  0  0  0
 27 28  2  0  0  0
 27 42  1  0  0  0
 28 43  1  0  0  0
 29 44  1  0  0  0
 29 45  1  0  0  0
 29 46  1  0  0  0
M  END
> <s_m_entry_id>
7671

> <s_m_entry_name>
dock_pv.232

> <s_m_Source_Path>
/home/csk/Desktop/cluster/DUD-E-result/mapk2

> <s_m_Source_File>
dock_pv.maegz

> <i_m_Source_File_Index>
232

> <chembl_id>
CHEMBL4249925

> <chembl_pref_name>
None

> <i_lp_mmshare_version>
53161

> <i_f3d_flags>
0

> <r_lp_tautomer_probability>
0.998998924059464

> <s_lp_Force_Field>
OPLS_2005

> <r_lp_Energy>
4.381406

> <b_lp_Chiralities_Consistent>
1

> <s_lp_Variant>
CHEMBL2208_lig1574-1

> <s_i_glide_gridfile>
glide-grid_3m2w

> <i_i_glide_lignum>
2196

> <i_i_glide_rotatable_bonds>
7

> <r_i_docking_score>
-6.92794742347347

> <r_i_glide_ligand_efficiency>
-0.238894738740464

> <r_i_glide_ligand_efficiency_sa>
-0.733960324576333

> <r_i_glide_ligand_efficiency_ln>
-1.58632428238664

> <r_i_glide_gscore>
-6.92794742347347

> <r_i_glide_lipo>
-1.72119034389581

> <r_i_glide_hbond>
-0.470286655753885

> <r_i_glide_metal>
0

> <r_i_glide_rewards>
-1.76249238059347

> <r_i_glide_evdw>
-45.2032508850098

> <r_i_glide_ecoul>
-7.60686206817627

> <r_i_glide_erotb>
0.651861167453952

> <r_i_glide_esite>
-0.224647356207332

> <r_i_glide_emodel>
-72.8413005041961

> <r_i_glide_energy>
-52.810112953186

> <r_i_glide_einternal>
5.06312084197998

> <i_i_glide_confnum>
8

> <i_i_glide_posenum>
188

> <r_i_glide_eff_state_penalty>
0

> <s_user_duplicate_titles>
CHEMBL2208_lig1574

> <s_m_subgroup_title>
dock_pv

> <s_m_subgroupid>
dock_pv

> <b_m_subgroup_collapsed>
1

$$$$
CHEMBL2208_lig304
                    3D
 Schrodinger Suite 2021-1.
 40 42  0  0  1  0            999 V2000
   38.1387    5.4888   14.1745 C   0  0  0  0  0  0
   39.2616    6.0662   13.5931 C   0  0  0  0  0  0
   40.2167    6.7425   14.3391 C   0  0  0  0  0  0
   37.9444    5.5939   15.5580 C   0  0  0  0  0  0
   41.0699    7.6250   16.8621 S   0  0  0  0  0  0
   38.8818    6.2714   16.3610 C   0  0  0  0  0  0
   40.0168    6.8360   15.7194 C   0  0  0  0  0  0
   39.9426    7.3453   18.1816 C   0  0  0  0  0  0
   38.8890    6.5093   17.7772 C   0  0  0  0  0  0
   37.8809    5.9873   18.5620 N   0  0  0  0  0  0
   40.3398    7.9268   19.4673 C   0  0  0  0  0  0
   37.8051    6.0916   20.0094 C   0  0  0  0  0  0
   39.4431    7.9056   20.4674 N   0  0  0  0  0  0
   38.0297    7.5311   20.4858 C   0  0  2  0  0  0
   37.2748    4.8388   13.3189 O   0  0  0  0  0  0
   36.1556    4.1417   13.8597 C   0  0  0  0  0  0
   41.4557    8.4249   19.6355 O   0  0  0  0  0  0
   37.3788    7.8295   21.8543 C   0  0  0  0  0  0
   37.4782    9.2312   22.2720 N   0  0  2  0  0  0
   36.8992   10.2088   21.3579 C   0  0  0  0  0  0
   36.8871   11.6022   21.9980 C   0  0  0  0  0  0
   39.3956    6.0251   12.5243 H   0  0  0  0  0  0
   41.0763    7.1939   13.8612 H   0  0  0  0  0  0
   37.0730    5.1625   16.0226 H   0  0  0  0  0  0
   37.3529    5.2195   18.1699 H   0  0  0  0  0  0
   38.5254    5.4139   20.4718 H   0  0  0  0  0  0
   36.8155    5.7434   20.3075 H   0  0  0  0  0  0
   39.8118    8.2467   21.3415 H   0  0  0  0  0  0
   37.5122    8.1737   19.7834 H   0  0  0  0  0  0
   35.6280    3.6301   13.0557 H   0  0  0  0  0  0
   36.4636    3.3839   14.5800 H   0  0  0  0  0  0
   35.4520    4.8248   14.3367 H   0  0  0  0  0  0
   37.8510    7.2148   22.6203 H   0  0  0  0  0  0
   36.3256    7.5412   21.8539 H   0  0  0  0  0  0
   38.4069    9.4702   22.5942 H   0  0  0  0  0  0
   35.8760    9.9194   21.1055 H   0  0  0  0  0  0
   37.4778   10.2510   20.4363 H   0  0  0  0  0  0
   36.4743   12.3366   21.3052 H   0  0  0  0  0  0
   36.2784   11.6251   22.8987 H   0  0  0  0  0  0
   37.8817   11.9395   22.2786 H   0  0  0  0  0  0
  1 15  1  0  0  0
  1  2  2  0  0  0
  1  4  1  0  0  0
  2  3  1  0  0  0
  2 22  1  0  0  0
  3  7  2  0  0  0
  3 23  1  0  0  0
  4  6  2  0  0  0
  4 24  1  0  0  0
  5  8  1  0  0  0
  5  7  1  0  0  0
  6  7  1  0  0  0
  6  9  1  0  0  0
  8 11  1  0  0  0
  8  9  2  0  0  0
  9 10  1  0  0  0
 10 12  1  0  0  0
 10 25  1  0  0  0
 11 13  1  0  0  0
 11 17  2  0  0  0
 12 14  1  0  0  0
 12 26  1  0  0  0
 12 27  1  0  0  0
 13 14  1  0  0  0
 13 28  1  0  0  0
 14 18  1  0  0  0
 14 29  1  0  0  0
 15 16  1  0  0  0
 16 30  1  0  0  0
 16 31  1  0  0  0
 16 32  1  0  0  0
 18 19  1  0  0  0
 18 33  1  0  0  0
 18 34  1  0  0  0
 19 20  1  0  0  0
 19 35  1  0  0  0
 20 21  1  0  0  0
 20 36  1  0  0  0
 20 37  1  0  0  0
 21 38  1  0  0  0
 21 39  1  0  0  0
 21 40  1  0  0  0
M  END
> <s_m_entry_id>
7672

> <s_m_entry_name>
dock_pv.233

> <s_m_Source_Path>
/home/csk/Desktop/cluster/DUD-E-result/mapk2

> <s_m_Source_File>
dock_pv.maegz

> <i_m_Source_File_Index>
233

> <chembl_id>
CHEMBL550060

> <chembl_pref_name>
None

> <i_lp_mmshare_version>
53161

> <i_f3d_flags>
0

> <r_lp_tautomer_probability>
1

> <s_lp_Force_Field>
OPLS_2005

> <r_lp_Energy>
30.90617

> <b_lp_Chiralities_Consistent>
1

> <s_lp_Variant>
CHEMBL2208_lig304-1

> <s_i_glide_gridfile>
glide-grid_3m2w

> <i_i_glide_lignum>
443

> <i_i_glide_rotatable_bonds>
4

> <r_i_docking_score>
-6.91743594732524

> <r_i_glide_ligand_efficiency>
-0.329401711777392

> <r_i_glide_ligand_efficiency_sa>
-0.908794345441692

> <r_i_glide_ligand_efficiency_ln>
-1.71032205998069

> <r_i_glide_gscore>
-6.91743594732524

> <r_i_glide_lipo>
-2.8833943290211

> <r_i_glide_hbond>
-0.102354484712489

> <r_i_glide_metal>
0

> <r_i_glide_rewards>
-1.46089074654398

> <r_i_glide_evdw>
-39.401252746582

> <r_i_glide_ecoul>
-5.33399391174316

> <r_i_glide_erotb>
0.395778891722579

> <r_i_glide_esite>
-0.0964135546796723

> <r_i_glide_emodel>
-61.7734394962505

> <r_i_glide_energy>
-44.7352466583252

> <r_i_glide_einternal>
3.54143357276917

> <i_i_glide_confnum>
3

> <i_i_glide_posenum>
182

> <r_i_glide_eff_state_penalty>
0

> <s_user_duplicate_titles>
CHEMBL2208_lig304

> <s_m_subgroup_title>
dock_pv

> <s_m_subgroupid>
dock_pv

> <b_m_subgroup_collapsed>
1

$$$$
CHEMBL2208_lig452
                    3D
 Schrodinger Suite 2021-1.
 47 52  0  0  1  0            999 V2000
   37.7806    6.4991   21.0078 C   0  0  0  0  0  0
   36.5354    7.2775   21.3869 C   0  0  0  0  0  0
   35.7795    6.0250   21.4720 N   0  0  1  0  0  0
   37.0431    5.2969   21.5841 C   0  0  0  0  0  0
   39.0779    6.8892   21.7529 C   0  0  0  0  0  0
   33.7658    1.7901   13.0577 C   0  0  0  0  0  0
   33.5728    0.8353   14.0487 C   0  0  0  0  0  0
   34.2933    0.9237   15.2340 C   0  0  0  0  0  0
   35.1971    1.9678   15.4358 C   0  0  0  0  0  0
   35.4013    2.9597   14.4505 C   0  0  0  0  0  0
   34.6781    2.8252   13.2536 C   0  0  0  0  0  0
   36.3561    4.1113   14.6444 C   0  0  0  0  0  0
   36.6511    4.6207   15.9086 C   0  0  0  0  0  0
   37.8715    5.6379   13.6852 C   0  0  0  0  0  0
   36.9456    4.6518   13.5379 N   0  0  0  0  0  0
   38.2444    6.1673   14.9243 C   0  0  0  0  0  0
   37.6070    5.6235   16.0460 C   0  0  0  0  0  0
   40.0760    7.2561   16.4144 C   0  0  0  0  0  0
   39.2444    7.3210   15.0938 C   0  0  0  0  0  0
   39.1859    6.8647   17.5947 C   0  0  0  0  0  0
   38.0437    6.0985   17.3642 C   0  0  0  0  0  0
   37.4273    5.8565   18.5571 N   0  0  0  0  0  0
   39.2113    7.1619   18.9786 C   0  0  0  0  0  0
   38.1317    6.4800   19.5372 C   0  0  0  0  0  0
   39.7376    8.0250   21.0720 N   0  0  0  0  0  0
   40.0796    8.0281   19.7562 C   0  0  0  0  0  0
   40.9397    8.8166   19.3695 O   0  0  0  0  0  0
   35.8783    1.9749   16.6041 F   0  0  0  0  0  0
   36.1630    7.9830   20.6413 H   0  0  0  0  0  0
   36.6338    7.7781   22.3538 H   0  0  0  0  0  0
   35.1408    5.9432   22.2583 H   0  0  0  0  0  0
   37.3240    5.0967   22.6206 H   0  0  0  0  0  0
   37.0948    4.3733   21.0043 H   0  0  0  0  0  0
   38.8776    7.1536   22.7926 H   0  0  0  0  0  0
   39.7677    6.0416   21.7844 H   0  0  0  0  0  0
   33.2145    1.7264   12.1315 H   0  0  0  0  0  0
   32.8676    0.0306   13.8989 H   0  0  0  0  0  0
   34.1502    0.1824   16.0085 H   0  0  0  0  0  0
   34.8095    3.5495   12.4648 H   0  0  0  0  0  0
   36.1638    4.2289   16.7861 H   0  0  0  0  0  0
   38.3064    6.0213   12.7757 H   0  0  0  0  0  0
   40.5496    8.2218   16.5960 H   0  0  0  0  0  0
   40.8889    6.5372   16.3088 H   0  0  0  0  0  0
   39.9122    7.3727   14.2338 H   0  0  0  0  0  0
   38.6792    8.2548   15.0864 H   0  0  0  0  0  0
   36.5855    5.3147   18.6956 H   0  0  0  0  0  0
   40.1477    8.7270   21.6646 H   0  0  0  0  0  0
  1  4  1  0  0  0
  1  2  1  0  0  0
  1 24  1  0  0  0
  1  5  1  0  0  0
  2  3  1  0  0  0
  2 29  1  0  0  0
  2 30  1  0  0  0
  3  4  1  0  0  0
  3 31  1  0  0  0
  4 32  1  0  0  0
  4 33  1  0  0  0
  5 25  1  0  0  0
  5 34  1  0  0  0
  5 35  1  0  0  0
  6 11  1  0  0  0
  6  7  2  0  0  0
  6 36  1  0  0  0
  7  8  1  0  0  0
  7 37  1  0  0  0
  8  9  2  0  0  0
  8 38  1  0  0  0
  9 10  1  0  0  0
  9 28  1  0  0  0
 10 12  1  0  0  0
 10 11  2  0  0  0
 11 39  1  0  0  0
 12 15  1  0  0  0
 12 13  2  0  0  0
 13 17  1  0  0  0
 13 40  1  0  0  0
 14 15  2  0  0  0
 14 16  1  0  0  0
 14 41  1  0  0  0
 16 17  2  0  0  0
 16 19  1  0  0  0
 17 21  1  0  0  0
 18 20  1  0  0  0
 18 19  1  0  0  0
 18 42  1  0  0  0
 18 43  1  0  0  0
 19 44  1  0  0  0
 19 45  1  0  0  0
 20 21  2  0  0  0
 20 23  1  0  0  0
 21 22  1  0  0  0
 22 24  1  0  0  0
 22 46  1  0  0  0
 23 24  2  0  0  0
 23 26  1  0  0  0
 25 26  1  0  0  0
 25 47  1  0  0  0
 26 27  2  0  0  0
M  END
> <s_m_entry_id>
7673

> <s_m_entry_name>
dock_pv.234

> <s_m_Source_Path>
/home/csk/Desktop/cluster/DUD-E-result/mapk2

> <s_m_Source_File>
dock_pv.maegz

> <i_m_Source_File_Index>
234

> <chembl_id>
CHEMBL1801284

> <chembl_pref_name>
None

> <i_lp_mmshare_version>
53161

> <i_f3d_flags>
0

> <r_lp_tautomer_probability>
1

> <s_lp_Force_Field>
OPLS_2005

> <r_lp_Energy>
48.621489

> <b_lp_Chiralities_Consistent>
1

> <s_lp_Variant>
CHEMBL2208_lig452-1

> <s_i_glide_gridfile>
glide-grid_3m2w

> <i_i_glide_lignum>
622

> <i_i_glide_rotatable_bonds>
1

> <r_i_docking_score>
-6.91615699646859

> <r_i_glide_ligand_efficiency>
-0.247005607016735

> <r_i_glide_ligand_efficiency_sa>
-0.750054501425361

> <r_i_glide_ligand_efficiency_ln>
-1.59645210197819

> <r_i_glide_gscore>
-6.91615699646859

> <r_i_glide_lipo>
-2.7344003830146

> <r_i_glide_hbond>
-0.3181386688902

> <r_i_glide_metal>
0

> <r_i_glide_rewards>
-1.02685976111173

> <r_i_glide_evdw>
-39.488525390625

> <r_i_glide_ecoul>
-5.99835014343262

> <r_i_glide_erotb>
0.137931360134794

> <r_i_glide_esite>
-0.100510752540715

> <r_i_glide_emodel>
-63.2711730868168

> <r_i_glide_energy>
-45.4868755340576

> <r_i_glide_einternal>
1.0159969329834

> <i_i_glide_confnum>
3

> <i_i_glide_posenum>
387

> <r_i_glide_eff_state_penalty>
0

> <s_user_duplicate_titles>
CHEMBL2208_lig452

> <s_m_subgroup_title>
dock_pv

> <s_m_subgroupid>
dock_pv

> <b_m_subgroup_collapsed>
1

$$$$
CHEMBL2208_lig1088
                    3D
 Schrodinger Suite 2021-1.
 33 35  0  0  1  0            999 V2000
   37.0782    4.8251   13.1272 O   0  0  0  0  0  0
   39.1908    6.2620   14.1361 N   0  0  0  0  0  0
   35.5282    4.0370   14.4886 N   0  0  0  0  0  0
   35.2213    2.8250   21.2506 N   0  0  0  0  0  0
   38.5898    6.0853   15.3529 C   0  0  0  0  0  0
   37.3470    5.3633   15.4756 C   0  0  0  0  0  0
   39.2044    6.6200   16.5317 C   0  0  0  0  0  0
   37.4107    5.7282   17.9115 C   0  0  0  0  0  0
   36.8001    5.2243   16.7641 C   0  0  0  0  0  0
   38.6077    6.4249   17.7881 C   0  0  0  0  0  0
   36.8182    5.5091   19.2576 C   0  0  0  0  0  0
   36.6459    4.7355   14.2730 C   0  0  0  0  0  0
   40.4196    7.3344   16.4116 C   0  0  0  0  0  0
   36.2824    4.2641   19.6207 C   0  0  0  0  0  0
   36.8050    6.5453   20.2024 C   0  0  0  0  0  0
   40.3511    6.9472   14.0544 C   0  0  0  0  0  0
   40.9861    7.4960   15.1565 C   0  0  0  0  0  0
   35.7510    4.0619   20.8945 C   0  0  0  0  0  0
   36.2784    6.3438   21.4742 C   0  0  0  0  0  0
   35.7491    5.1030   21.8200 C   0  0  0  0  0  0
   35.0177    4.1266   15.3567 H   0  0  0  0  0  0
   35.1053    3.5661   13.7053 H   0  0  0  0  0  0
   35.0050    2.6691   22.2235 H   0  0  0  0  0  0
   35.4454    2.0078   20.6910 H   0  0  0  0  0  0
   35.8782    4.6825   16.9055 H   0  0  0  0  0  0
   39.1046    6.8124   18.6668 H   0  0  0  0  0  0
   40.8993    7.7451   17.2876 H   0  0  0  0  0  0
   36.2880    3.4466   18.9162 H   0  0  0  0  0  0
   37.2060    7.5176   19.9533 H   0  0  0  0  0  0
   40.7832    7.0472   13.0716 H   0  0  0  0  0  0
   41.9162    8.0248   15.0343 H   0  0  0  0  0  0
   36.2809    7.1472   22.1978 H   0  0  0  0  0  0
   35.3418    4.9589   22.8109 H   0  0  0  0  0  0
  1 12  2  0  0  0
  2  5  2  0  0  0
  2 16  1  0  0  0
  3 12  1  0  0  0
  3 21  1  0  0  0
  3 22  1  0  0  0
  4 18  1  0  0  0
  4 23  1  0  0  0
  4 24  1  0  0  0
  5  6  1  0  0  0
  5  7  1  0  0  0
  6  9  2  0  0  0
  6 12  1  0  0  0
  7 10  1  0  0  0
  7 13  2  0  0  0
  8  9  1  0  0  0
  8 10  2  0  0  0
  8 11  1  0  0  0
  9 25  1  0  0  0
 10 26  1  0  0  0
 11 14  1  0  0  0
 11 15  2  0  0  0
 13 17  1  0  0  0
 13 27  1  0  0  0
 14 18  2  0  0  0
 14 28  1  0  0  0
 15 19  1  0  0  0
 15 29  1  0  0  0
 16 17  2  0  0  0
 16 30  1  0  0  0
 17 31  1  0  0  0
 18 20  1  0  0  0
 19 20  2  0  0  0
 19 32  1  0  0  0
 20 33  1  0  0  0
M  END
> <s_m_entry_id>
7674

> <s_m_entry_name>
dock_pv.235

> <s_m_Source_Path>
/home/csk/Desktop/cluster/DUD-E-result/mapk2

> <s_m_Source_File>
dock_pv.maegz

> <i_m_Source_File_Index>
235

> <chembl_id>
CHEMBL1970314

> <chembl_pref_name>
None

> <i_lp_mmshare_version>
53161

> <i_f3d_flags>
0

> <r_lp_tautomer_probability>
1

> <s_lp_Force_Field>
OPLS_2005

> <r_lp_Energy>
23.802917

> <b_lp_Chiralities_Consistent>
1

> <s_lp_Variant>
CHEMBL2208_lig1088-1

> <s_i_glide_gridfile>
glide-grid_3m2w

> <i_i_glide_lignum>
1440

> <i_i_glide_rotatable_bonds>
2

> <r_i_docking_score>
-6.91307371398543

> <r_i_glide_ligand_efficiency>
-0.345653685699271

> <r_i_glide_ligand_efficiency_sa>
-0.938248452766147

> <r_i_glide_ligand_efficiency_ln>
-1.73011434217954

> <r_i_glide_gscore>
-6.91307371398543

> <r_i_glide_lipo>
-2.27769923180063

> <r_i_glide_hbond>
-0.302232266624903

> <r_i_glide_metal>
0

> <r_i_glide_rewards>
-2.02423997460334

> <r_i_glide_evdw>
-31.1386318206787

> <r_i_glide_ecoul>
-6.21359586715698

> <r_i_glide_erotb>
0.256133936522098

> <r_i_glide_esite>
-0.0760652063711676

> <r_i_glide_emodel>
-54.4460453963079

> <r_i_glide_energy>
-37.3522276878357

> <r_i_glide_einternal>
0.368731051683426

> <i_i_glide_confnum>
4

> <i_i_glide_posenum>
182

> <r_i_glide_eff_state_penalty>
0

> <s_user_duplicate_titles>
CHEMBL2208_lig1088

> <s_m_subgroup_title>
dock_pv

> <s_m_subgroupid>
dock_pv

> <b_m_subgroup_collapsed>
1

$$$$
CHEMBL2208_lig1136
                    3D
 Schrodinger Suite 2021-1.
 39 42  0  0  1  0            999 V2000
   37.5636    5.2255   12.4240 O   0  0  0  0  0  0
   38.6799    7.1467   22.2438 N   0  0  0  0  0  0
   39.7969    8.0231   20.2760 N   0  0  0  0  0  0
   36.4678    4.6651   14.2737 N   0  0  0  0  0  0
   38.0780    6.2672   20.2578 C   0  0  0  0  0  0
   37.2516    5.6665   21.2812 C   0  0  0  0  0  0
   38.9217    7.2203   20.8903 C   0  0  0  0  0  0
   39.1201    6.9541   18.1651 C   0  0  0  0  0  0
   38.2078    6.1437   18.8638 C   0  0  0  0  0  0
   36.1900    4.6222   21.1250 C   0  0  0  0  0  0
   39.2954    6.8271   16.6759 C   0  0  0  0  0  0
   37.6932    6.2207   22.4752 C   0  0  0  0  0  0
   39.8632    7.8733   18.9282 C   0  0  0  0  0  0
   38.3266    6.1931   15.8753 C   0  0  0  0  0  0
   38.5004    6.0027   14.4938 C   0  0  0  0  0  0
   40.4393    7.3217   16.0288 C   0  0  0  0  0  0
   35.1325    4.5765   22.0420 C   0  0  0  0  0  0
   36.2004    3.7271   20.0501 C   0  0  0  0  0  0
   39.6606    6.5118   13.8959 C   0  0  0  0  0  0
   40.6073    7.1933   14.6531 C   0  0  0  0  0  0
   37.4781    5.2715   13.6495 C   0  0  0  0  0  0
   34.0798    3.6856   21.8657 C   0  0  0  0  0  0
   35.1518    2.8301   19.8713 C   0  0  0  0  0  0
   34.0899    2.8244   20.7734 C   0  0  0  0  0  0
   39.1739    7.6251   22.9901 H   0  0  0  0  0  0
   36.3754    4.6921   15.2762 H   0  0  0  0  0  0
   35.7996    4.1502   13.7216 H   0  0  0  0  0  0
   37.5975    5.4274   18.3429 H   0  0  0  0  0  0
   37.3854    6.0173   23.4913 H   0  0  0  0  0  0
   40.5616    8.5468   18.4557 H   0  0  0  0  0  0
   37.4186    5.8391   16.3337 H   0  0  0  0  0  0
   41.2213    7.8204   16.5793 H   0  0  0  0  0  0
   35.1134    5.2326   22.8966 H   0  0  0  0  0  0
   37.0279    3.6933   19.3606 H   0  0  0  0  0  0
   39.8323    6.4057   12.8323 H   0  0  0  0  0  0
   41.4779    7.6182   14.1745 H   0  0  0  0  0  0
   33.2655    3.6566   22.5752 H   0  0  0  0  0  0
   35.1674    2.1282   19.0504 H   0  0  0  0  0  0
   33.2844    2.1167   20.6416 H   0  0  0  0  0  0
  1 21  2  0  0  0
  2  7  1  0  0  0
  2 12  1  0  0  0
  2 25  1  0  0  0
  3  7  2  0  0  0
  3 13  1  0  0  0
  4 21  1  0  0  0
  4 26  1  0  0  0
  4 27  1  0  0  0
  5  6  1  0  0  0
  5  7  1  0  0  0
  5  9  2  0  0  0
  6 10  1  0  0  0
  6 12  2  0  0  0
  8  9  1  0  0  0
  8 11  1  0  0  0
  8 13  2  0  0  0
  9 28  1  0  0  0
 10 17  2  0  0  0
 10 18  1  0  0  0
 11 14  2  0  0  0
 11 16  1  0  0  0
 12 29  1  0  0  0
 13 30  1  0  0  0
 14 15  1  0  0  0
 14 31  1  0  0  0
 15 19  2  0  0  0
 15 21  1  0  0  0
 16 20  2  0  0  0
 16 32  1  0  0  0
 17 22  1  0  0  0
 17 33  1  0  0  0
 18 23  2  0  0  0
 18 34  1  0  0  0
 19 20  1  0  0  0
 19 35  1  0  0  0
 20 36  1  0  0  0
 22 24  2  0  0  0
 22 37  1  0  0  0
 23 24  1  0  0  0
 23 38  1  0  0  0
 24 39  1  0  0  0
M  END
> <s_m_entry_id>
7675

> <s_m_entry_name>
dock_pv.236

> <s_m_Source_Path>
/home/csk/Desktop/cluster/DUD-E-result/mapk2

> <s_m_Source_File>
dock_pv.maegz

> <i_m_Source_File_Index>
236

> <chembl_id>
CHEMBL1982957

> <chembl_pref_name>
None

> <i_lp_mmshare_version>
53161

> <i_f3d_flags>
0

> <r_lp_tautomer_probability>
0.999998432528457

> <s_lp_Force_Field>
OPLS_2005

> <r_lp_Energy>
18.17457

> <b_lp_Chiralities_Consistent>
1

> <s_lp_Variant>
CHEMBL2208_lig1136-1

> <s_i_glide_gridfile>
glide-grid_3m2w

> <i_i_glide_lignum>
1518

> <i_i_glide_rotatable_bonds>
3

> <r_i_docking_score>
-6.90887479350891

> <r_i_glide_ligand_efficiency>
-0.287869783062871

> <r_i_glide_ligand_efficiency_sa>
-0.830360140974183

> <r_i_glide_ligand_efficiency_ln>
-1.65361076569316

> <r_i_glide_gscore>
-6.90887479350891

> <r_i_glide_lipo>
-2.08851795865948

> <r_i_glide_hbond>
-0.406681920770453

> <r_i_glide_metal>
0

> <r_i_glide_rewards>
-1.68650542938911

> <r_i_glide_evdw>
-41.0869445800781

> <r_i_glide_ecoul>
-6.23465156555176

> <r_i_glide_erotb>
0.378305019552556

> <r_i_glide_esite>
-0.115929540405756

> <r_i_glide_emodel>
-67.109552274232

> <r_i_glide_energy>
-47.3215961456299

> <r_i_glide_einternal>
1.54613304138184

> <i_i_glide_confnum>
10

> <i_i_glide_posenum>
359

> <r_i_glide_eff_state_penalty>
0

> <s_user_duplicate_titles>
CHEMBL2208_lig1136

> <s_m_subgroup_title>
dock_pv

> <s_m_subgroupid>
dock_pv

> <b_m_subgroup_collapsed>
1

$$$$
CHEMBL2208_lig708
                    3D
 Schrodinger Suite 2021-1.
 51 55  0  0  1  0            999 V2000
   34.6136    0.9905   16.8812 C   0  0  0  0  0  0
   42.6779    9.2250   18.9482 N   0  0  0  0  0  0
   38.7107    6.4950   16.5125 C   0  0  0  0  0  0
   37.5843    5.6143   23.5923 C   0  0  0  0  0  0
   35.9870    3.4382   19.1195 C   0  0  0  0  0  0
   36.5358    2.8655   20.2720 C   0  0  0  0  0  0
   37.1698    5.4956   14.5636 C   0  0  0  0  0  0
   37.0655    5.0741   21.1649 C   0  0  0  0  0  0
   39.2567    7.6149   15.8826 C   0  0  0  0  0  0
   36.4202    5.6449   20.0569 C   0  0  0  0  0  0
   40.7078    7.9693   17.7834 C   0  0  0  0  0  0
   35.6161    2.8250   16.6480 C   0  0  0  0  0  0
   34.8869    1.4291   18.1615 C   0  0  0  0  0  0
   37.0780    4.7427   16.6452 O   0  0  0  0  0  0
   36.2827    4.4097   14.6141 C   0  0  0  0  0  0
   36.2780    7.3620   19.8720 Cl  0  0  0  0  0  0
   37.6694    5.8529   22.1453 N   0  0  0  0  0  0
   35.0538    1.8415   15.9777 N   0  0  0  0  0  0
   40.1486    6.8676   18.4246 C   0  0  0  0  0  0
   37.0429    3.6822   21.2873 C   0  0  0  0  0  0
   41.8034    8.6736   18.4289 C   0  0  0  0  0  0
   36.2663    3.9473   15.9255 C   0  0  0  0  0  0
   37.6820    5.6468   15.8448 C   0  0  0  0  0  0
   35.5319    2.6374   18.0346 N   0  0  0  0  0  0
   39.1571    6.1347   17.7903 C   0  0  0  0  0  0
   40.2502    8.3554   16.5212 C   0  0  0  0  0  0
   38.2166    8.2288   22.5655 C   0  0  0  0  0  0
   38.2780    8.0423   24.0043 N   0  0  0  0  0  0
   35.8780    4.8247   19.0658 C   0  0  0  0  0  0
   38.6296    6.9226   21.8615 C   0  0  0  0  0  0
   37.4780    6.9002   24.4579 C   0  0  0  0  0  0
   34.1036    0.0781   16.6089 H   0  0  0  0  0  0
   36.7365    4.9623   23.8064 H   0  0  0  0  0  0
   38.4725    5.0567   23.8934 H   0  0  0  0  0  0
   36.6039    1.7914   20.3841 H   0  0  0  0  0  0
   37.4371    6.0705   13.6898 H   0  0  0  0  0  0
   38.9237    7.9047   14.8969 H   0  0  0  0  0  0
   34.6794    1.0047   19.1353 H   0  0  0  0  0  0
   35.7319    3.9872   13.7867 H   0  0  0  0  0  0
   40.4973    6.5431   19.3970 H   0  0  0  0  0  0
   37.4782    3.2251   22.1621 H   0  0  0  0  0  0
   38.7610    5.2670   18.2982 H   0  0  0  0  0  0
   40.6763    9.2099   16.0169 H   0  0  0  0  0  0
   38.9027    9.0265   22.2815 H   0  0  0  0  0  0
   37.2086    8.5278   22.2744 H   0  0  0  0  0  0
   39.2758    7.9323   24.2720 H   0  0  0  0  0  0
   35.3938    5.2530   18.2065 H   0  0  0  0  0  0
   39.6230    6.5943   22.1719 H   0  0  0  0  0  0
   38.7207    7.0918   20.7911 H   0  0  0  0  0  0
   37.7702    6.6632   25.4813 H   0  0  0  0  0  0
   36.4326    7.2008   24.4807 H   0  0  0  0  0  0
  1 13  2  0  0  0
  1 18  1  0  0  0
  1 32  1  0  0  0
  2 21  3  0  0  0
  3 23  1  0  0  0
  3  9  1  0  0  0
  3 25  2  0  0  0
  4 31  1  0  0  0
  4 17  1  0  0  0
  4 33  1  0  0  0
  4 34  1  0  0  0
  5 29  1  0  0  0
  5  6  2  0  0  0
  5 24  1  0  0  0
  6 20  1  0  0  0
  6 35  1  0  0  0
  7 23  2  0  0  0
  7 15  1  0  0  0
  7 36  1  0  0  0
  8 17  1  0  0  0
  8 10  1  0  0  0
  8 20  2  0  0  0
  9 26  2  0  0  0
  9 37  1  0  0  0
 10 16  1  0  0  0
 10 29  2  0  0  0
 11 21  1  0  0  0
 11 26  1  0  0  0
 11 19  2  0  0  0
 12 18  2  0  0  0
 12 24  1  0  0  0
 12 22  1  0  0  0
 13 24  1  0  0  0
 13 38  1  0  0  0
 14 22  1  0  0  0
 14 23  1  0  0  0
 15 22  2  0  0  0
 15 39  1  0  0  0
 17 30  1  0  0  0
 19 25  1  0  0  0
 19 40  1  0  0  0
 20 41  1  0  0  0
 25 42  1  0  0  0
 26 43  1  0  0  0
 27 30  1  0  0  0
 27 28  1  0  0  0
 27 44  1  0  0  0
 27 45  1  0  0  0
 28 31  1  0  0  0
 28 46  1  0  0  0
 29 47  1  0  0  0
 30 48  1  0  0  0
 30 49  1  0  0  0
 31 50  1  0  0  0
 31 51  1  0  0  0
M  END
> <s_m_entry_id>
7676

> <s_m_entry_name>
dock_pv.237

> <s_m_Source_Path>
/home/csk/Desktop/cluster/DUD-E-result/mapk2

> <s_m_Source_File>
dock_pv.maegz

> <i_m_Source_File_Index>
237

> <chembl_id>
CHEMBL3314153

> <chembl_pref_name>
None

> <i_lp_mmshare_version>
53161

> <i_f3d_flags>
0

> <r_lp_tautomer_probability>
1

> <s_lp_Force_Field>
OPLS_2005

> <r_lp_Energy>
43.28544

> <b_lp_Chiralities_Consistent>
1

> <s_lp_Variant>
CHEMBL2208_lig708-1

> <s_i_glide_gridfile>
glide-grid_3m2w

> <i_i_glide_lignum>
920

> <i_i_glide_rotatable_bonds>
4

> <r_i_docking_score>
-6.90236598514119

> <r_i_glide_ligand_efficiency>
-0.222656967262619

> <r_i_glide_ligand_efficiency_sa>
-0.699450288278301

> <r_i_glide_ligand_efficiency_ln>
-1.55669506176274

> <r_i_glide_gscore>
-6.90236598514119

> <r_i_glide_lipo>
-2.15035274836886

> <r_i_glide_hbond>
-0.345947917996039

> <r_i_glide_metal>
0

> <r_i_glide_rewards>
-1.17163070280339

> <r_i_glide_evdw>
-35.4420967102051

> <r_i_glide_ecoul>
-12.4295635223389

> <r_i_glide_erotb>
0.430192183716305

> <r_i_glide_esite>
-0.0280874358281285

> <r_i_glide_emodel>
-65.6080174419153

> <r_i_glide_energy>
-47.8716602325439

> <r_i_glide_einternal>
2.79686903953552

> <i_i_glide_confnum>
163

> <i_i_glide_posenum>
226

> <r_i_glide_eff_state_penalty>
0

> <s_user_duplicate_titles>
CHEMBL2208_lig708

> <s_m_subgroup_title>
dock_pv

> <s_m_subgroupid>
dock_pv

> <b_m_subgroup_collapsed>
1

$$$$
CHEMBL2208_lig150
                    3D
 Schrodinger Suite 2021-1.
 41 44  0  0  1  0            999 V2000
   35.2698    3.1013   14.3576 C   0  0  0  0  0  0
   34.7784    2.8251   13.0727 C   0  0  0  0  0  0
   33.7204    1.9309   12.8997 C   0  0  0  0  0  0
   33.1765    1.2684   13.9983 C   0  0  0  0  0  0
   33.6807    1.5103   15.2745 C   0  0  0  0  0  0
   34.7185    2.4249   15.4520 C   0  0  0  0  0  0
   38.2998    6.6344   19.3454 C   0  0  2  0  0  0
   39.1803    6.1952   13.9683 C   0  0  0  0  0  0
   38.0819    5.6439   14.6453 C   0  0  0  0  0  0
   37.9406    5.8629   16.0255 C   0  0  0  0  0  0
   40.1457    6.9735   14.6055 C   0  0  0  0  0  0
   39.9869    7.1706   15.9782 C   0  0  0  0  0  0
   38.9012    6.6102   16.7081 C   0  0  0  0  0  0
   40.7426    7.8743   16.8880 N   0  0  0  0  0  0
   40.1901    7.7914   18.1429 C   0  0  0  0  0  0
   39.0772    6.9710   18.0808 C   0  0  0  0  0  0
   38.4857    7.8473   20.3036 C   0  0  0  0  0  0
   39.9138    8.2241   20.3986 N   0  0  0  0  0  0
   40.7559    8.3500   19.3398 C   0  0  0  0  0  0
   41.8780    8.8252   19.4719 O   0  0  0  0  0  0
   38.7569    5.3061   19.9767 C   0  0  0  0  0  0
   37.0779    4.8075   13.8846 C   0  0  0  0  0  0
   36.2787    4.0343   14.6629 N   0  0  0  0  0  0
   37.0780    4.8250   12.6524 O   0  0  0  0  0  0
   33.0759    1.6502   11.3251 Cl  0  0  0  0  0  0
   35.1861    3.3251   12.2080 H   0  0  0  0  0  0
   32.3597    0.5745   13.8619 H   0  0  0  0  0  0
   33.2584    1.0027   16.1294 H   0  0  0  0  0  0
   35.0759    2.6158   16.4541 H   0  0  0  0  0  0
   37.2371    6.5521   19.1118 H   0  0  0  0  0  0
   39.2991    6.0265   12.9062 H   0  0  0  0  0  0
   37.1099    5.4652   16.5894 H   0  0  0  0  0  0
   40.9736    7.3961   14.0536 H   0  0  0  0  0  0
   41.5855    8.4016   16.7064 H   0  0  0  0  0  0
   38.1031    7.6191   21.2999 H   0  0  0  0  0  0
   37.9207    8.7093   19.9454 H   0  0  0  0  0  0
   40.3263    8.2548   21.3197 H   0  0  0  0  0  0
   38.5813    4.4643   19.3091 H   0  0  0  0  0  0
   39.8213    5.3201   20.2197 H   0  0  0  0  0  0
   38.2186    5.1026   20.9032 H   0  0  0  0  0  0
   36.4434    4.1241   15.6510 H   0  0  0  0  0  0
  1  6  1  0  0  0
  1  2  2  0  0  0
  1 23  1  0  0  0
  2  3  1  0  0  0
  2 26  1  0  0  0
  3  4  2  0  0  0
  3 25  1  0  0  0
  4  5  1  0  0  0
  4 27  1  0  0  0
  5  6  2  0  0  0
  5 28  1  0  0  0
  6 29  1  0  0  0
  7 16  1  0  0  0
  7 17  1  0  0  0
  7 21  1  0  0  0
  7 30  1  0  0  0
  8  9  2  0  0  0
  8 11  1  0  0  0
  8 31  1  0  0  0
  9 10  1  0  0  0
  9 22  1  0  0  0
 10 13  2  0  0  0
 10 32  1  0  0  0
 11 12  2  0  0  0
 11 33  1  0  0  0
 12 14  1  0  0  0
 12 13  1  0  0  0
 13 16  1  0  0  0
 14 15  1  0  0  0
 14 34  1  0  0  0
 15 16  2  0  0  0
 15 19  1  0  0  0
 17 18  1  0  0  0
 17 35  1  0  0  0
 17 36  1  0  0  0
 18 19  1  0  0  0
 18 37  1  0  0  0
 19 20  2  0  0  0
 21 38  1  0  0  0
 21 39  1  0  0  0
 21 40  1  0  0  0
 22 23  1  0  0  0
 22 24  2  0  0  0
 23 41  1  0  0  0
M  END
> <s_m_entry_id>
7678

> <s_m_entry_name>
dock_pv.239

> <s_m_Source_Path>
/home/csk/Desktop/cluster/DUD-E-result/mapk2

> <s_m_Source_File>
dock_pv.maegz

> <i_m_Source_File_Index>
239

> <chembl_id>
CHEMBL395592

> <chembl_pref_name>
None

> <i_lp_mmshare_version>
53161

> <i_f3d_flags>
0

> <r_lp_tautomer_probability>
1

> <s_lp_Force_Field>
OPLS_2005

> <r_lp_Energy>
31.709159

> <b_lp_Chiralities_Consistent>
1

> <s_lp_Variant>
CHEMBL2208_lig150-1

> <s_i_glide_gridfile>
glide-grid_3m2w

> <i_i_glide_lignum>
221

> <i_i_glide_rotatable_bonds>
3

> <r_i_docking_score>
-6.88711859804455

> <r_i_glide_ligand_efficiency>
-0.275484743921782

> <r_i_glide_ligand_efficiency_sa>
-0.805522276970027

> <r_i_glide_ligand_efficiency_ln>
-1.63245349802627

> <r_i_glide_gscore>
-6.88711859804455

> <r_i_glide_lipo>
-2.74317422679796

> <r_i_glide_hbond>
-0.301692781442545

> <r_i_glide_metal>
0

> <r_i_glide_rewards>
-1.19832041922113

> <r_i_glide_evdw>
-40.8344230651855

> <r_i_glide_ecoul>
-6.30423736572266

> <r_i_glide_erotb>
0.457784180665815

> <r_i_glide_esite>
-0.114358593131058

> <r_i_glide_emodel>
-65.5728882705316

> <r_i_glide_energy>
-47.1386604309082

> <r_i_glide_einternal>
0.242899775505066

> <i_i_glide_confnum>
1

> <i_i_glide_posenum>
22

> <r_i_glide_eff_state_penalty>
0

> <s_user_duplicate_titles>
CHEMBL2208_lig150

> <s_m_subgroup_title>
dock_pv

> <s_m_subgroupid>
dock_pv

> <b_m_subgroup_collapsed>
1

$$$$
CHEMBL2208_lig834
                    3D
 Schrodinger Suite 2021-1.
 53 57  0  0  1  0            999 V2000
   37.7621    6.1218   20.7278 C   0  0  2  0  0  0
   36.2454    5.7852   20.7685 C   0  0  0  0  0  0
   35.8160    5.2248   22.1320 C   0  0  0  0  0  0
   36.6771    4.0307   22.5584 C   0  0  0  0  0  0
   38.0800    4.4250   22.5621 N   0  0  2  0  0  0
   38.5486    4.8874   21.2542 C   0  0  0  0  0  0
   38.1067    7.4124   21.5546 C   0  0  0  0  0  0
   39.4775    7.9129   21.2667 N   0  0  0  0  0  0
   40.0330    8.0250   20.0309 C   0  0  0  0  0  0
   41.1277    8.5593   19.8721 O   0  0  0  0  0  0
   38.2229    6.4656   19.3260 C   0  0  0  0  0  0
   39.2483    7.3525   19.0337 C   0  0  0  0  0  0
   39.4204    7.3009   17.6438 C   0  0  0  0  0  0
   38.4688    6.4451   17.0969 C   0  0  0  0  0  0
   37.7562    5.9452   18.1555 N   0  0  0  0  0  0
   38.2017    6.0379   15.7004 C   0  0  0  0  0  0
   39.0669    6.4123   14.6703 C   0  0  0  0  0  0
   38.7784    5.9896   13.3772 C   0  0  0  0  0  0
   37.6975    5.2250   13.0730 N   0  0  0  0  0  0
   36.8824    4.8254   14.0877 C   0  0  0  0  0  0
   37.0855    5.2515   15.4023 C   0  0  0  0  0  0
   35.8779    3.9091   13.7342 N   0  0  0  0  0  0
   35.2937    2.9555   14.5034 C   0  0  0  0  0  0
   34.4356    1.9456   13.7692 C   0  0  0  0  0  0
   35.4787    2.8233   15.7142 O   0  0  0  0  0  0
   32.9068    0.0141   12.4082 C   0  0  0  0  0  0
   33.0326    1.2982   11.8846 C   0  0  0  0  0  0
   33.7941    2.2533   12.5569 C   0  0  0  0  0  0
   33.5357   -0.3132   13.6062 C   0  0  0  0  0  0
   34.2854    0.6482   14.2865 C   0  0  0  0  0  0
   33.4288   -1.5675   14.0990 F   0  0  0  0  0  0
   35.6476    6.6635   20.5241 H   0  0  0  0  0  0
   36.0111    5.0241   20.0228 H   0  0  0  0  0  0
   35.8785    5.9955   22.9002 H   0  0  0  0  0  0
   34.7678    4.9261   22.0966 H   0  0  0  0  0  0
   36.3947    3.6926   23.5564 H   0  0  0  0  0  0
   36.5422    3.1882   21.8758 H   0  0  0  0  0  0
   38.6660    3.6528   22.8571 H   0  0  0  0  0  0
   38.4751    4.0590   20.5469 H   0  0  0  0  0  0
   39.6126    5.1198   21.3310 H   0  0  0  0  0  0
   38.0217    7.2218   22.6264 H   0  0  0  0  0  0
   37.3984    8.2126   21.3316 H   0  0  0  0  0  0
   40.0873    8.0522   22.0612 H   0  0  0  0  0  0
   40.1733    7.8453   17.0921 H   0  0  0  0  0  0
   37.0159    5.2628   18.0833 H   0  0  0  0  0  0
   39.9438    7.0122   14.8638 H   0  0  0  0  0  0
   39.4301    6.2642   12.5593 H   0  0  0  0  0  0
   36.4022    4.9605   16.1845 H   0  0  0  0  0  0
   35.7254    3.8284   12.7424 H   0  0  0  0  0  0
   32.3296   -0.7306   11.8816 H   0  0  0  0  0  0
   32.5513    1.5492   10.9508 H   0  0  0  0  0  0
   33.8858    3.2263   12.1045 H   0  0  0  0  0  0
   34.7638    0.3701   15.2155 H   0  0  0  0  0  0
  1  6  1  0  0  0
  1 11  1  0  0  0
  1  7  1  0  0  0
  1  2  1  0  0  0
  2  3  1  0  0  0
  2 32  1  0  0  0
  2 33  1  0  0  0
  3  4  1  0  0  0
  3 34  1  0  0  0
  3 35  1  0  0  0
  4  5  1  0  0  0
  4 36  1  0  0  0
  4 37  1  0  0  0
  5  6  1  0  0  0
  5 38  1  0  0  0
  6 39  1  0  0  0
  6 40  1  0  0  0
  7  8  1  0  0  0
  7 41  1  0  0  0
  7 42  1  0  0  0
  8  9  1  0  0  0
  8 43  1  0  0  0
  9 12  1  0  0  0
  9 10  2  0  0  0
 11 15  1  0  0  0
 11 12  2  0  0  0
 12 13  1  0  0  0
 13 14  2  0  0  0
 13 44  1  0  0  0
 14 15  1  0  0  0
 14 16  1  0  0  0
 15 45  1  0  0  0
 16 17  2  0  0  0
 16 21  1  0  0  0
 17 18  1  0  0  0
 17 46  1  0  0  0
 18 19  2  0  0  0
 18 47  1  0  0  0
 19 20  1  0  0  0
 20 21  2  0  0  0
 20 22  1  0  0  0
 21 48  1  0  0  0
 22 23  1  0  0  0
 22 49  1  0  0  0
 23 24  1  0  0  0
 23 25  2  0  0  0
 24 30  2  0  0  0
 24 28  1  0  0  0
 26 29  2  0  0  0
 26 27  1  0  0  0
 26 50  1  0  0  0
 27 28  2  0  0  0
 27 51  1  0  0  0
 28 52  1  0  0  0
 29 30  1  0  0  0
 29 31  1  0  0  0
 30 53  1  0  0  0
M  END
> <s_m_entry_id>
7679

> <s_m_entry_name>
dock_pv.240

> <s_m_Source_Path>
/home/csk/Desktop/cluster/DUD-E-result/mapk2

> <s_m_Source_File>
dock_pv.maegz

> <i_m_Source_File_Index>
240

> <chembl_id>
CHEMBL1933182

> <chembl_pref_name>
None

> <i_lp_mmshare_version>
53161

> <i_f3d_flags>
0

> <r_lp_tautomer_probability>
1

> <s_lp_Force_Field>
OPLS_2005

> <r_lp_Energy>
41.778309

> <b_lp_Chiralities_Consistent>
1

> <s_lp_Variant>
CHEMBL2208_lig834-2

> <s_i_glide_gridfile>
glide-grid_3m2w

> <i_i_glide_lignum>
1067

> <i_i_glide_rotatable_bonds>
4

> <r_i_docking_score>
-6.88599554429847

> <r_i_glide_ligand_efficiency>
-0.222128888525757

> <r_i_glide_ligand_efficiency_sa>
-0.697791391953282

> <r_i_glide_ligand_efficiency_ln>
-1.55300302565894

> <r_i_glide_gscore>
-6.88599554429847

> <r_i_glide_lipo>
-2.47577382433028

> <r_i_glide_hbond>
-0.415658175252571

> <r_i_glide_metal>
0

> <r_i_glide_rewards>
-0.963105781197757

> <r_i_glide_evdw>
-45.4558944702148

> <r_i_glide_ecoul>
-7.03785085678101

> <r_i_glide_erotb>
0.449779182741914

> <r_i_glide_esite>
-0.152764594231885

> <r_i_glide_emodel>
-71.6086919394145

> <r_i_glide_energy>
-52.4937453269958

> <r_i_glide_einternal>
5.92065334320068

> <i_i_glide_confnum>
69

> <i_i_glide_posenum>
64

> <r_i_glide_eff_state_penalty>
0

> <s_user_duplicate_titles>
CHEMBL2208_lig834

> <s_m_subgroup_title>
dock_pv

> <s_m_subgroupid>
dock_pv

> <b_m_subgroup_collapsed>
1

$$$$
CHEMBL2208_lig151
                    3D
 Schrodinger Suite 2021-1.
 41 44  0  0  1  0            999 V2000
   35.3273    3.2862   13.9156 C   0  0  0  0  0  0
   34.6502    2.4886   14.8512 C   0  0  0  0  0  0
   33.5903    1.6763   14.4494 C   0  0  0  0  0  0
   33.1972    1.6490   13.1118 C   0  0  0  0  0  0
   33.8777    2.4250   12.1745 C   0  0  0  0  0  0
   34.9530    3.2239   12.5663 C   0  0  0  0  0  0
   38.2567    6.0986   19.4028 C   0  0  1  0  0  0
   39.2766    6.3519   14.0459 C   0  0  0  0  0  0
   38.2058    5.6566   14.6303 C   0  0  0  0  0  0
   38.0274    5.7026   16.0208 C   0  0  0  0  0  0
   40.1755    7.1127   14.7887 C   0  0  0  0  0  0
   39.9814    7.1371   16.1694 C   0  0  0  0  0  0
   38.9236    6.4258   16.8043 C   0  0  0  0  0  0
   40.6697    7.7827   17.1677 N   0  0  0  0  0  0
   40.1224    7.4867   18.3916 C   0  0  0  0  0  0
   39.0474    6.6307   18.2105 C   0  0  0  0  0  0
   39.1886    6.2088   20.6430 C   0  0  0  0  0  0
   39.8444    7.5357   20.6721 N   0  0  0  0  0  0
   40.5879    8.0053   19.6459 C   0  0  0  0  0  0
   41.4780    8.8250   19.8277 O   0  0  0  0  0  0
   36.9202    6.8245   19.6261 C   0  0  0  0  0  0
   37.2613    4.8711   13.7537 C   0  0  0  0  0  0
   36.3443    4.1185   14.4065 N   0  0  0  0  0  0
   37.3829    4.9399   12.5292 O   0  0  0  0  0  0
   35.0148    2.4933   16.1568 F   0  0  0  0  0  0
   33.0712    1.0738   15.1809 H   0  0  0  0  0  0
   32.3723    1.0237   12.8027 H   0  0  0  0  0  0
   33.5863    2.3910   11.1354 H   0  0  0  0  0  0
   35.4665    3.7836   11.8007 H   0  0  0  0  0  0
   38.0353    5.0399   19.2503 H   0  0  0  0  0  0
   39.4220    6.3203   12.9754 H   0  0  0  0  0  0
   37.2216    5.1869   16.5193 H   0  0  0  0  0  0
   40.9816    7.6514   14.3100 H   0  0  0  0  0  0
   41.4645    8.3968   17.0672 H   0  0  0  0  0  0
   39.9542    5.4313   20.6183 H   0  0  0  0  0  0
   38.6359    6.0549   21.5711 H   0  0  0  0  0  0
   39.9847    7.9578   21.5790 H   0  0  0  0  0  0
   36.2782    6.7705   18.7453 H   0  0  0  0  0  0
   36.3692    6.3789   20.4560 H   0  0  0  0  0  0
   37.0707    7.8760   19.8714 H   0  0  0  0  0  0
   36.3987    4.1243   15.4120 H   0  0  0  0  0  0
  1  6  1  0  0  0
  1  2  2  0  0  0
  1 23  1  0  0  0
  2  3  1  0  0  0
  2 25  1  0  0  0
  3  4  2  0  0  0
  3 26  1  0  0  0
  4  5  1  0  0  0
  4 27  1  0  0  0
  5  6  2  0  0  0
  5 28  1  0  0  0
  6 29  1  0  0  0
  7 16  1  0  0  0
  7 17  1  0  0  0
  7 21  1  0  0  0
  7 30  1  0  0  0
  8  9  2  0  0  0
  8 11  1  0  0  0
  8 31  1  0  0  0
  9 10  1  0  0  0
  9 22  1  0  0  0
 10 13  2  0  0  0
 10 32  1  0  0  0
 11 12  2  0  0  0
 11 33  1  0  0  0
 12 14  1  0  0  0
 12 13  1  0  0  0
 13 16  1  0  0  0
 14 15  1  0  0  0
 14 34  1  0  0  0
 15 16  2  0  0  0
 15 19  1  0  0  0
 17 18  1  0  0  0
 17 35  1  0  0  0
 17 36  1  0  0  0
 18 19  1  0  0  0
 18 37  1  0  0  0
 19 20  2  0  0  0
 21 38  1  0  0  0
 21 39  1  0  0  0
 21 40  1  0  0  0
 22 23  1  0  0  0
 22 24  2  0  0  0
 23 41  1  0  0  0
M  END
> <s_m_entry_id>
7680

> <s_m_entry_name>
dock_pv.241

> <s_m_Source_Path>
/home/csk/Desktop/cluster/DUD-E-result/mapk2

> <s_m_Source_File>
dock_pv.maegz

> <i_m_Source_File_Index>
241

> <chembl_id>
CHEMBL394262

> <chembl_pref_name>
None

> <i_lp_mmshare_version>
53161

> <i_f3d_flags>
0

> <r_lp_tautomer_probability>
1

> <s_lp_Force_Field>
OPLS_2005

> <r_lp_Energy>
30.085345

> <b_lp_Chiralities_Consistent>
1

> <s_lp_Variant>
CHEMBL2208_lig151-2

> <s_i_glide_gridfile>
glide-grid_3m2w

> <i_i_glide_lignum>
224

> <i_i_glide_rotatable_bonds>
3

> <r_i_docking_score>
-6.88235036455023

> <r_i_glide_ligand_efficiency>
-0.275294014582009

> <r_i_glide_ligand_efficiency_sa>
-0.804964580997933

> <r_i_glide_ligand_efficiency_ln>
-1.63132328379569

> <r_i_glide_gscore>
-6.88235036455023

> <r_i_glide_lipo>
-2.65514224626239

> <r_i_glide_hbond>
-0.470133340561438

> <r_i_glide_metal>
0

> <r_i_glide_rewards>
-1.2787818858494

> <r_i_glide_evdw>
-32.3602256774902

> <r_i_glide_ecoul>
-8.28887844085693

> <r_i_glide_erotb>
0.498176077279357

> <r_i_glide_esite>
-0.115125919153312

> <r_i_glide_emodel>
-58.291193277954

> <r_i_glide_energy>
-40.6491041183472

> <r_i_glide_einternal>
0.17478246986866

> <i_i_glide_confnum>
1

> <i_i_glide_posenum>
20

> <r_i_glide_eff_state_penalty>
0

> <s_user_duplicate_titles>
CHEMBL2208_lig151

> <s_m_subgroup_title>
dock_pv

> <s_m_subgroupid>
dock_pv

> <b_m_subgroup_collapsed>
1

$$$$
CHEMBL2208_lig201
                    3D
 Schrodinger Suite 2021-1.
 43 46  0  0  1  0            999 V2000
   38.9126    6.4435   14.0949 C   0  0  0  0  0  0
   38.0198    5.6343   14.8057 C   0  0  0  0  0  0
   38.0414    5.6283   16.2149 C   0  0  0  0  0  0
   39.7585    7.3409   14.7261 C   0  0  0  0  0  0
   37.0448    4.7878   14.0202 C   0  0  0  0  0  0
   37.0780    4.8250   12.7877 O   0  0  0  0  0  0
   36.2030    4.0266   14.7599 N   0  0  0  0  0  0
   35.2052    3.1075   14.3865 C   0  0  0  0  0  0
   39.7511    7.3928   16.1189 C   0  0  0  0  0  0
   38.9285    6.4980   16.8580 C   0  0  0  0  0  0
   40.4289    8.1979   17.0589 C   0  0  0  0  0  0
   39.2472    6.6691   18.2006 N   0  0  0  0  0  0
   40.1175    7.7455   18.3233 C   0  0  0  0  0  0
   40.6783    8.2642   19.5445 C   0  0  0  0  0  0
   38.8780    5.7617   19.2954 C   0  0  0  0  0  0
   39.9338    8.1481   20.6682 N   0  0  0  0  0  0
   38.0882    6.4136   20.4531 C   0  0  1  0  0  0
   38.5028    7.8648   20.7795 C   0  0  0  0  0  0
   34.8010    2.8251   13.0726 C   0  0  0  0  0  0
   33.7703    1.9119   12.8434 C   0  0  0  0  0  0
   33.1824    1.2814   13.9392 C   0  0  0  0  0  0
   33.5634    1.5222   15.2174 N   0  0  0  0  0  0
   34.5554    2.4249   15.4220 C   0  0  0  0  0  0
   41.7731    8.8249   19.4936 O   0  0  0  0  0  0
   36.5718    6.3298   20.2245 C   0  0  0  0  0  0
   38.9313    6.4236   13.0151 H   0  0  0  0  0  0
   37.4014    4.9863   16.8004 H   0  0  0  0  0  0
   40.4026    7.9909   14.1510 H   0  0  0  0  0  0
   36.3029    4.1268   15.7558 H   0  0  0  0  0  0
   41.0960    9.0153   16.8441 H   0  0  0  0  0  0
   39.8182    5.3727   19.6924 H   0  0  0  0  0  0
   38.3557    4.8913   18.9012 H   0  0  0  0  0  0
   40.3961    8.4160   21.5255 H   0  0  0  0  0  0
   38.3138    5.8144   21.3381 H   0  0  0  0  0  0
   37.9826    8.5702   20.1277 H   0  0  0  0  0  0
   38.1815    8.1057   21.7937 H   0  0  0  0  0  0
   35.2650    3.3087   12.2264 H   0  0  0  0  0  0
   33.4458    1.6942   11.8358 H   0  0  0  0  0  0
   32.3861    0.5644   13.8037 H   0  0  0  0  0  0
   34.8128    2.6053   16.4562 H   0  0  0  0  0  0
   36.2794    6.9013   19.3440 H   0  0  0  0  0  0
   36.2458    5.2997   20.0777 H   0  0  0  0  0  0
   36.0190    6.7240   21.0785 H   0  0  0  0  0  0
  1  2  2  0  0  0
  1  4  1  0  0  0
  1 26  1  0  0  0
  2  5  1  0  0  0
  2  3  1  0  0  0
  3 10  2  0  0  0
  3 27  1  0  0  0
  4  9  2  0  0  0
  4 28  1  0  0  0
  5  6  2  0  0  0
  5  7  1  0  0  0
  7  8  1  0  0  0
  7 29  1  0  0  0
  8 19  2  0  0  0
  8 23  1  0  0  0
  9 10  1  0  0  0
  9 11  1  0  0  0
 10 12  1  0  0  0
 11 13  2  0  0  0
 11 30  1  0  0  0
 12 13  1  0  0  0
 12 15  1  0  0  0
 13 14  1  0  0  0
 14 16  1  0  0  0
 14 24  2  0  0  0
 15 17  1  0  0  0
 15 31  1  0  0  0
 15 32  1  0  0  0
 16 18  1  0  0  0
 16 33  1  0  0  0
 17 18  1  0  0  0
 17 25  1  0  0  0
 17 34  1  0  0  0
 18 35  1  0  0  0
 18 36  1  0  0  0
 19 20  1  0  0  0
 19 37  1  0  0  0
 20 21  2  0  0  0
 20 38  1  0  0  0
 21 22  1  0  0  0
 21 39  1  0  0  0
 22 23  2  0  0  0
 23 40  1  0  0  0
 25 41  1  0  0  0
 25 42  1  0  0  0
 25 43  1  0  0  0
M  END
> <s_m_entry_id>
7681

> <s_m_entry_name>
dock_pv.242

> <s_m_Source_Path>
/home/csk/Desktop/cluster/DUD-E-result/mapk2

> <s_m_Source_File>
dock_pv.maegz

> <i_m_Source_File_Index>
242

> <chembl_id>
CHEMBL272096

> <chembl_pref_name>
None

> <i_lp_mmshare_version>
53161

> <i_f3d_flags>
0

> <r_lp_tautomer_probability>
1

> <s_lp_Force_Field>
OPLS_2005

> <r_lp_Energy>
32.23905

> <b_lp_Chiralities_Consistent>
1

> <s_lp_Variant>
CHEMBL2208_lig201-2

> <s_i_glide_gridfile>
glide-grid_3m2w

> <i_i_glide_lignum>
316

> <i_i_glide_rotatable_bonds>
3

> <r_i_docking_score>
-6.88205301365359

> <r_i_glide_ligand_efficiency>
-0.275282120546144

> <r_i_glide_ligand_efficiency_sa>
-0.80492980262612

> <r_i_glide_ligand_efficiency_ln>
-1.6312528027223

> <r_i_glide_gscore>
-6.88205301365359

> <r_i_glide_lipo>
-2.58408931742522

> <r_i_glide_hbond>
-0.216706583364205

> <r_i_glide_metal>
0

> <r_i_glide_rewards>
-1.55744845827789

> <r_i_glide_evdw>
-38.7308387756348

> <r_i_glide_ecoul>
-6.41732263565063

> <r_i_glide_erotb>
0.506053027602229

> <r_i_glide_esite>
-0.130721348059174

> <r_i_glide_emodel>
-62.5922296333272

> <r_i_glide_energy>
-45.1481614112854

> <r_i_glide_einternal>
0.374939829111099

> <i_i_glide_confnum>
5

> <i_i_glide_posenum>
84

> <r_i_glide_eff_state_penalty>
0

> <s_user_duplicate_titles>
CHEMBL2208_lig201

> <s_m_subgroup_title>
dock_pv

> <s_m_subgroupid>
dock_pv

> <b_m_subgroup_collapsed>
1

$$$$
CHEMBL2208_lig209
                    3D
 Schrodinger Suite 2021-1.
 45 48  0  0  1  0            999 V2000
   38.5801    6.1413   14.1933 C   0  0  0  0  0  0
   37.6736    5.3986   14.9637 C   0  0  0  0  0  0
   37.6886    5.5111   16.3624 C   0  0  0  0  0  0
   39.4917    7.0255   14.7673 C   0  0  0  0  0  0
   36.7235    4.4452   14.2722 C   0  0  0  0  0  0
   36.6778    4.4253   13.0419 O   0  0  0  0  0  0
   36.0057    3.6246   15.0730 N   0  0  0  0  0  0
   35.1141    2.6439   14.6780 C   0  0  0  0  0  0
   39.5363    7.1314   16.1617 C   0  0  0  0  0  0
   38.6592    6.3293   16.9388 C   0  0  0  0  0  0
   40.3117    7.8932   17.0865 C   0  0  0  0  0  0
   39.8943    7.5676   18.3657 C   0  0  0  0  0  0
   39.0252    6.5024   18.2578 N   0  0  0  0  0  0
   38.6440    5.7029   19.4126 C   0  0  0  0  0  0
   38.3872    6.6907   20.5845 C   0  0  1  0  0  0
   39.5283    7.6428   20.6716 N   0  0  0  0  0  0
   40.3535    8.0249   19.6567 C   0  0  0  0  0  0
   41.3327    8.7326   19.8719 O   0  0  0  0  0  0
   34.6467    2.4241   13.4713 N   0  0  0  0  0  0
   33.8228    1.3935   13.4562 C   0  0  0  0  0  0
   33.6106    0.7528   14.6740 C   0  0  0  0  0  0
   34.5447    1.5549   15.9010 S   0  0  0  0  0  0
   36.9934    7.3696   20.4986 C   0  0  0  0  0  0
   35.8808    6.6314   21.1003 N   0  0  1  0  0  0
   35.6803    5.2470   20.6970 C   0  0  0  0  0  0
   34.4601    4.6848   21.4333 C   0  0  0  0  0  0
   38.5859    6.0287   13.1179 H   0  0  0  0  0  0
   37.0217    4.9439   16.9937 H   0  0  0  0  0  0
   40.1684    7.5970   14.1485 H   0  0  0  0  0  0
   36.1485    3.7026   16.0658 H   0  0  0  0  0  0
   41.0757    8.6197   16.8607 H   0  0  0  0  0  0
   39.4852    5.0562   19.6721 H   0  0  0  0  0  0
   37.7981    5.0627   19.1776 H   0  0  0  0  0  0
   38.4386    6.1106   21.5088 H   0  0  0  0  0  0
   39.7899    7.9557   21.5965 H   0  0  0  0  0  0
   33.3669    1.1115   12.5186 H   0  0  0  0  0  0
   32.9819   -0.0949   14.9036 H   0  0  0  0  0  0
   36.7423    7.6230   19.4707 H   0  0  0  0  0  0
   37.0358    8.3264   21.0211 H   0  0  0  0  0  0
   35.8403    6.7390   22.1097 H   0  0  0  0  0  0
   36.5493    4.6414   20.9567 H   0  0  0  0  0  0
   35.5186    5.1871   19.6198 H   0  0  0  0  0  0
   34.3045    3.6375   21.1725 H   0  0  0  0  0  0
   34.5871    4.7355   22.5159 H   0  0  0  0  0  0
   33.5487    5.2237   21.1779 H   0  0  0  0  0  0
  1  2  2  0  0  0
  1  4  1  0  0  0
  1 27  1  0  0  0
  2  5  1  0  0  0
  2  3  1  0  0  0
  3 10  2  0  0  0
  3 28  1  0  0  0
  4  9  2  0  0  0
  4 29  1  0  0  0
  5  6  2  0  0  0
  5  7  1  0  0  0
  7  8  1  0  0  0
  7 30  1  0  0  0
  8 19  2  0  0  0
  8 22  1  0  0  0
  9 10  1  0  0  0
  9 11  1  0  0  0
 10 13  1  0  0  0
 11 12  2  0  0  0
 11 31  1  0  0  0
 12 17  1  0  0  0
 12 13  1  0  0  0
 13 14  1  0  0  0
 14 15  1  0  0  0
 14 32  1  0  0  0
 14 33  1  0  0  0
 15 16  1  0  0  0
 15 23  1  0  0  0
 15 34  1  0  0  0
 16 17  1  0  0  0
 16 35  1  0  0  0
 17 18  2  0  0  0
 19 20  1  0  0  0
 20 21  2  0  0  0
 20 36  1  0  0  0
 21 22  1  0  0  0
 21 37  1  0  0  0
 23 24  1  0  0  0
 23 38  1  0  0  0
 23 39  1  0  0  0
 24 25  1  0  0  0
 24 40  1  0  0  0
 25 26  1  0  0  0
 25 41  1  0  0  0
 25 42  1  0  0  0
 26 43  1  0  0  0
 26 44  1  0  0  0
 26 45  1  0  0  0
M  END
> <s_m_entry_id>
7682

> <s_m_entry_name>
dock_pv.243

> <s_m_Source_Path>
/home/csk/Desktop/cluster/DUD-E-result/mapk2

> <s_m_Source_File>
dock_pv.maegz

> <i_m_Source_File_Index>
243

> <chembl_id>
CHEMBL401748

> <chembl_pref_name>
None

> <i_lp_mmshare_version>
53161

> <i_f3d_flags>
0

> <r_lp_tautomer_probability>
0.999000488399163

> <s_lp_Force_Field>
OPLS_2005

> <r_lp_Energy>
24.038726

> <b_lp_Chiralities_Consistent>
1

> <s_lp_Variant>
CHEMBL2208_lig209-2

> <s_i_glide_gridfile>
glide-grid_3m2w

> <i_i_glide_lignum>
330

> <i_i_glide_rotatable_bonds>
6

> <r_i_docking_score>
-6.88124128969342

> <r_i_glide_ligand_efficiency>
-0.26466312652667

> <r_i_glide_ligand_efficiency_sa>
-0.784063470936144

> <r_i_glide_ligand_efficiency_ln>
-1.61603693769019

> <r_i_glide_gscore>
-6.88124128969342

> <r_i_glide_lipo>
-2.48231401423793

> <r_i_glide_hbond>
-0.301913129069458

> <r_i_glide_metal>
0

> <r_i_glide_rewards>
-1.36344887810858

> <r_i_glide_evdw>
-38.7785682678223

> <r_i_glide_ecoul>
-9.3295259475708

> <r_i_glide_erotb>
0.706331189396969

> <r_i_glide_esite>
-0.101539152147684

> <r_i_glide_emodel>
-62.0740199865183

> <r_i_glide_energy>
-48.1080942153931

> <r_i_glide_einternal>
7.98827838897705

> <i_i_glide_confnum>
53

> <i_i_glide_posenum>
288

> <r_i_glide_eff_state_penalty>
0

> <s_user_duplicate_titles>
CHEMBL2208_lig209

> <s_m_subgroup_title>
dock_pv

> <s_m_subgroupid>
dock_pv

> <b_m_subgroup_collapsed>
1

$$$$
CHEMBL2208_lig398
                    3D
 Schrodinger Suite 2021-1.
 38 39  0  0  1  0            999 V2000
   39.2665    6.6867   15.4212 C   0  0  0  0  0  0
   38.2172    6.0250   15.9881 N   0  0  0  0  0  0
   37.5088    5.1649   15.2183 C   0  0  0  0  0  0
   37.8178    4.9848   13.8720 C   0  0  0  0  0  0
   38.8662    5.6250   13.2953 N   0  0  0  0  0  0
   39.5962    6.4668   14.0735 C   0  0  0  0  0  0
   40.6780    7.1016   13.4720 N   0  0  0  0  0  0
   40.0733    7.6214   16.3314 C   0  0  0  0  0  0
   39.7721    7.4620   17.7598 N   0  0  0  0  0  0
   40.5313    7.9075   18.8025 C   0  0  0  0  0  0
   40.0757    7.5821   20.0467 N   0  0  0  0  0  0
   41.9156    8.8250   18.6720 S   0  0  0  0  0  0
   39.0771    6.6582   20.4007 C   0  0  0  0  0  0
   37.1130    4.8409   21.1663 C   0  0  0  0  0  0
   38.1061    4.4475   20.2720 C   0  0  0  0  0  0
   39.0789    5.3584   19.8800 C   0  0  0  0  0  0
   37.1146    6.1376   21.7012 C   0  0  0  0  0  0
   38.1039    7.0433   21.3235 C   0  0  0  0  0  0
   36.2780    4.2126   15.9495 Cl  0  0  0  0  0  0
   36.1638    3.8774   21.5290 N   0  0  0  0  0  0
   34.8415    4.0836   21.6740 C   0  0  0  0  0  0
   34.0152    2.8731   22.0891 C   0  0  0  0  0  0
   34.2780    5.1598   21.4720 O   0  0  0  0  0  0
   37.2561    4.2961   13.2584 H   0  0  0  0  0  0
   41.2387    7.7452   14.0086 H   0  0  0  0  0  0
   40.9214    6.8815   12.5053 H   0  0  0  0  0  0
   39.8592    8.6506   16.0385 H   0  0  0  0  0  0
   41.1363    7.4472   16.1567 H   0  0  0  0  0  0
   38.8741    7.0563   17.9829 H   0  0  0  0  0  0
   40.5692    7.9849   20.8292 H   0  0  0  0  0  0
   38.1304    3.4404   19.8793 H   0  0  0  0  0  0
   39.8546    5.0399   19.1976 H   0  0  0  0  0  0
   36.3638    6.4383   22.4185 H   0  0  0  0  0  0
   38.1083    8.0353   21.7511 H   0  0  0  0  0  0
   36.4959    2.9242   21.5697 H   0  0  0  0  0  0
   34.6490    2.0250   22.3491 H   0  0  0  0  0  0
   33.3579    2.5699   21.2743 H   0  0  0  0  0  0
   33.4009    3.1176   22.9556 H   0  0  0  0  0  0
  1  6  1  0  0  0
  1  2  2  0  0  0
  1  8  1  0  0  0
  2  3  1  0  0  0
  3  4  2  0  0  0
  3 19  1  0  0  0
  4  5  1  0  0  0
  4 24  1  0  0  0
  5  6  2  0  0  0
  6  7  1  0  0  0
  7 25  1  0  0  0
  7 26  1  0  0  0
  8  9  1  0  0  0
  8 27  1  0  0  0
  8 28  1  0  0  0
  9 10  1  0  0  0
  9 29  1  0  0  0
 10 12  2  0  0  0
 10 11  1  0  0  0
 11 13  1  0  0  0
 11 30  1  0  0  0
 13 18  2  0  0  0
 13 16  1  0  0  0
 14 17  2  0  0  0
 14 15  1  0  0  0
 14 20  1  0  0  0
 15 16  2  0  0  0
 15 31  1  0  0  0
 16 32  1  0  0  0
 17 18  1  0  0  0
 17 33  1  0  0  0
 18 34  1  0  0  0
 20 21  1  0  0  0
 20 35  1  0  0  0
 21 22  1  0  0  0
 21 23  2  0  0  0
 22 36  1  0  0  0
 22 37  1  0  0  0
 22 38  1  0  0  0
M  END
> <s_m_entry_id>
7683

> <s_m_entry_name>
dock_pv.244

> <s_m_Source_Path>
/home/csk/Desktop/cluster/DUD-E-result/mapk2

> <s_m_Source_File>
dock_pv.maegz

> <i_m_Source_File_Index>
244

> <chembl_id>
CHEMBL1783581

> <chembl_pref_name>
None

> <i_lp_mmshare_version>
53161

> <i_f3d_flags>
0

> <r_lp_tautomer_probability>
0.999999901280008

> <s_lp_Force_Field>
OPLS_2005

> <r_lp_Energy>
29.756446

> <b_lp_Chiralities_Consistent>
1

> <s_lp_Variant>
CHEMBL2208_lig398-1

> <s_i_glide_gridfile>
glide-grid_3m2w

> <i_i_glide_lignum>
568

> <i_i_glide_rotatable_bonds>
7

> <r_i_docking_score>
-6.87689414131299

> <r_i_glide_ligand_efficiency>
-0.298995397448391

> <r_i_glide_ligand_efficiency_sa>
-0.850303137042367

> <r_i_glide_ligand_efficiency_ln>
-1.66289535959801

> <r_i_glide_gscore>
-6.87689414131299

> <r_i_glide_lipo>
-1.26121463483226

> <r_i_glide_hbond>
-0.780033228271281

> <r_i_glide_metal>
0

> <r_i_glide_rewards>
-1.66203331438831

> <r_i_glide_evdw>
-35.2443962097168

> <r_i_glide_ecoul>
-13.1114187240601

> <r_i_glide_erotb>
0.650596925721183

> <r_i_glide_esite>
-0.0952772704474731

> <r_i_glide_emodel>
-62.7497364413362

> <r_i_glide_energy>
-48.3558149337769

> <r_i_glide_einternal>
8.94511699676514

> <i_i_glide_confnum>
56

> <i_i_glide_posenum>
384

> <r_i_glide_eff_state_penalty>
0

> <s_user_duplicate_titles>
CHEMBL2208_lig398

> <s_m_subgroup_title>
dock_pv

> <s_m_subgroupid>
dock_pv

> <b_m_subgroup_collapsed>
1

$$$$
CHEMBL2208_lig1016
                    3D
 Schrodinger Suite 2021-1.
 26 27  0  0  1  0            999 V2000
   38.0396    5.4719   19.4738 S   0  0  0  0  0  0
   37.1052    4.8233   22.2498 S   0  0  0  0  0  0
   40.1441    8.4251   20.7289 O   0  0  0  0  0  0
   37.4548    5.1130   14.2641 O   0  0  0  0  0  0
   39.4780    6.0250   12.6719 O   0  0  0  0  0  0
   38.8460    6.7400   21.5118 N   0  0  0  0  0  0
   39.1290    6.8562   19.2460 C   0  0  0  0  0  0
   39.4389    7.4358   20.5327 C   0  0  0  0  0  0
   39.5571    6.9934   16.7145 C   0  0  0  0  0  0
   39.6847    7.3858   18.1300 C   0  0  0  0  0  0
   38.0194    5.7200   21.2018 C   0  0  0  0  0  0
   38.4577    5.8745   14.8412 C   0  0  0  0  0  0
   38.5066    6.2201   16.2031 C   0  0  0  0  0  0
   39.4813    6.3286   14.0011 C   0  0  0  0  0  0
   40.5581    7.4317   15.8425 C   0  0  0  0  0  0
   40.5154    7.1157   14.4925 C   0  0  0  0  0  0
   36.3605    4.6878   15.0611 C   0  0  0  0  0  0
   40.2267    6.4009   12.1889 H   0  0  0  0  0  0
   39.0061    6.9863   22.4794 H   0  0  0  0  0  0
   40.3281    8.2465   18.2634 H   0  0  0  0  0  0
   37.7175    5.8954   16.8578 H   0  0  0  0  0  0
   41.3864    8.0249   16.2047 H   0  0  0  0  0  0
   41.2881    7.4756   13.8281 H   0  0  0  0  0  0
   35.6237    4.1897   14.4304 H   0  0  0  0  0  0
   36.6789    3.9833   15.8303 H   0  0  0  0  0  0
   35.8781    5.5413   15.5339 H   0  0  0  0  0  0
  1  7  1  0  0  0
  1 11  1  0  0  0
  2 11  2  0  0  0
  3  8  2  0  0  0
  4 12  1  0  0  0
  4 17  1  0  0  0
  5 14  1  0  0  0
  5 18  1  0  0  0
  6  8  1  0  0  0
  6 11  1  0  0  0
  6 19  1  0  0  0
  7  8  1  0  0  0
  7 10  2  3  0  0
  9 10  1  0  0  0
  9 13  1  0  0  0
  9 15  2  0  0  0
 10 20  1  0  0  0
 12 13  2  0  0  0
 12 14  1  0  0  0
 13 21  1  0  0  0
 14 16  2  0  0  0
 15 16  1  0  0  0
 15 22  1  0  0  0
 16 23  1  0  0  0
 17 24  1  0  0  0
 17 25  1  0  0  0
 17 26  1  0  0  0
M  END
> <s_m_entry_id>
7684

> <s_m_entry_name>
dock_pv.245

> <s_m_Source_Path>
/home/csk/Desktop/cluster/DUD-E-result/mapk2

> <s_m_Source_File>
dock_pv.maegz

> <i_m_Source_File_Index>
245

> <chembl_id>
CHEMBL1973098

> <chembl_pref_name>
None

> <i_lp_mmshare_version>
53161

> <i_f3d_flags>
0

> <r_lp_tautomer_probability>
1

> <s_lp_Force_Field>
OPLS_2005

> <r_lp_Energy>
13.302511

> <b_lp_Chiralities_Consistent>
1

> <s_lp_Variant>
CHEMBL2208_lig1016-2

> <s_i_glide_gridfile>
glide-grid_3m2w

> <i_i_glide_lignum>
1322

> <i_i_glide_rotatable_bonds>
3

> <r_i_docking_score>
-6.87635744225352

> <r_i_glide_ligand_efficiency>
-0.404491614250207

> <r_i_glide_ligand_efficiency_sa>
-1.04006184031495

> <r_i_glide_ligand_efficiency_ln>
-1.79388852773248

> <r_i_glide_gscore>
-6.87635744225352

> <r_i_glide_lipo>
-2.03280211303189

> <r_i_glide_hbond>
-0.0556677331290522

> <r_i_glide_metal>
0

> <r_i_glide_rewards>
-2.04717265106145

> <r_i_glide_evdw>
-32.8140182495117

> <r_i_glide_ecoul>
-8.14897632598877

> <r_i_glide_erotb>
0.249501434128099

> <r_i_glide_esite>
-0.127169017785322

> <r_i_glide_emodel>
-58.176021129465

> <r_i_glide_energy>
-40.9629945755005

> <r_i_glide_einternal>
0.443909734487534

> <i_i_glide_confnum>
1

> <i_i_glide_posenum>
30

> <r_i_glide_eff_state_penalty>
0

> <s_user_duplicate_titles>
CHEMBL2208_lig1016

> <s_m_subgroup_title>
dock_pv

> <s_m_subgroupid>
dock_pv

> <b_m_subgroup_collapsed>
1

$$$$
CHEMBL2208_lig302
                    3D
 Schrodinger Suite 2021-1.
 30 32  0  0  1  0            999 V2000
   37.9333    5.4743   14.1892 C   0  0  0  0  0  0
   39.0995    6.0425   13.6935 C   0  0  0  0  0  0
   39.9908    6.7318   14.5052 C   0  0  0  0  0  0
   37.6363    5.5856   15.5527 C   0  0  0  0  0  0
   40.6530    7.6231   17.0851 S   0  0  0  0  0  0
   38.5221    6.2436   16.4258 C   0  0  0  0  0  0
   39.6977    6.8212   15.8699 C   0  0  0  0  0  0
   39.5475    7.0821   18.3469 C   0  0  0  0  0  0
   38.4108    6.4246   17.8443 C   0  0  0  0  0  0
   37.1934    5.8876   18.5950 C   0  0  0  0  0  0
   39.9149    7.5119   19.6935 C   0  0  0  0  0  0
   37.1667    6.0675   20.1177 C   0  0  0  0  0  0
   39.4780    6.7690   20.7265 N   0  0  0  0  0  0
   38.4947    5.6971   20.7860 C   0  0  0  0  0  0
   37.1295    4.8250   13.2766 O   0  0  0  0  0  0
   36.0067    4.0814   13.7472 C   0  0  0  0  0  0
   40.6433    8.4866   19.8741 O   0  0  0  0  0  0
   39.3197    5.9677   12.6420 H   0  0  0  0  0  0
   40.8810    7.1813   14.0873 H   0  0  0  0  0  0
   36.7342    5.1516   15.9529 H   0  0  0  0  0  0
   37.1066    4.8186   18.3930 H   0  0  0  0  0  0
   36.2824    6.3230   18.1816 H   0  0  0  0  0  0
   36.3784    5.4272   20.5174 H   0  0  0  0  0  0
   36.8850    7.0893   20.3786 H   0  0  0  0  0  0
   39.8083    7.1010   21.6222 H   0  0  0  0  0  0
   38.9214    4.7749   20.3849 H   0  0  0  0  0  0
   38.3206    5.4806   21.8418 H   0  0  0  0  0  0
   35.5107    3.6100   12.8994 H   0  0  0  0  0  0
   36.3100    3.2874   14.4319 H   0  0  0  0  0  0
   35.2767    4.7228   14.2453 H   0  0  0  0  0  0
  1  2  2  0  0  0
  1  4  1  0  0  0
  1 15  1  0  0  0
  2  3  1  0  0  0
  2 18  1  0  0  0
  3  7  2  0  0  0
  3 19  1  0  0  0
  4  6  2  0  0  0
  4 20  1  0  0  0
  5  8  1  0  0  0
  5  7  1  0  0  0
  6  7  1  0  0  0
  6  9  1  0  0  0
  8  9  2  0  0  0
  8 11  1  0  0  0
  9 10  1  0  0  0
 10 12  1  0  0  0
 10 21  1  0  0  0
 10 22  1  0  0  0
 11 13  1  0  0  0
 11 17  2  0  0  0
 12 14  1  0  0  0
 12 23  1  0  0  0
 12 24  1  0  0  0
 13 14  1  0  0  0
 13 25  1  0  0  0
 14 26  1  0  0  0
 14 27  1  0  0  0
 15 16  1  0  0  0
 16 28  1  0  0  0
 16 29  1  0  0  0
 16 30  1  0  0  0
M  END
> <s_m_entry_id>
7685

> <s_m_entry_name>
dock_pv.246

> <s_m_Source_Path>
/home/csk/Desktop/cluster/DUD-E-result/mapk2

> <s_m_Source_File>
dock_pv.maegz

> <i_m_Source_File_Index>
246

> <chembl_id>
CHEMBL571897

> <chembl_pref_name>
None

> <i_lp_mmshare_version>
53161

> <i_f3d_flags>
0

> <r_lp_tautomer_probability>
1

> <s_lp_Force_Field>
OPLS_2005

> <r_lp_Energy>
23.05499

> <b_lp_Chiralities_Consistent>
1

> <s_lp_Variant>
CHEMBL2208_lig302-1

> <s_i_glide_gridfile>
glide-grid_3m2w

> <i_i_glide_lignum>
441

> <i_i_glide_rotatable_bonds>
1

> <r_i_docking_score>
-6.87517493547896

> <r_i_glide_ligand_efficiency>
-0.404422055028174

> <r_i_glide_ligand_efficiency_sa>
-1.03988298396805

> <r_i_glide_ligand_efficiency_ln>
-1.79358003804813

> <r_i_glide_gscore>
-6.87517493547896

> <r_i_glide_lipo>
-2.40971294259449

> <r_i_glide_hbond>
-0.107664695062424

> <r_i_glide_metal>
0

> <r_i_glide_rewards>
-1.84046557432348

> <r_i_glide_evdw>
-33.2218208312988

> <r_i_glide_ecoul>
-5.21904277801514

> <r_i_glide_erotb>
0

> <r_i_glide_esite>
-0.0733842652313582

> <r_i_glide_emodel>
-53.9473711095464

> <r_i_glide_energy>
-38.440863609314

> <r_i_glide_einternal>
2.5161120891571

> <i_i_glide_confnum>
1

> <i_i_glide_posenum>
114

> <r_i_glide_eff_state_penalty>
0

> <s_user_duplicate_titles>
CHEMBL2208_lig302,564330

> <s_m_subgroup_title>
dock_pv

> <s_m_subgroupid>
dock_pv

> <b_m_subgroup_collapsed>
1

$$$$
CHEMBL2208_lig224
                    3D
 Schrodinger Suite 2021-1.
 41 44  0  0  1  0            999 V2000
   39.2180    6.1454   13.9596 C   0  0  0  0  0  0
   38.0980    5.6280   14.6285 C   0  0  0  0  0  0
   37.9505    5.8521   16.0046 C   0  0  0  0  0  0
   40.2117    6.8767   14.6106 C   0  0  0  0  0  0
   37.0780    4.8113   13.8724 C   0  0  0  0  0  0
   37.0780    4.8229   12.6402 O   0  0  0  0  0  0
   36.2705    4.0509   14.6550 N   0  0  0  0  0  0
   35.2640    3.1176   14.3448 C   0  0  0  0  0  0
   40.0580    7.0562   15.9869 C   0  0  0  0  0  0
   38.9406    6.5400   16.6993 C   0  0  0  0  0  0
   40.8382    7.7051   16.9166 N   0  0  0  0  0  0
   40.2779    7.6087   18.1691 C   0  0  0  0  0  0
   39.1168    6.8664   18.0746 C   0  0  0  0  0  0
   38.2810    6.5678   19.3034 C   0  0  0  0  0  0
   39.1789    6.7385   20.5676 C   0  0  1  0  0  0
   39.9995    7.9684   20.4299 N   0  0  0  0  0  0
   40.8234    8.1748   19.3709 C   0  0  0  0  0  0
   41.8586    8.8250   19.4797 O   0  0  0  0  0  0
   34.7884    2.8251   13.0588 C   0  0  0  0  0  0
   33.7591    1.8966   12.8906 C   0  0  0  0  0  0
   33.2446    1.2607   14.0197 C   0  0  0  0  0  0
   33.6973    1.5094   15.2733 N   0  0  0  0  0  0
   34.6878    2.4266   15.4179 C   0  0  0  0  0  0
   38.3553    6.6555   21.8736 C   0  0  0  0  0  0
   37.4801    7.7587   22.0444 O   0  0  0  0  0  0
   39.3348    5.9833   12.8967 H   0  0  0  0  0  0
   37.0989    5.4891   16.5604 H   0  0  0  0  0  0
   41.0594    7.2708   14.0680 H   0  0  0  0  0  0
   36.4355    4.1432   15.6434 H   0  0  0  0  0  0
   41.6963    8.2123   16.7506 H   0  0  0  0  0  0
   37.8877    5.5510   19.2694 H   0  0  0  0  0  0
   37.4164    7.2297   19.3470 H   0  0  0  0  0  0
   39.8792    5.8981   20.5968 H   0  0  0  0  0  0
   40.3302    8.3514   21.3016 H   0  0  0  0  0  0
   35.1970    3.3153   12.1887 H   0  0  0  0  0  0
   33.3784    1.6717   11.9053 H   0  0  0  0  0  0
   32.4501    0.5342   13.9319 H   0  0  0  0  0  0
   35.0049    2.6100   16.4344 H   0  0  0  0  0  0
   39.0292    6.6166   22.7317 H   0  0  0  0  0  0
   37.7758    5.7315   21.8990 H   0  0  0  0  0  0
   36.9418    7.5982   22.8252 H   0  0  0  0  0  0
  1  2  2  0  0  0
  1  4  1  0  0  0
  1 26  1  0  0  0
  2  5  1  0  0  0
  2  3  1  0  0  0
  3 10  2  0  0  0
  3 27  1  0  0  0
  4  9  2  0  0  0
  4 28  1  0  0  0
  5  6  2  0  0  0
  5  7  1  0  0  0
  7  8  1  0  0  0
  7 29  1  0  0  0
  8 19  2  0  0  0
  8 23  1  0  0  0
  9 10  1  0  0  0
  9 11  1  0  0  0
 10 13  1  0  0  0
 11 12  1  0  0  0
 11 30  1  0  0  0
 12 13  2  0  0  0
 12 17  1  0  0  0
 13 14  1  0  0  0
 14 15  1  0  0  0
 14 31  1  0  0  0
 14 32  1  0  0  0
 15 16  1  0  0  0
 15 24  1  0  0  0
 15 33  1  0  0  0
 16 17  1  0  0  0
 16 34  1  0  0  0
 17 18  2  0  0  0
 19 20  1  0  0  0
 19 35  1  0  0  0
 20 21  2  0  0  0
 20 36  1  0  0  0
 21 22  1  0  0  0
 21 37  1  0  0  0
 22 23  2  0  0  0
 23 38  1  0  0  0
 24 25  1  0  0  0
 24 39  1  0  0  0
 24 40  1  0  0  0
 25 41  1  0  0  0
M  END
> <s_m_entry_id>
7686

> <s_m_entry_name>
dock_pv.247

> <s_m_Source_Path>
/home/csk/Desktop/cluster/DUD-E-result/mapk2

> <s_m_Source_File>
dock_pv.maegz

> <i_m_Source_File_Index>
247

> <chembl_id>
CHEMBL255606

> <chembl_pref_name>
None

> <i_lp_mmshare_version>
53161

> <i_f3d_flags>
0

> <r_lp_tautomer_probability>
1

> <s_lp_Force_Field>
OPLS_2005

> <r_lp_Energy>
23.590619

> <b_lp_Chiralities_Consistent>
1

> <s_lp_Variant>
CHEMBL2208_lig224-2

> <s_i_glide_gridfile>
glide-grid_3m2w

> <i_i_glide_lignum>
354

> <i_i_glide_rotatable_bonds>
5

> <r_i_docking_score>
-6.87132982440522

> <r_i_glide_ligand_efficiency>
-0.274853192976209

> <r_i_glide_ligand_efficiency_sa>
-0.803675610804568

> <r_i_glide_ligand_efficiency_ln>
-1.62871108552238

> <r_i_glide_gscore>
-6.87132982440522

> <r_i_glide_lipo>
-2.52845030039892

> <r_i_glide_hbond>
-0.299981695303272

> <r_i_glide_metal>
0

> <r_i_glide_rewards>
-1.33161136867344

> <r_i_glide_evdw>
-39.8511428833008

> <r_i_glide_ecoul>
-8.47041034698486

> <r_i_glide_erotb>
0.667746959250138

> <r_i_glide_esite>
-0.115914723066955

> <r_i_glide_emodel>
-67.0830879638917

> <r_i_glide_energy>
-48.3215532302856

> <r_i_glide_einternal>
0.142741620540619

> <i_i_glide_confnum>
1

> <i_i_glide_posenum>
18

> <r_i_glide_eff_state_penalty>
0

> <s_user_duplicate_titles>
CHEMBL2208_lig224

> <s_m_subgroup_title>
dock_pv

> <s_m_subgroupid>
dock_pv

> <b_m_subgroup_collapsed>
1

$$$$
CHEMBL2208_lig1132
                    3D
 Schrodinger Suite 2021-1.
 20 22  0  0  1  0            999 V2000
   38.8269    6.0250   14.0237 C   0  0  0  0  0  0
   39.9556    6.7726   13.8359 N   0  0  0  0  0  0
   38.2756    5.4749   13.0726 O   0  0  0  0  0  0
   37.0773    5.2261   16.1118 S   0  0  0  0  0  0
   35.4784    4.4243   18.9781 Cl  0  0  0  0  0  0
   40.6779    7.4592   14.7829 C   0  0  0  0  0  0
   40.3581    7.4168   16.0286 N   0  0  0  0  0  0
   40.6792    7.9548   19.1008 Cl  0  0  0  0  0  0
   39.2496    6.6934   16.3861 C   0  0  0  0  0  0
   38.4651    6.0246   15.4427 C   0  0  0  0  0  0
   37.5612    5.7162   17.7378 C   0  0  0  0  0  0
   36.9101    5.3904   18.9408 C   0  0  0  0  0  0
   37.4487    5.8556   20.1335 C   0  0  0  0  0  0
   38.5990    6.6294   20.1504 C   0  0  0  0  0  0
   39.2579    6.9746   18.9726 C   0  0  0  0  0  0
   38.7585    6.5106   17.7275 C   0  0  0  0  0  0
   40.2730    6.8111   12.8776 H   0  0  0  0  0  0
   41.5388    8.0259   14.4414 H   0  0  0  0  0  0
   36.9719    5.6013   21.0698 H   0  0  0  0  0  0
   38.9905    6.9628   21.1022 H   0  0  0  0  0  0
  1  3  2  0  0  0
  1 10  1  0  0  0
  1  2  1  0  0  0
  2  6  1  0  0  0
  2 17  1  0  0  0
  4 10  1  0  0  0
  4 11  1  0  0  0
  5 12  1  0  0  0
  6  7  2  0  0  0
  6 18  1  0  0  0
  7  9  1  0  0  0
  8 15  1  0  0  0
  9 10  2  0  0  0
  9 16  1  0  0  0
 11 12  1  0  0  0
 11 16  2  0  0  0
 12 13  2  0  0  0
 13 14  1  0  0  0
 13 19  1  0  0  0
 14 15  2  0  0  0
 14 20  1  0  0  0
 15 16  1  0  0  0
M  END
> <s_m_entry_id>
7687

> <s_m_entry_name>
dock_pv.248

> <s_m_Source_Path>
/home/csk/Desktop/cluster/DUD-E-result/mapk2

> <s_m_Source_File>
dock_pv.maegz

> <i_m_Source_File_Index>
248

> <chembl_id>
CHEMBL583144

> <chembl_pref_name>
None

> <i_lp_mmshare_version>
53161

> <i_f3d_flags>
0

> <r_lp_tautomer_probability>
1

> <s_lp_Force_Field>
OPLS_2005

> <r_lp_Energy>
19.716585

> <b_lp_Chiralities_Consistent>
1

> <s_lp_Variant>
CHEMBL2208_lig1132-1

> <s_i_glide_gridfile>
glide-grid_3m2w

> <i_i_glide_lignum>
1514

> <i_i_glide_rotatable_bonds>
0

> <r_i_docking_score>
-6.87042781776701

> <r_i_glide_ligand_efficiency>
-0.429401738610438

> <r_i_glide_ligand_efficiency_sa>
-1.08202457767349

> <r_i_glide_ligand_efficiency_ln>
-1.82114413301009

> <r_i_glide_gscore>
-6.87042781776701

> <r_i_glide_lipo>
-1.39025982069153

> <r_i_glide_hbond>
-0.407811970068118

> <r_i_glide_metal>
0

> <r_i_glide_rewards>
-2.90552527272727

> <r_i_glide_evdw>
-30.7194194793701

> <r_i_glide_ecoul>
-4.2057318687439

> <r_i_glide_erotb>
0

> <r_i_glide_esite>
0

> <r_i_glide_emodel>
-50.0459035184835

> <r_i_glide_energy>
-34.925151348114

> <r_i_glide_einternal>
0

> <i_i_glide_confnum>
1

> <i_i_glide_posenum>
67

> <r_i_glide_eff_state_penalty>
0

> <s_user_duplicate_titles>
CHEMBL2208_lig1132

> <s_m_subgroup_title>
dock_pv

> <s_m_subgroupid>
dock_pv

> <b_m_subgroup_collapsed>
1

$$$$
CHEMBL2208_lig117
                    3D
 Schrodinger Suite 2021-1.
 35 37  0  0  1  0            999 V2000
   40.1964    7.6350   18.9774 C   0  0  0  0  0  0
   39.2393    7.2560   19.9154 C   0  0  0  0  0  0
   38.0987    6.5268   19.5805 C   0  0  0  0  0  0
   40.0352    7.2615   17.6319 C   0  0  0  0  0  0
   38.9045    6.5174   17.2398 C   0  0  0  0  0  0
   37.9438    6.1730   18.2376 C   0  0  0  0  0  0
   36.9352    5.4822   17.6021 N   0  0  0  0  0  0
   38.4254    5.9674   15.9905 C   0  0  0  0  0  0
   37.2134    5.3409   16.2631 C   0  0  0  0  0  0
   36.3151    4.6627   15.2109 C   0  0  1  0  0  0
   36.9774    4.5997   13.8957 N   0  0  1  0  0  0
   37.8189    5.7564   13.5763 C   0  0  0  0  0  0
   39.0008    5.9274   14.5735 C   0  0  1  0  0  0
   35.8780    3.2237   15.6251 C   0  0  0  0  0  0
   35.0780    3.2250   16.7246 O   0  0  0  0  0  0
   36.2499    2.1899   15.0720 O   0  0  0  0  0  0
   41.2626    8.3706   19.4649 O   0  0  0  0  0  0
   42.2592    8.8359   18.5631 C   0  0  0  0  0  0
   39.8879    7.1330   14.2171 C   0  0  0  0  0  0
   39.3896    7.5356   20.9490 H   0  0  0  0  0  0
   37.3761    6.2498   20.3348 H   0  0  0  0  0  0
   40.7691    7.5406   16.8964 H   0  0  0  0  0  0
   36.1081    5.0900   18.0269 H   0  0  0  0  0  0
   35.3973    5.2250   15.0720 H   0  0  0  0  0  0
   37.4782    3.7175   13.8098 H   0  0  0  0  0  0
   37.1974    6.6539   13.5652 H   0  0  0  0  0  0
   38.1992    5.6328   12.5622 H   0  0  0  0  0  0
   39.6330    5.0415   14.5049 H   0  0  0  0  0  0
   34.6025    4.0710   16.7830 H   0  0  0  0  0  0
   43.0479    9.3392   19.1218 H   0  0  0  0  0  0
   42.7227    8.0250   17.9998 H   0  0  0  0  0  0
   41.8390    9.5643   17.8719 H   0  0  0  0  0  0
   40.8375    7.0989   14.7490 H   0  0  0  0  0  0
   39.4014    8.0778   14.4576 H   0  0  0  0  0  0
   40.1314    7.1440   13.1537 H   0  0  0  0  0  0
  1  4  1  0  0  0
  1 17  1  0  0  0
  1  2  2  0  0  0
  2  3  1  0  0  0
  2 20  1  0  0  0
  3  6  2  0  0  0
  3 21  1  0  0  0
  4  5  2  0  0  0
  4 22  1  0  0  0
  5  6  1  0  0  0
  5  8  1  0  0  0
  6  7  1  0  0  0
  7  9  1  0  0  0
  7 23  1  0  0  0
  8 13  1  0  0  0
  8  9  2  0  0  0
  9 10  1  0  0  0
 10 11  1  0  0  0
 10 14  1  0  0  0
 10 24  1  0  0  0
 11 12  1  0  0  0
 11 25  1  0  0  0
 12 13  1  0  0  0
 12 26  1  0  0  0
 12 27  1  0  0  0
 13 19  1  0  0  0
 13 28  1  0  0  0
 14 15  1  0  0  0
 14 16  2  0  0  0
 15 29  1  0  0  0
 17 18  1  0  0  0
 18 30  1  0  0  0
 18 31  1  0  0  0
 18 32  1  0  0  0
 19 33  1  0  0  0
 19 34  1  0  0  0
 19 35  1  0  0  0
M  END
> <s_m_entry_id>
7688

> <s_m_entry_name>
dock_pv.249

> <s_m_Source_Path>
/home/csk/Desktop/cluster/DUD-E-result/mapk2

> <s_m_Source_File>
dock_pv.maegz

> <i_m_Source_File_Index>
249

> <chembl_id>
CHEMBL248110

> <chembl_pref_name>
None

> <i_lp_mmshare_version>
53161

> <i_f3d_flags>
0

> <r_lp_tautomer_probability>
1

> <s_lp_Force_Field>
OPLS_2005

> <r_lp_Energy>
23.310069

> <b_lp_Chiralities_Consistent>
1

> <s_lp_Variant>
CHEMBL2208_lig117-4

> <s_i_glide_gridfile>
glide-grid_3m2w

> <i_i_glide_lignum>
157

> <i_i_glide_rotatable_bonds>
3

> <r_i_docking_score>
-6.86908032672167

> <r_i_glide_ligand_efficiency>
-0.361530543511667

> <r_i_glide_ligand_efficiency_sa>
-0.964708697423031

> <r_i_glide_ligand_efficiency_ln>
-1.74145939714177

> <r_i_glide_gscore>
-6.86908032672167

> <r_i_glide_lipo>
-2.1772323172179

> <r_i_glide_hbond>
-0.32869376238778

> <r_i_glide_metal>
0

> <r_i_glide_rewards>
-1.76657719116455

> <r_i_glide_evdw>
-27.3349323272705

> <r_i_glide_ecoul>
-9.94055461883545

> <r_i_glide_erotb>
0.261252753237393

> <r_i_glide_esite>
0

> <r_i_glide_emodel>
-51.9096438841863

> <r_i_glide_energy>
-37.275486946106

> <r_i_glide_einternal>
1.20200717449188

> <i_i_glide_confnum>
1

> <i_i_glide_posenum>
391

> <r_i_glide_eff_state_penalty>
0

> <s_user_duplicate_titles>
CHEMBL2208_lig117

> <s_m_subgroup_title>
dock_pv

> <s_m_subgroupid>
dock_pv

> <b_m_subgroup_collapsed>
1

$$$$
CHEMBL2208_lig301
                    3D
 Schrodinger Suite 2021-1.
 28 30  0  0  1  0            999 V2000
   39.5529    7.5055   18.4048 C   0  0  0  0  0  0
   38.6088    6.5711   17.9442 C   0  0  0  0  0  0
   40.6290    8.0249   17.1097 S   0  0  0  0  0  0
   38.6750    6.3821   16.5216 C   0  0  0  0  0  0
   39.9344    8.0241   19.7206 C   0  0  0  0  0  0
   39.7673    7.0757   15.9332 C   0  0  0  0  0  0
   37.3936    5.6412   18.8446 S   0  0  0  0  0  0
   38.9952    8.1292   20.6770 N   0  0  0  0  0  0
   37.8502    5.6244   15.6688 C   0  0  0  0  0  0
   41.0788    8.4250   19.9314 O   0  0  0  0  0  0
   40.0720    6.9691   14.5719 C   0  0  0  0  0  0
   38.1344    5.5294   14.3004 C   0  0  0  0  0  0
   39.2507    6.1746   13.7831 C   0  0  0  0  0  0
   37.3655    4.8251   13.3991 O   0  0  0  0  0  0
   37.5899    6.0675   20.5825 C   0  0  0  0  0  0
   37.6504    7.5822   20.7689 C   0  0  0  0  0  0
   36.2136    4.1270   13.8661 C   0  0  0  0  0  0
   39.3690    8.4972   21.5400 H   0  0  0  0  0  0
   37.0004    5.1110   16.0884 H   0  0  0  0  0  0
   40.9155    7.4917   14.1406 H   0  0  0  0  0  0
   39.4760    6.0763   12.7313 H   0  0  0  0  0  0
   38.4651    5.5685   21.0025 H   0  0  0  0  0  0
   36.7212    5.6652   21.1037 H   0  0  0  0  0  0
   36.9206    8.1321   20.1732 H   0  0  0  0  0  0
   37.3656    7.7848   21.8031 H   0  0  0  0  0  0
   35.7363    3.6230   13.0261 H   0  0  0  0  0  0
   36.4767    3.3641   14.6007 H   0  0  0  0  0  0
   35.4791    4.8073   14.3009 H   0  0  0  0  0  0
  1  2  2  0  0  0
  1  3  1  0  0  0
  1  5  1  0  0  0
  2  4  1  0  0  0
  2  7  1  0  0  0
  3  6  1  0  0  0
  4  9  2  0  0  0
  4  6  1  0  0  0
  5  8  1  0  0  0
  5 10  2  0  0  0
  6 11  2  0  0  0
  7 15  1  0  0  0
  8 16  1  0  0  0
  8 18  1  0  0  0
  9 12  1  0  0  0
  9 19  1  0  0  0
 11 13  1  0  0  0
 11 20  1  0  0  0
 12 14  1  0  0  0
 12 13  2  0  0  0
 13 21  1  0  0  0
 14 17  1  0  0  0
 15 16  1  0  0  0
 15 22  1  0  0  0
 15 23  1  0  0  0
 16 24  1  0  0  0
 16 25  1  0  0  0
 17 26  1  0  0  0
 17 27  1  0  0  0
 17 28  1  0  0  0
M  END
> <s_m_entry_id>
7689

> <s_m_entry_name>
dock_pv.250

> <s_m_Source_Path>
/home/csk/Desktop/cluster/DUD-E-result/mapk2

> <s_m_Source_File>
dock_pv.maegz

> <i_m_Source_File_Index>
250

> <chembl_id>
CHEMBL319170

> <chembl_pref_name>
None

> <i_lp_mmshare_version>
53161

> <i_f3d_flags>
0

> <r_lp_tautomer_probability>
1

> <s_lp_Force_Field>
OPLS_2005

> <r_lp_Energy>
20.040491

> <b_lp_Chiralities_Consistent>
1

> <s_lp_Variant>
CHEMBL2208_lig301-1

> <s_i_glide_gridfile>
glide-grid_3m2w

> <i_i_glide_lignum>
440

> <i_i_glide_rotatable_bonds>
1

> <r_i_docking_score>
-6.86296793214796

> <r_i_glide_ligand_efficiency>
-0.403703996008704

> <r_i_glide_ligand_efficiency_sa>
-1.03803665203202

> <r_i_glide_ligand_efficiency_ln>
-1.79039550271568

> <r_i_glide_gscore>
-6.86296793214796

> <r_i_glide_lipo>
-2.49041391057479

> <r_i_glide_hbond>
-0.153167625920355

> <r_i_glide_metal>
0

> <r_i_glide_rewards>
-1.71653086675297

> <r_i_glide_evdw>
-34.7636795043945

> <r_i_glide_ecoul>
-4.65790176391602

> <r_i_glide_erotb>
0

> <r_i_glide_esite>
-0.0659862890927271

> <r_i_glide_emodel>
-54.0986954155484

> <r_i_glide_energy>
-39.4215812683105

> <r_i_glide_einternal>
2.54188704490662

> <i_i_glide_confnum>
1

> <i_i_glide_posenum>
226

> <r_i_glide_eff_state_penalty>
0

> <s_user_duplicate_titles>
CHEMBL2208_lig301

> <s_m_subgroup_title>
dock_pv

> <s_m_subgroupid>
dock_pv

> <b_m_subgroup_collapsed>
1

$$$$
CHEMBL2208_lig46
                    3D
 Schrodinger Suite 2021-1.
 31 33  0  0  1  0            999 V2000
   37.2760    4.7336   21.1745 C   0  0  0  0  0  0
   38.2952    5.3862   20.4438 C   0  0  0  0  0  0
   38.1525    5.6329   19.0638 C   0  0  0  0  0  0
   36.1364    4.2661   20.4912 C   0  0  0  0  0  0
   36.9600    5.2300   18.4439 C   0  0  0  0  0  0
   35.9893    4.5153   19.1315 C   0  0  0  0  0  0
   36.6856    5.4988   17.1201 O   0  0  0  0  0  0
   39.1995    6.3760   18.2179 C   0  0  0  0  0  0
   38.9624    6.2391   16.7159 C   0  0  0  0  0  0
   37.3902    4.5568   22.6293 C   0  0  0  0  0  0
   37.7129    5.7991   16.2546 C   0  0  0  0  0  0
   37.4770    4.4240   23.7753 N   0  0  0  0  0  0
   39.9355    6.5724   15.7641 C   0  0  0  0  0  0
   39.4780    5.8014   21.0698 N   0  0  0  0  0  0
   35.1098    3.5525   21.1175 N   0  0  0  0  0  0
   37.4646    5.6217   14.8934 C   0  0  0  0  0  0
   39.6882    6.4243   14.3958 C   0  0  0  0  0  0
   40.6727    6.7749   13.4728 N   0  0  0  0  0  0
   38.4557    5.9352   13.9628 C   0  0  0  0  0  0
   35.1048    4.1901   18.6026 H   0  0  0  0  0  0
   39.1993    7.4327   18.4885 H   0  0  0  0  0  0
   40.1943    5.9898   18.4463 H   0  0  0  0  0  0
   40.8947    6.9416   16.0967 H   0  0  0  0  0  0
   40.2928    5.8597   20.4759 H   0  0  0  0  0  0
   39.6358    5.4791   22.0205 H   0  0  0  0  0  0
   34.4777    3.0350   20.5254 H   0  0  0  0  0  0
   35.3156    3.1778   22.0328 H   0  0  0  0  0  0
   36.5023    5.2581   14.5631 H   0  0  0  0  0  0
   40.5791    6.5826   12.4800 H   0  0  0  0  0  0
   41.5070    7.2323   13.8060 H   0  0  0  0  0  0
   38.2537    5.8133   12.9099 H   0  0  0  0  0  0
  1  2  2  0  0  0
  1  4  1  0  0  0
  1 10  1  0  0  0
  2  3  1  0  0  0
  2 14  1  0  0  0
  3  8  1  0  0  0
  3  5  2  0  0  0
  4  6  2  0  0  0
  4 15  1  0  0  0
  5  6  1  0  0  0
  5  7  1  0  0  0
  6 20  1  0  0  0
  7 11  1  0  0  0
  8  9  1  0  0  0
  8 21  1  0  0  0
  8 22  1  0  0  0
  9 13  2  0  0  0
  9 11  1  0  0  0
 10 12  3  0  0  0
 11 16  2  0  0  0
 13 17  1  0  0  0
 13 23  1  0  0  0
 14 24  1  0  0  0
 14 25  1  0  0  0
 15 26  1  0  0  0
 15 27  1  0  0  0
 16 19  1  0  0  0
 16 28  1  0  0  0
 17 18  1  0  0  0
 17 19  2  0  0  0
 18 29  1  0  0  0
 18 30  1  0  0  0
 19 31  1  0  0  0
M  END
> <s_m_entry_id>
7690

> <s_m_entry_name>
dock_pv.251

> <s_m_Source_Path>
/home/csk/Desktop/cluster/DUD-E-result/mapk2

> <s_m_Source_File>
dock_pv.maegz

> <i_m_Source_File_Index>
251

> <chembl_id>
CHEMBL3706774

> <chembl_pref_name>
None

> <i_lp_mmshare_version>
53161

> <i_f3d_flags>
0

> <r_lp_tautomer_probability>
1

> <s_lp_Force_Field>
OPLS_2005

> <r_lp_Energy>
25.298815

> <b_lp_Chiralities_Consistent>
1

> <s_lp_Variant>
CHEMBL2208_lig46-1

> <s_i_glide_gridfile>
glide-grid_3m2w

> <i_i_glide_lignum>
51

> <i_i_glide_rotatable_bonds>
0

> <r_i_docking_score>
-6.8583057018041

> <r_i_glide_ligand_efficiency>
-0.360963457989689

> <r_i_glide_ligand_efficiency_sa>
-0.963195485482705

> <r_i_glide_ligand_efficiency_ln>
-1.73872779830744

> <r_i_glide_gscore>
-6.8583057018041

> <r_i_glide_lipo>
-1.98261089062021

> <r_i_glide_hbond>
-0.562631241433374

> <r_i_glide_metal>
0

> <r_i_glide_rewards>
-1.80166839817826

> <r_i_glide_evdw>
-31.8104038238525

> <r_i_glide_ecoul>
-5.49800300598145

> <r_i_glide_erotb>
0

> <r_i_glide_esite>
-0.0961745294824096

> <r_i_glide_emodel>
-51.5284118650767

> <r_i_glide_energy>
-37.308406829834

> <r_i_glide_einternal>
0

> <i_i_glide_confnum>
1

> <i_i_glide_posenum>
34

> <r_i_glide_eff_state_penalty>
0

> <s_user_duplicate_titles>
CHEMBL2208_lig46

> <s_m_subgroup_title>
dock_pv

> <s_m_subgroupid>
dock_pv

> <b_m_subgroup_collapsed>
1

$$$$
CHEMBL2208_lig1
                    3D
 Schrodinger Suite 2021-1.
 30 32  0  0  1  0            999 V2000
   39.6833    6.2631   14.3937 C   0  0  0  0  0  0
   38.4106    5.8346   13.9924 C   0  0  0  0  0  0
   37.4139    5.6255   14.9439 C   0  0  0  0  0  0
   39.9573    6.4367   15.7533 C   0  0  0  0  0  0
   38.9768    6.2011   16.7253 C   0  0  0  0  0  0
   37.6946    5.8347   16.2910 C   0  0  0  0  0  0
   36.6505    5.6802   17.1715 O   0  0  0  0  0  0
   39.2419    6.3404   18.2220 C   0  0  0  0  0  0
   38.1535    5.6699   19.0752 C   0  0  0  0  0  0
   36.9211    5.3655   18.4830 C   0  0  0  0  0  0
   35.8789    4.8058   19.1339 N   0  0  0  0  0  0
   36.0165    4.5439   20.4503 C   0  0  0  0  0  0
   37.1882    4.8458   21.1686 C   0  0  0  0  0  0
   38.2706    5.3989   20.4489 C   0  0  0  0  0  0
   37.2694    4.6076   22.6155 C   0  0  0  0  0  0
   37.3304    4.4244   23.7560 N   0  0  0  0  0  0
   34.8921    3.9579   21.0323 N   0  0  0  0  0  0
   39.4849    5.6943   21.0719 N   0  0  0  0  0  0
   40.6762    6.5196   13.4792 O   0  0  0  0  0  0
   38.1152    5.6248   12.6718 O   0  0  0  0  0  0
   36.4197    5.3199   14.6517 H   0  0  0  0  0  0
   40.9479    6.7477   16.0542 H   0  0  0  0  0  0
   39.3088    7.3974   18.4821 H   0  0  0  0  0  0
   40.2124    5.8949   18.4476 H   0  0  0  0  0  0
   34.9700    3.5907   21.9694 H   0  0  0  0  0  0
   34.1463    3.6651   20.4194 H   0  0  0  0  0  0
   40.3070    5.6789   20.4834 H   0  0  0  0  0  0
   39.6091    5.3723   22.0279 H   0  0  0  0  0  0
   40.4208    6.4237   12.5550 H   0  0  0  0  0  0
   37.2109    5.3237   12.5422 H   0  0  0  0  0  0
  1  4  1  0  0  0
  1  2  2  0  0  0
  1 19  1  0  0  0
  2  3  1  0  0  0
  2 20  1  0  0  0
  3  6  2  0  0  0
  3 21  1  0  0  0
  4  5  2  0  0  0
  4 22  1  0  0  0
  5  6  1  0  0  0
  5  8  1  0  0  0
  6  7  1  0  0  0
  7 10  1  0  0  0
  8  9  1  0  0  0
  8 23  1  0  0  0
  8 24  1  0  0  0
  9 10  2  0  0  0
  9 14  1  0  0  0
 10 11  1  0  0  0
 11 12  2  0  0  0
 12 13  1  0  0  0
 12 17  1  0  0  0
 13 14  2  0  0  0
 13 15  1  0  0  0
 14 18  1  0  0  0
 15 16  3  0  0  0
 17 25  1  0  0  0
 17 26  1  0  0  0
 18 27  1  0  0  0
 18 28  1  0  0  0
 19 29  1  0  0  0
 20 30  1  0  0  0
M  END
> <s_m_entry_id>
7691

> <s_m_entry_name>
dock_pv.252

> <s_m_Source_Path>
/home/csk/Desktop/cluster/DUD-E-result/mapk2

> <s_m_Source_File>
dock_pv.maegz

> <i_m_Source_File_Index>
252

> <chembl_id>
CHEMBL397819

> <chembl_pref_name>
None

> <i_lp_mmshare_version>
53161

> <i_f3d_flags>
0

> <r_lp_tautomer_probability>
0.999999724415991

> <s_lp_Force_Field>
OPLS_2005

> <r_lp_Energy>
18.85304

> <b_lp_Chiralities_Consistent>
1

> <s_lp_Variant>
CHEMBL2208_lig1-1

> <s_i_glide_gridfile>
glide-grid_3m2w

> <i_i_glide_lignum>
1

> <i_i_glide_rotatable_bonds>
2

> <r_i_docking_score>
-6.8570401495451

> <r_i_glide_ligand_efficiency>
-0.342852007477255

> <r_i_glide_ligand_efficiency_sa>
-0.93064352805187

> <r_i_glide_ligand_efficiency_ln>
-1.71609098911077

> <r_i_glide_gscore>
-6.8570401495451

> <r_i_glide_lipo>
-1.91755849888518

> <r_i_glide_hbond>
-0.394462551828671

> <r_i_glide_metal>
0

> <r_i_glide_rewards>
-1.68240795744357

> <r_i_glide_evdw>
-34.191219329834

> <r_i_glide_ecoul>
-7.0522928237915

> <r_i_glide_erotb>
0

> <r_i_glide_esite>
-0.0952062513272512

> <r_i_glide_emodel>
-57.8337637254531

> <r_i_glide_energy>
-41.2435121536255

> <r_i_glide_einternal>
0.0598046332597733

> <i_i_glide_confnum>
1

> <i_i_glide_posenum>
64

> <r_i_glide_eff_state_penalty>
0

> <s_user_duplicate_titles>
CHEMBL2208_lig1,CHEMBL2208_lig611

> <s_m_subgroup_title>
dock_pv

> <s_m_subgroupid>
dock_pv

> <b_m_subgroup_collapsed>
1

$$$$
CHEMBL2208_lig1133
                    3D
 Schrodinger Suite 2021-1.
 28 30  0  0  1  0            999 V2000
   37.5720    5.3464   21.6691 S   0  0  0  0  0  0
   38.3580    5.6233   12.6304 F   0  0  0  0  0  0
   34.6780    3.5816   20.1627 O   0  0  0  0  0  0
   40.0501    8.0109   19.8457 N   0  0  0  0  0  0
   36.2780    2.4255   21.2504 N   0  0  0  0  0  0
   38.2407    5.9545   19.1716 C   0  0  0  0  0  0
   38.4904    6.3196   20.5290 C   0  0  0  0  0  0
   38.9476    6.6394   18.1457 C   0  0  0  0  0  0
   36.8097    4.5014   20.3394 C   0  0  0  0  0  0
   37.2711    4.9091   19.1045 C   0  0  0  0  0  0
   38.7888    6.3243   16.6910 C   0  0  0  0  0  0
   39.3954    7.3438   20.8222 C   0  0  0  0  0  0
   39.8249    7.6521   18.5613 C   0  0  0  0  0  0
   35.8283    3.4872   20.5848 C   0  0  0  0  0  0
   37.5323    6.0327   16.1416 C   0  0  0  0  0  0
   39.9075    6.3362   15.8416 C   0  0  0  0  0  0
   37.3899    5.7802   14.7817 C   0  0  0  0  0  0
   39.7681    6.0859   14.4794 C   0  0  0  0  0  0
   38.5059    5.8241   13.9555 C   0  0  0  0  0  0
   37.2641    2.3354   21.4724 H   0  0  0  0  0  0
   35.6745    1.6188   21.3898 H   0  0  0  0  0  0
   36.9312    4.4538   18.1874 H   0  0  0  0  0  0
   39.6062    7.6260   21.8459 H   0  0  0  0  0  0
   40.3781    8.2261   17.8331 H   0  0  0  0  0  0
   36.6419    6.0539   16.7525 H   0  0  0  0  0  0
   40.8925    6.5421   16.2359 H   0  0  0  0  0  0
   36.4146    5.5780   14.3665 H   0  0  0  0  0  0
   40.6304    6.1055   13.8266 H   0  0  0  0  0  0
  1  7  1  0  0  0
  1  9  1  0  0  0
  2 19  1  0  0  0
  3 14  2  0  0  0
  4 12  1  0  0  0
  4 13  2  0  0  0
  5 14  1  0  0  0
  5 20  1  0  0  0
  5 21  1  0  0  0
  6  7  1  0  0  0
  6  8  2  0  0  0
  6 10  1  0  0  0
  7 12  2  0  0  0
  8 11  1  0  0  0
  8 13  1  0  0  0
  9 10  2  0  0  0
  9 14  1  0  0  0
 10 22  1  0  0  0
 11 15  2  0  0  0
 11 16  1  0  0  0
 12 23  1  0  0  0
 13 24  1  0  0  0
 15 17  1  0  0  0
 15 25  1  0  0  0
 16 18  2  0  0  0
 16 26  1  0  0  0
 17 19  2  0  0  0
 17 27  1  0  0  0
 18 19  1  0  0  0
 18 28  1  0  0  0
M  END
> <s_m_entry_id>
7693

> <s_m_entry_name>
dock_pv.254

> <s_m_Source_Path>
/home/csk/Desktop/cluster/DUD-E-result/mapk2

> <s_m_Source_File>
dock_pv.maegz

> <i_m_Source_File_Index>
254

> <chembl_id>
CHEMBL1974310

> <chembl_pref_name>
None

> <i_lp_mmshare_version>
53161

> <i_f3d_flags>
0

> <r_lp_tautomer_probability>
1

> <s_lp_Force_Field>
OPLS_2005

> <r_lp_Energy>
9.401779

> <b_lp_Chiralities_Consistent>
1

> <s_lp_Variant>
CHEMBL2208_lig1133-1

> <s_i_glide_gridfile>
glide-grid_3m2w

> <i_i_glide_lignum>
1515

> <i_i_glide_rotatable_bonds>
2

> <r_i_docking_score>
-6.85661052785171

> <r_i_glide_ligand_efficiency>
-0.360874238307984

> <r_i_glide_ligand_efficiency_sa>
-0.962957411537179

> <r_i_glide_ligand_efficiency_ln>
-1.73829803530151

> <r_i_glide_gscore>
-6.85661052785171

> <r_i_glide_lipo>
-1.97896649198029

> <r_i_glide_hbond>
-0.456

> <r_i_glide_metal>
0

> <r_i_glide_rewards>
-1.68289987918998

> <r_i_glide_evdw>
-30.9200897216797

> <r_i_glide_ecoul>
-8.60680675506592

> <r_i_glide_erotb>
0.241673844682956

> <r_i_glide_esite>
-0.143392502020518

> <r_i_glide_emodel>
-54.3822032886301

> <r_i_glide_energy>
-39.5268964767456

> <r_i_glide_einternal>
5.62183856964111

> <i_i_glide_confnum>
2

> <i_i_glide_posenum>
285

> <r_i_glide_eff_state_penalty>
0

> <s_user_duplicate_titles>
CHEMBL2208_lig1133

> <s_m_subgroup_title>
dock_pv

> <s_m_subgroupid>
dock_pv

> <b_m_subgroup_collapsed>
1

$$$$
CHEMBL2208_lig153
                    3D
 Schrodinger Suite 2021-1.
 39 42  0  0  1  0            999 V2000
   38.2489    6.0973   19.4538 C   0  0  1  0  0  0
   39.1316    6.2787   14.0770 C   0  0  0  0  0  0
   38.0537    5.6220   14.6900 C   0  0  0  0  0  0
   37.9011    5.6988   16.0824 C   0  0  0  0  0  0
   40.0549    7.0438   14.7861 C   0  0  0  0  0  0
   39.8888    7.0953   16.1687 C   0  0  0  0  0  0
   38.8336    6.4107   16.8371 C   0  0  0  0  0  0
   40.6067    7.7472   17.1413 N   0  0  0  0  0  0
   40.0859    7.4770   18.3826 C   0  0  0  0  0  0
   39.0072    6.6199   18.2379 C   0  0  0  0  0  0
   39.2039    6.2315   20.6740 C   0  0  0  0  0  0
   39.8566    7.5595   20.6719 N   0  0  0  0  0  0
   40.5779    8.0116   19.6193 C   0  0  0  0  0  0
   41.4781    8.8250   19.7735 O   0  0  0  0  0  0
   36.9166    6.8249   19.6767 C   0  0  0  0  0  0
   37.0884    4.8249   13.8443 C   0  0  0  0  0  0
   36.1649    4.0931   14.5149 N   0  0  0  0  0  0
   37.2090    4.8266   12.6163 O   0  0  0  0  0  0
   35.1792    3.2428   13.9922 C   0  0  0  0  0  0
   34.4633    2.4449   14.8931 C   0  0  0  0  0  0
   33.4544    1.6316   14.4829 N   0  0  0  0  0  0
   33.1584    1.6305   13.1573 C   0  0  0  0  0  0
   33.8669    2.4249   12.2531 C   0  0  0  0  0  0
   34.8895    3.2190   12.6605 N   0  0  0  0  0  0
   38.0318    5.0364   19.3197 H   0  0  0  0  0  0
   39.2704    6.2052   13.0085 H   0  0  0  0  0  0
   37.0919    5.2097   16.6034 H   0  0  0  0  0  0
   40.8610    7.5566   14.2823 H   0  0  0  0  0  0
   41.4061    8.3521   17.0151 H   0  0  0  0  0  0
   39.9730    5.4565   20.6463 H   0  0  0  0  0  0
   38.6672    6.0877   21.6138 H   0  0  0  0  0  0
   40.0240    7.9908   21.5690 H   0  0  0  0  0  0
   36.2784    6.7326   18.7980 H   0  0  0  0  0  0
   36.3727    6.4092   20.5259 H   0  0  0  0  0  0
   37.0666    7.8865   19.8720 H   0  0  0  0  0  0
   36.1868    4.1394   15.5194 H   0  0  0  0  0  0
   34.6671    2.4558   15.9541 H   0  0  0  0  0  0
   32.3498    0.9919   12.8334 H   0  0  0  0  0  0
   33.6341    2.4259   11.1980 H   0  0  0  0  0  0
  1 10  1  0  0  0
  1 11  1  0  0  0
  1 15  1  0  0  0
  1 25  1  0  0  0
  2  3  2  0  0  0
  2  5  1  0  0  0
  2 26  1  0  0  0
  3  4  1  0  0  0
  3 16  1  0  0  0
  4  7  2  0  0  0
  4 27  1  0  0  0
  5  6  2  0  0  0
  5 28  1  0  0  0
  6  8  1  0  0  0
  6  7  1  0  0  0
  7 10  1  0  0  0
  8  9  1  0  0  0
  8 29  1  0  0  0
  9 13  1  0  0  0
  9 10  2  0  0  0
 11 12  1  0  0  0
 11 30  1  0  0  0
 11 31  1  0  0  0
 12 13  1  0  0  0
 12 32  1  0  0  0
 13 14  2  0  0  0
 15 33  1  0  0  0
 15 34  1  0  0  0
 15 35  1  0  0  0
 16 17  1  0  0  0
 16 18  2  0  0  0
 17 19  1  0  0  0
 17 36  1  0  0  0
 19 20  2  0  0  0
 19 24  1  0  0  0
 20 21  1  0  0  0
 20 37  1  0  0  0
 21 22  2  0  0  0
 22 23  1  0  0  0
 22 38  1  0  0  0
 23 24  2  0  0  0
 23 39  1  0  0  0
M  END
> <s_m_entry_id>
7694

> <s_m_entry_name>
dock_pv.255

> <s_m_Source_Path>
/home/csk/Desktop/cluster/DUD-E-result/mapk2

> <s_m_Source_File>
dock_pv.maegz

> <i_m_Source_File_Index>
255

> <chembl_id>
CHEMBL392596

> <chembl_pref_name>
None

> <i_lp_mmshare_version>
53161

> <i_f3d_flags>
0

> <r_lp_tautomer_probability>
1

> <s_lp_Force_Field>
OPLS_2005

> <r_lp_Energy>
32.365325

> <b_lp_Chiralities_Consistent>
1

> <s_lp_Variant>
CHEMBL2208_lig153-2

> <s_i_glide_gridfile>
glide-grid_3m2w

> <i_i_glide_lignum>
228

> <i_i_glide_rotatable_bonds>
3

> <r_i_docking_score>
-6.85369895370233

> <r_i_glide_ligand_efficiency>
-0.285570789737597

> <r_i_glide_ligand_efficiency_sa>
-0.823728696710176

> <r_i_glide_ligand_efficiency_ln>
-1.64040465537314

> <r_i_glide_gscore>
-6.85369895370233

> <r_i_glide_lipo>
-2.54847039072022

> <r_i_glide_hbond>
-0.343069436527845

> <r_i_glide_metal>
0

> <r_i_glide_rewards>
-1.38957116360654

> <r_i_glide_evdw>
-35.5415534973145

> <r_i_glide_ecoul>
-8.22445011138916

> <r_i_glide_erotb>
0.54288247228896

> <r_i_glide_esite>
-0.104725243562599

> <r_i_glide_emodel>
-61.382065114355

> <r_i_glide_energy>
-43.7660036087036

> <r_i_glide_einternal>
0.137905761599541

> <i_i_glide_confnum>
1

> <i_i_glide_posenum>
6

> <r_i_glide_eff_state_penalty>
0

> <s_user_duplicate_titles>
CHEMBL2208_lig153,412030

> <s_m_subgroup_title>
dock_pv

> <s_m_subgroupid>
dock_pv

> <b_m_subgroup_collapsed>
1

$$$$
CHEMBL2208_lig110
                    3D
 Schrodinger Suite 2021-1.
 49 53  0  0  1  0            999 V2000
   38.2356    6.1655   20.8574 C   0  0  0  0  0  0
   37.0247    5.4698   20.7230 C   0  0  0  0  0  0
   36.4385    5.2252   19.4803 C   0  0  0  0  0  0
   38.8953    6.6419   19.7279 C   0  0  0  0  0  0
   38.3440    6.4251   18.4598 C   0  0  0  0  0  0
   37.1083    5.7175   18.3573 C   0  0  0  0  0  0
   36.7938    5.6608   17.0150 N   0  0  0  0  0  0
   38.7431    6.7650   17.1271 C   0  0  0  0  0  0
   37.7963    6.2350   16.2669 C   0  0  0  0  0  0
   37.8802    6.4419   14.7340 C   0  0  1  0  0  0
   39.2261    6.9643   14.3539 N   0  0  1  0  0  0
   39.5276    8.1238   15.2059 C   0  0  0  0  0  0
   39.9618    7.4799   16.5393 C   0  0  2  0  0  0
   37.3693    5.2562   13.8839 C   0  0  0  0  0  0
   36.2784    4.6439   14.4153 O   0  0  0  0  0  0
   37.8706    4.9997   12.7876 O   0  0  0  0  0  0
   38.8521    6.4322   22.0601 O   0  0  0  0  0  0
   38.3594    5.8279   23.2503 C   0  0  0  0  0  0
   40.9576    6.4638   15.9986 C   0  0  0  0  0  0
   40.3431    6.0493   14.6423 C   0  0  0  0  0  0
   35.5795    3.6073   13.7302 C   0  0  0  0  0  0
   35.1483    2.4691   14.6571 C   0  0  0  0  0  0
   35.5885    2.3755   15.9834 C   0  0  0  0  0  0
   35.1511    1.3340   16.7966 C   0  0  0  0  0  0
   34.2745    0.3815   16.2844 C   0  0  0  0  0  0
   33.8402    0.4555   14.9620 C   0  0  0  0  0  0
   34.2789    1.4984   14.1498 C   0  0  0  0  0  0
   36.5139    5.0997   21.5994 H   0  0  0  0  0  0
   35.5076    4.6817   19.3998 H   0  0  0  0  0  0
   39.8326    7.1628   19.8377 H   0  0  0  0  0  0
   35.9721    5.2456   16.5938 H   0  0  0  0  0  0
   37.1864    7.2249   14.4371 H   0  0  0  0  0  0
   38.6794    8.8022   15.3163 H   0  0  0  0  0  0
   40.3426    8.7023   14.7663 H   0  0  0  0  0  0
   40.3794    8.1880   17.2559 H   0  0  0  0  0  0
   39.0625    6.0251   24.0609 H   0  0  0  0  0  0
   37.3892    6.2388   23.5332 H   0  0  0  0  0  0
   38.2774    4.7433   23.1526 H   0  0  0  0  0  0
   41.0767    5.6255   16.6759 H   0  0  0  0  0  0
   41.9290    6.9394   15.8721 H   0  0  0  0  0  0
   40.0489    4.9990   14.6375 H   0  0  0  0  0  0
   41.0784    6.1612   13.8468 H   0  0  0  0  0  0
   36.1431    3.2253   12.8844 H   0  0  0  0  0  0
   34.6780    4.0249   13.2982 H   0  0  0  0  0  0
   36.2722    3.0999   16.3967 H   0  0  0  0  0  0
   35.4878    1.2656   17.8212 H   0  0  0  0  0  0
   33.9298   -0.4211   16.9195 H   0  0  0  0  0  0
   33.1582   -0.2871   14.5731 H   0  0  0  0  0  0
   33.9338    1.5560   13.1269 H   0  0  0  0  0  0
  1 17  1  0  0  0
  1  2  2  0  0  0
  1  4  1  0  0  0
  2  3  1  0  0  0
  2 28  1  0  0  0
  3  6  2  0  0  0
  3 29  1  0  0  0
  4  5  2  0  0  0
  4 30  1  0  0  0
  5  8  1  0  0  0
  5  6  1  0  0  0
  6  7  1  0  0  0
  7  9  1  0  0  0
  7 31  1  0  0  0
  8  9  2  0  0  0
  8 13  1  0  0  0
  9 10  1  0  0  0
 10 14  1  0  0  0
 10 11  1  0  0  0
 10 32  1  0  0  0
 11 12  1  0  0  0
 11 20  1  0  0  0
 12 13  1  0  0  0
 12 33  1  0  0  0
 12 34  1  0  0  0
 13 19  1  0  0  0
 13 35  1  0  0  0
 14 15  1  0  0  0
 14 16  2  0  0  0
 15 21  1  0  0  0
 17 18  1  0  0  0
 18 36  1  0  0  0
 18 37  1  0  0  0
 18 38  1  0  0  0
 19 20  1  0  0  0
 19 39  1  0  0  0
 19 40  1  0  0  0
 20 41  1  0  0  0
 20 42  1  0  0  0
 21 22  1  0  0  0
 21 43  1  0  0  0
 21 44  1  0  0  0
 22 23  2  0  0  0
 22 27  1  0  0  0
 23 24  1  0  0  0
 23 45  1  0  0  0
 24 25  2  0  0  0
 24 46  1  0  0  0
 25 26  1  0  0  0
 25 47  1  0  0  0
 26 27  2  0  0  0
 26 48  1  0  0  0
 27 49  1  0  0  0
M  END
> <s_m_entry_id>
7695

> <s_m_entry_name>
dock_pv.256

> <s_m_Source_Path>
/home/csk/Desktop/cluster/DUD-E-result/mapk2

> <s_m_Source_File>
dock_pv.maegz

> <i_m_Source_File_Index>
256

> <chembl_id>
CHEMBL245661

> <chembl_pref_name>
None

> <i_lp_mmshare_version>
53161

> <i_f3d_flags>
0

> <r_lp_tautomer_probability>
1

> <s_lp_Force_Field>
OPLS_2005

> <r_lp_Energy>
53.888005

> <b_lp_Chiralities_Consistent>
1

> <s_lp_Variant>
CHEMBL2208_lig110-2

> <s_i_glide_gridfile>
glide-grid_3m2w

> <i_i_glide_lignum>
127

> <i_i_glide_rotatable_bonds>
5

> <r_i_docking_score>
-6.85168397098258

> <r_i_glide_ligand_efficiency>
-0.253766072999355

> <r_i_glide_ligand_efficiency_sa>
-0.761298218161693

> <r_i_glide_ligand_efficiency_ln>
-1.59495906960627

> <r_i_glide_gscore>
-6.85168397098258

> <r_i_glide_lipo>
-2.6794011944126

> <r_i_glide_hbond>
-0.450299749456773

> <r_i_glide_metal>
0

> <r_i_glide_rewards>
-1.80782672729914

> <r_i_glide_evdw>
-37.4966850280762

> <r_i_glide_ecoul>
-3.18592047691345

> <r_i_glide_erotb>
0.438566023126752

> <r_i_glide_esite>
0

> <r_i_glide_emodel>
-51.6450766417998

> <r_i_glide_energy>
-40.6826055049896

> <r_i_glide_einternal>
10.2056531906128

> <i_i_glide_confnum>
8

> <i_i_glide_posenum>
202

> <r_i_glide_eff_state_penalty>
0

> <s_user_duplicate_titles>
CHEMBL2208_lig110

> <s_m_subgroup_title>
dock_pv

> <s_m_subgroupid>
dock_pv

> <b_m_subgroup_collapsed>
1

$$$$
CHEMBL2208_lig113
                    3D
 Schrodinger Suite 2021-1.
 37 39  0  0  1  0            999 V2000
   37.0616    4.9378   14.4661 C   0  0  0  0  0  0
   37.9595    5.5572   13.6010 C   0  0  0  0  0  0
   38.9593    6.4229   14.0399 C   0  0  0  0  0  0
   37.1240    5.1973   15.8429 C   0  0  0  0  0  0
   38.1093    6.0711   16.3338 C   0  0  0  0  0  0
   38.9991    6.6934   15.4074 C   0  0  0  0  0  0
   39.7974    7.5518   16.1303 N   0  0  0  0  0  0
   38.4812    6.5382   17.6409 C   0  0  0  0  0  0
   39.5206    7.4370   17.4736 C   0  0  0  0  0  0
   40.1325    8.2341   18.6321 C   0  0  1  0  0  0
   39.8721    7.5448   19.9060 N   0  0  1  0  0  0
   38.4425    7.2434   20.0895 C   0  0  1  0  0  0
   37.9409    6.2092   19.0283 C   0  0  0  0  0  0
   41.6522    8.5398   18.5617 C   0  0  0  0  0  0
   42.2767    8.0250   17.4720 O   0  0  0  0  0  0
   42.2381    9.2250   19.3953 O   0  0  0  0  0  0
   36.1610    4.0794   13.8718 O   0  0  0  0  0  0
   35.4243    3.1582   14.6649 C   0  0  0  0  0  0
   38.0815    6.7678   21.5157 C   0  0  0  0  0  0
   38.2781    7.8171   22.5036 N   0  0  0  0  0  0
   37.8779    5.3384   12.5479 H   0  0  0  0  0  0
   39.6645    6.8562   13.3471 H   0  0  0  0  0  0
   36.4299    4.7336   16.5268 H   0  0  0  0  0  0
   40.4669    8.2117   15.7582 H   0  0  0  0  0  0
   39.6791    9.2245   18.6709 H   0  0  0  0  0  0
   40.3832    6.6710   19.9592 H   0  0  0  0  0  0
   37.8976    8.1754   19.9235 H   0  0  0  0  0  0
   38.2560    5.2023   19.3069 H   0  0  0  0  0  0
   36.8504    6.1943   19.0210 H   0  0  0  0  0  0
   41.7010    7.4270   16.9922 H   0  0  0  0  0  0
   35.0837    2.3451   14.0243 H   0  0  0  0  0  0
   36.0180    2.7097   15.4628 H   0  0  0  0  0  0
   34.5358    3.6250   15.0817 H   0  0  0  0  0  0
   38.6755    5.8942   21.7910 H   0  0  0  0  0  0
   37.0345    6.4636   21.5550 H   0  0  0  0  0  0
   38.0617    7.4529   23.4219 H   0  0  0  0  0  0
   39.2691    8.0246   22.5496 H   0  0  0  0  0  0
  1  4  1  0  0  0
  1 17  1  0  0  0
  1  2  2  0  0  0
  2  3  1  0  0  0
  2 21  1  0  0  0
  3  6  2  0  0  0
  3 22  1  0  0  0
  4  5  2  0  0  0
  4 23  1  0  0  0
  5  6  1  0  0  0
  5  8  1  0  0  0
  6  7  1  0  0  0
  7  9  1  0  0  0
  7 24  1  0  0  0
  8 13  1  0  0  0
  8  9  2  0  0  0
  9 10  1  0  0  0
 10 11  1  0  0  0
 10 14  1  0  0  0
 10 25  1  0  0  0
 11 12  1  0  0  0
 11 26  1  0  0  0
 12 13  1  0  0  0
 12 19  1  0  0  0
 12 27  1  0  0  0
 13 28  1  0  0  0
 13 29  1  0  0  0
 14 15  1  0  0  0
 14 16  2  0  0  0
 15 30  1  0  0  0
 17 18  1  0  0  0
 18 31  1  0  0  0
 18 32  1  0  0  0
 18 33  1  0  0  0
 19 20  1  0  0  0
 19 34  1  0  0  0
 19 35  1  0  0  0
 20 36  1  0  0  0
 20 37  1  0  0  0
M  END
> <s_m_entry_id>
7696

> <s_m_entry_name>
dock_pv.257

> <s_m_Source_Path>
/home/csk/Desktop/cluster/DUD-E-result/mapk2

> <s_m_Source_File>
dock_pv.maegz

> <i_m_Source_File_Index>
257

> <chembl_id>
CHEMBL248525

> <chembl_pref_name>
None

> <i_lp_mmshare_version>
53161

> <i_f3d_flags>
0

> <r_lp_tautomer_probability>
1

> <s_lp_Force_Field>
OPLS_2005

> <r_lp_Energy>
23.71592

> <b_lp_Chiralities_Consistent>
1

> <s_lp_Variant>
CHEMBL2208_lig113-4

> <s_i_glide_gridfile>
glide-grid_3m2w

> <i_i_glide_lignum>
141

> <i_i_glide_rotatable_bonds>
4

> <r_i_docking_score>
-6.84800084010299

> <r_i_glide_ligand_efficiency>
-0.342400042005149

> <r_i_glide_ligand_efficiency_sa>
-0.929416705013519

> <r_i_glide_ligand_efficiency_ln>
-1.71382874809379

> <r_i_glide_gscore>
-6.84800084010299

> <r_i_glide_lipo>
-2.26469030283009

> <r_i_glide_hbond>
-0.234530712040358

> <r_i_glide_metal>
0

> <r_i_glide_rewards>
-1.91971181448582

> <r_i_glide_evdw>
-30.5700187683105

> <r_i_glide_ecoul>
-7.58459758758545

> <r_i_glide_erotb>
0.237122565806624

> <r_i_glide_esite>
0

> <r_i_glide_emodel>
-54.307196924763

> <r_i_glide_energy>
-38.154616355896

> <r_i_glide_einternal>
3.46961808204651

> <i_i_glide_confnum>
1

> <i_i_glide_posenum>
147

> <r_i_glide_eff_state_penalty>
0

> <s_user_duplicate_titles>
CHEMBL2208_lig113

> <s_m_subgroup_title>
dock_pv

> <s_m_subgroupid>
dock_pv

> <b_m_subgroup_collapsed>
1

$$$$
CHEMBL2208_lig1105
                    3D
 Schrodinger Suite 2021-1.
 48 51  0  0  1  0            999 V2000
   39.4623    7.4454   17.7027 C   0  0  0  0  0  0
   40.0573    7.7773   16.4980 C   0  0  0  0  0  0
   39.6689    7.1607   15.3214 C   0  0  0  0  0  0
   38.4313    6.4900   17.7622 C   0  0  0  0  0  0
   38.0094    5.9011   16.5501 C   0  0  0  0  0  0
   38.6315    6.2168   15.3265 C   0  0  0  0  0  0
   38.1990    5.5157   14.0822 C   0  0  0  0  0  0
   37.1412    4.5642   14.2773 C   0  0  0  0  0  0
   36.6093    4.2865   15.4845 C   0  0  0  0  0  0
   36.9753    4.9718   16.6053 O   0  0  0  0  0  0
   35.5616    3.2250   15.7051 C   0  0  0  0  0  0
   35.3724    2.5250   16.9227 C   0  0  0  0  0  0
   34.4060    1.5220   17.0291 C   0  0  0  0  0  0
   33.6068    1.1870   15.9417 C   0  0  0  0  0  0
   33.7759    1.8549   14.7349 C   0  0  0  0  0  0
   36.2781    2.8384   18.3581 Cl  0  0  0  0  0  0
   34.7410    2.8521   14.6230 C   0  0  0  0  0  0
   40.3504    7.4994   14.1844 O   0  0  0  0  0  0
   38.7241    5.6940   12.9858 O   0  0  0  0  0  0
   39.9360    8.0679   18.8207 O   0  0  0  0  0  0
   37.7918    6.0826   19.1164 C   0  0  1  0  0  0
   38.7305    5.2797   20.0589 C   0  0  2  0  0  0
   37.9792    4.8019   21.3249 C   0  0  0  0  0  0
   37.2970    5.9098   22.0134 N   0  0  1  0  0  0
   36.3790    6.6712   21.1607 C   0  0  0  0  0  0
   37.0718    7.2109   19.8876 C   0  0  0  0  0  0
   39.8780    6.0119   20.4589 O   0  0  0  0  0  0
   36.6544    5.4532   23.2405 C   0  0  0  0  0  0
   40.8570    8.5029   16.4803 H   0  0  0  0  0  0
   36.8258    4.0227   13.4042 H   0  0  0  0  0  0
   34.2707    1.0031   17.9683 H   0  0  0  0  0  0
   32.8575    0.4168   16.0358 H   0  0  0  0  0  0
   33.1570    1.6050   13.8857 H   0  0  0  0  0  0
   34.8270    3.3466   13.6688 H   0  0  0  0  0  0
   40.0295    6.9970   13.4257 H   0  0  0  0  0  0
   39.8185    7.4560   19.5680 H   0  0  0  0  0  0
   36.9815    5.4028   18.8682 H   0  0  0  0  0  0
   39.0994    4.4119   19.5086 H   0  0  0  0  0  0
   38.6835    4.3311   22.0130 H   0  0  0  0  0  0
   37.2496    4.0314   21.0709 H   0  0  0  0  0  0
   35.9955    7.5133   21.7384 H   0  0  0  0  0  0
   35.5152    6.0544   20.9057 H   0  0  0  0  0  0
   36.2778    7.6231   19.2687 H   0  0  0  0  0  0
   37.7279    8.0371   20.1596 H   0  0  0  0  0  0
   40.5308    5.3846   20.8032 H   0  0  0  0  0  0
   37.3672    4.9282   23.8782 H   0  0  0  0  0  0
   36.2794    6.3007   23.8136 H   0  0  0  0  0  0
   35.8207    4.7799   23.0358 H   0  0  0  0  0  0
  1  2  2  0  0  0
  1  4  1  0  0  0
  1 20  1  0  0  0
  2  3  1  0  0  0
  2 29  1  0  0  0
  3  6  2  0  0  0
  3 18  1  0  0  0
  4  5  2  0  0  0
  4 21  1  0  0  0
  5 10  1  0  0  0
  5  6  1  0  0  0
  6  7  1  0  0  0
  7  8  1  0  0  0
  7 19  2  0  0  0
  8  9  2  0  0  0
  8 30  1  0  0  0
  9 10  1  0  0  0
  9 11  1  0  0  0
 11 17  1  0  0  0
 11 12  2  0  0  0
 12 16  1  0  0  0
 12 13  1  0  0  0
 13 14  2  0  0  0
 13 31  1  0  0  0
 14 15  1  0  0  0
 14 32  1  0  0  0
 15 17  2  0  0  0
 15 33  1  0  0  0
 17 34  1  0  0  0
 18 35  1  0  0  0
 20 36  1  0  0  0
 21 22  1  0  0  0
 21 26  1  0  0  0
 21 37  1  0  0  0
 22 23  1  0  0  0
 22 27  1  0  0  0
 22 38  1  0  0  0
 23 24  1  0  0  0
 23 39  1  0  0  0
 23 40  1  0  0  0
 24 25  1  0  0  0
 24 28  1  0  0  0
 25 26  1  0  0  0
 25 41  1  0  0  0
 25 42  1  0  0  0
 26 43  1  0  0  0
 26 44  1  0  0  0
 27 45  1  0  0  0
 28 46  1  0  0  0
 28 47  1  0  0  0
 28 48  1  0  0  0
M  END
> <s_m_entry_id>
7697

> <s_m_entry_name>
dock_pv.258

> <s_m_Source_Path>
/home/csk/Desktop/cluster/DUD-E-result/mapk2

> <s_m_Source_File>
dock_pv.maegz

> <i_m_Source_File_Index>
258

> <chembl_id>
CHEMBL422897

> <chembl_pref_name>
None

> <i_lp_mmshare_version>
53161

> <i_f3d_flags>
0

> <r_lp_tautomer_probability>
1

> <s_lp_Force_Field>
OPLS_2005

> <r_lp_Energy>
44.946801

> <b_lp_Chiralities_Consistent>
1

> <s_lp_Variant>
CHEMBL2208_lig1105-2

> <s_i_glide_gridfile>
glide-grid_3m2w

> <i_i_glide_lignum>
1466

> <i_i_glide_rotatable_bonds>
5

> <r_i_docking_score>
-6.84499536674987

> <r_i_glide_ligand_efficiency>
-0.244464120241067

> <r_i_glide_ligand_efficiency_sa>
-0.74233705071877

> <r_i_glide_ligand_efficiency_ln>
-1.58002590844287

> <r_i_glide_gscore>
-6.84499536674987

> <r_i_glide_lipo>
-2.55332947863879

> <r_i_glide_hbond>
-0.310201676170319

> <r_i_glide_metal>
0

> <r_i_glide_rewards>
-1.23594007575758

> <r_i_glide_evdw>
-39.2101097106934

> <r_i_glide_ecoul>
-6.85335159301758

> <r_i_glide_erotb>
0.242984088304113

> <r_i_glide_esite>
0

> <r_i_glide_emodel>
-62.9122941851261

> <r_i_glide_energy>
-46.0634613037109

> <r_i_glide_einternal>
3.71922779083252

> <i_i_glide_confnum>
2

> <i_i_glide_posenum>
129

> <r_i_glide_eff_state_penalty>
0

> <s_user_duplicate_titles>
CHEMBL2208_lig1105

> <s_m_subgroup_title>
dock_pv

> <s_m_subgroupid>
dock_pv

> <b_m_subgroup_collapsed>
1

$$$$
CHEMBL2208_lig1295
                    3D
 Schrodinger Suite 2021-1.
 35 37  0  0  1  0            999 V2000
   40.9404    7.3347   13.4836 Br  0  0  0  0  0  0
   36.2817    4.6563   16.3691 O   0  0  0  0  0  0
   36.6763    4.4249   13.6512 O   0  0  0  0  0  0
   39.1037    8.2136   19.8254 N   0  0  0  0  0  0
   39.6951    6.0777   19.5196 N   0  0  0  0  0  0
   42.7352    8.9919   18.6724 N   0  0  0  0  0  0
   39.7804    7.3773   19.0754 C   0  0  0  0  0  0
   40.6179    7.7119   17.9434 C   0  0  0  0  0  0
   38.5335    7.4323   20.7963 C   0  0  0  0  0  0
   38.8777    6.0686   20.6213 C   0  0  0  0  0  0
   39.4039    6.6757   15.8842 C   0  0  0  0  0  0
   40.4542    7.4239   16.6326 C   0  0  0  0  0  0
   39.5321    6.5275   14.4892 C   0  0  0  0  0  0
   37.3579    5.3108   15.7898 C   0  0  0  0  0  0
   38.2894    6.0843   16.5067 C   0  0  0  0  0  0
   37.5364    5.1714   14.4090 C   0  0  0  0  0  0
   38.6063    5.7818   13.7701 C   0  0  0  0  0  0
   37.7170    7.8083   21.8709 C   0  0  0  0  0  0
   38.4203    5.0611   21.4719 C   0  0  0  0  0  0
   41.7713    8.4415   18.3493 C   0  0  0  0  0  0
   37.2827    6.8082   22.7420 C   0  0  0  0  0  0
   37.6200    5.4688   22.5418 C   0  0  0  0  0  0
   36.1432    4.6425   17.7869 C   0  0  0  0  0  0
   37.0277    3.5501   13.4314 H   0  0  0  0  0  0
   40.2050    5.3043   19.1141 H   0  0  0  0  0  0
   41.2500    7.8112   16.0148 H   0  0  0  0  0  0
   38.1317    6.2135   17.5600 H   0  0  0  0  0  0
   38.7234    5.6818   12.7023 H   0  0  0  0  0  0
   37.4490    8.8406   22.0358 H   0  0  0  0  0  0
   38.6994    4.0250   21.3440 H   0  0  0  0  0  0
   36.6773    7.0737   23.5954 H   0  0  0  0  0  0
   37.2662    4.7275   23.2439 H   0  0  0  0  0  0
   35.2973    4.0107   18.0575 H   0  0  0  0  0  0
   37.0248    4.2416   18.2866 H   0  0  0  0  0  0
   35.9402    5.6387   18.1741 H   0  0  0  0  0  0
  1 13  1  0  0  0
  2 14  1  0  0  0
  2 23  1  0  0  0
  3 16  1  0  0  0
  3 24  1  0  0  0
  4  7  2  0  0  0
  4  9  1  0  0  0
  5  7  1  0  0  0
  5 10  1  0  0  0
  5 25  1  0  0  0
  6 20  3  0  0  0
  7  8  1  0  0  0
  8 12  2  3  0  0
  8 20  1  0  0  0
  9 10  1  0  0  0
  9 18  2  0  0  0
 10 19  2  0  0  0
 11 12  1  0  0  0
 11 13  2  0  0  0
 11 15  1  0  0  0
 12 26  1  0  0  0
 13 17  1  0  0  0
 14 15  2  0  0  0
 14 16  1  0  0  0
 15 27  1  0  0  0
 16 17  2  0  0  0
 17 28  1  0  0  0
 18 21  1  0  0  0
 18 29  1  0  0  0
 19 22  1  0  0  0
 19 30  1  0  0  0
 21 22  2  0  0  0
 21 31  1  0  0  0
 22 32  1  0  0  0
 23 33  1  0  0  0
 23 34  1  0  0  0
 23 35  1  0  0  0
M  END
> <s_m_entry_id>
7698

> <s_m_entry_name>
dock_pv.259

> <s_m_Source_Path>
/home/csk/Desktop/cluster/DUD-E-result/mapk2

> <s_m_Source_File>
dock_pv.maegz

> <i_m_Source_File_Index>
259

> <chembl_id>
CHEMBL1994241

> <chembl_pref_name>
None

> <i_lp_mmshare_version>
53161

> <i_f3d_flags>
0

> <r_lp_tautomer_probability>
1

> <s_lp_Force_Field>
OPLS_2005

> <r_lp_Energy>
21.468457

> <b_lp_Chiralities_Consistent>
1

> <s_lp_Variant>
CHEMBL2208_lig1295-2

> <s_i_glide_gridfile>
glide-grid_3m2w

> <i_i_glide_lignum>
1758

> <i_i_glide_rotatable_bonds>
4

> <r_i_docking_score>
-6.84416732871597

> <r_i_glide_ligand_efficiency>
-0.297572492552868

> <r_i_glide_ligand_efficiency_sa>
-0.846256584798751

> <r_i_glide_ligand_efficiency_ln>
-1.65498171956172

> <r_i_glide_gscore>
-6.84416732871597

> <r_i_glide_lipo>
-2.23945568395593

> <r_i_glide_hbond>
-0.340811103611289

> <r_i_glide_metal>
0

> <r_i_glide_rewards>
-1.37757226938752

> <r_i_glide_evdw>
-38.1633453369141

> <r_i_glide_ecoul>
-8.1003303527832

> <r_i_glide_erotb>
0.281499010813569

> <r_i_glide_esite>
-0.0446104628116156

> <r_i_glide_emodel>
-63.6972135482101

> <r_i_glide_energy>
-46.2636756896973

> <r_i_glide_einternal>
3.60504508018494

> <i_i_glide_confnum>
2

> <i_i_glide_posenum>
231

> <r_i_glide_eff_state_penalty>
0

> <s_user_duplicate_titles>
CHEMBL2208_lig1295

> <s_m_subgroup_title>
dock_pv

> <s_m_subgroupid>
dock_pv

> <b_m_subgroup_collapsed>
1

$$$$
CHEMBL2208_lig1354
                    3D
 Schrodinger Suite 2021-1.
 42 46  0  0  1  0            999 V2000
   37.4806    5.3832   12.7701 O   0  0  0  0  0  0
   36.8617    5.2591   23.1054 N   0  0  0  0  0  0
   37.9233    6.2092   24.8306 N   0  0  0  0  0  0
   36.6784    5.2757   14.9199 N   0  0  0  0  0  0
   38.6776    6.7907   22.6726 N   0  0  0  0  0  0
   38.4029    6.2739   16.0868 C   0  0  0  0  0  0
   39.3210    6.8430   16.9974 C   0  0  0  0  0  0
   38.6781    6.2651   14.7251 C   0  0  0  0  0  0
   39.1147    6.8385   18.4790 C   0  0  0  0  0  0
   37.5731    5.5981   13.9771 C   0  0  0  0  0  0
   36.3065    4.8270   24.2818 C   0  0  0  0  0  0
   36.9525    5.4196   25.3995 C   0  0  0  0  0  0
   37.8243    6.0702   23.4713 C   0  0  0  0  0  0
   37.0563    5.6253   16.2815 C   0  0  0  0  0  0
   40.4824    7.4287   16.4662 C   0  0  0  0  0  0
   39.8435    6.8245   14.2147 C   0  0  0  0  0  0
   38.7940    6.7835   21.2770 C   0  0  0  0  0  0
   39.4678    7.9456   19.2642 C   0  0  0  0  0  0
   38.6109    5.7072   19.1284 C   0  0  0  0  0  0
   40.7299    7.4345   15.0945 C   0  0  0  0  0  0
   39.3167    7.9160   20.6499 C   0  0  0  0  0  0
   38.4519    5.6718   20.5044 C   0  0  0  0  0  0
   35.2442    3.9369   24.4876 C   0  0  0  0  0  0
   36.5681    5.1564   26.7170 C   0  0  0  0  0  0
   34.8565    3.6692   25.8030 C   0  0  0  0  0  0
   35.5031    4.2660   26.8873 C   0  0  0  0  0  0
   38.6278    6.7886   25.2677 H   0  0  0  0  0  0
   35.8111    4.8035   14.7115 H   0  0  0  0  0  0
   39.3822    7.3529   23.1406 H   0  0  0  0  0  0
   36.3231    6.3003   16.7269 H   0  0  0  0  0  0
   37.0773    4.7192   16.8827 H   0  0  0  0  0  0
   41.2140    7.8805   17.1198 H   0  0  0  0  0  0
   40.0571    6.8232   13.1545 H   0  0  0  0  0  0
   39.8645    8.8366   18.7980 H   0  0  0  0  0  0
   38.3606    4.8250   18.5795 H   0  0  0  0  0  0
   41.6226    7.9075   14.7133 H   0  0  0  0  0  0
   39.5911    8.7770   21.2416 H   0  0  0  0  0  0
   38.0896    4.7639   20.9642 H   0  0  0  0  0  0
   34.7407    3.4734   23.6527 H   0  0  0  0  0  0
   37.0582    5.6160   27.5617 H   0  0  0  0  0  0
   34.0401    2.9862   25.9866 H   0  0  0  0  0  0
   35.1684    4.0270   27.8870 H   0  0  0  0  0  0
  1 10  2  0  0  0
  2 11  1  0  0  0
  2 13  2  0  0  0
  3 12  1  0  0  0
  3 13  1  0  0  0
  3 27  1  0  0  0
  4 10  1  0  0  0
  4 14  1  0  0  0
  4 28  1  0  0  0
  5 13  1  0  0  0
  5 17  1  0  0  0
  5 29  1  0  0  0
  6  7  1  0  0  0
  6  8  2  0  0  0
  6 14  1  0  0  0
  7  9  1  0  0  0
  7 15  2  0  0  0
  8 10  1  0  0  0
  8 16  1  0  0  0
  9 18  2  0  0  0
  9 19  1  0  0  0
 11 12  1  0  0  0
 11 23  2  0  0  0
 12 24  2  0  0  0
 14 30  1  0  0  0
 14 31  1  0  0  0
 15 20  1  0  0  0
 15 32  1  0  0  0
 16 20  2  0  0  0
 16 33  1  0  0  0
 17 21  2  0  0  0
 17 22  1  0  0  0
 18 21  1  0  0  0
 18 34  1  0  0  0
 19 22  2  0  0  0
 19 35  1  0  0  0
 20 36  1  0  0  0
 21 37  1  0  0  0
 22 38  1  0  0  0
 23 25  1  0  0  0
 23 39  1  0  0  0
 24 26  1  0  0  0
 24 40  1  0  0  0
 25 26  2  0  0  0
 25 41  1  0  0  0
 26 42  1  0  0  0
M  END
> <s_m_entry_id>
7699

> <s_m_entry_name>
dock_pv.260

> <s_m_Source_Path>
/home/csk/Desktop/cluster/DUD-E-result/mapk2

> <s_m_Source_File>
dock_pv.maegz

> <i_m_Source_File_Index>
260

> <chembl_id>
CHEMBL1979057

> <chembl_pref_name>
None

> <i_lp_mmshare_version>
53161

> <i_f3d_flags>
0

> <r_lp_tautomer_probability>
1

> <s_lp_Force_Field>
OPLS_2005

> <r_lp_Energy>
36.859544

> <b_lp_Chiralities_Consistent>
1

> <s_lp_Variant>
CHEMBL2208_lig1354-1

> <s_i_glide_gridfile>
glide-grid_3m2w

> <i_i_glide_lignum>
1849

> <i_i_glide_rotatable_bonds>
3

> <r_i_docking_score>
-6.83638243561648

> <r_i_glide_ligand_efficiency>
-0.262937785985249

> <r_i_glide_ligand_efficiency_sa>
-0.778952156371073

> <r_i_glide_ligand_efficiency_ln>
-1.60550198300412

> <r_i_glide_gscore>
-6.83638243561648

> <r_i_glide_lipo>
-2.52906484266077

> <r_i_glide_hbond>
-0.32572094375538

> <r_i_glide_metal>
0

> <r_i_glide_rewards>
-1.62706129270489

> <r_i_glide_evdw>
-43.7698669433594

> <r_i_glide_ecoul>
-3.39836716651917

> <r_i_glide_erotb>
0.490343449501532

> <r_i_glide_esite>
-0.146630383851133

> <r_i_glide_emodel>
-66.6824083308663

> <r_i_glide_energy>
-47.1682341098785

> <r_i_glide_einternal>
1.56477630138397

> <i_i_glide_confnum>
4

> <i_i_glide_posenum>
230

> <r_i_glide_eff_state_penalty>
0

> <s_user_duplicate_titles>
CHEMBL2208_lig1354

> <s_m_subgroup_title>
dock_pv

> <s_m_subgroupid>
dock_pv

> <b_m_subgroup_collapsed>
1

$$$$
CHEMBL2208_lig790
                    3D
 Schrodinger Suite 2021-1.
 51 56  0  0  1  0            999 V2000
   36.3560    6.4834   21.0256 C   0  0  0  0  0  0
   35.6971    5.1676   20.5697 C   0  0  0  0  0  0
   36.4593    3.9288   21.0699 C   0  0  0  0  0  0
   37.8777    4.0251   20.7378 N   0  0  1  0  0  0
   38.5013    5.2132   21.3303 C   0  0  0  0  0  0
   37.8891    6.5278   20.7625 C   0  0  2  0  0  0
   38.4875    7.8029   21.4431 C   0  0  0  0  0  0
   39.8779    8.0705   21.0161 N   0  0  0  0  0  0
   40.3403    8.0272   19.7416 C   0  0  0  0  0  0
   38.2818    6.6812   19.2951 C   0  0  0  0  0  0
   39.3964    7.3933   18.8618 C   0  0  0  0  0  0
   39.4562    7.2205   17.4754 C   0  0  0  0  0  0
   38.3972    6.4188   17.0648 C   0  0  0  0  0  0
   37.6990    6.0993   18.2040 N   0  0  0  0  0  0
   41.4748    8.4249   19.4745 O   0  0  0  0  0  0
   38.0420    5.9165   15.7167 C   0  0  0  0  0  0
   38.7753    6.2890   14.5876 C   0  0  0  0  0  0
   38.3771    5.7388   13.3718 C   0  0  0  0  0  0
   37.3302    4.8797   13.2601 N   0  0  0  0  0  0
   36.6899    4.5656   14.4185 C   0  0  0  0  0  0
   36.9928    5.0533   15.6472 N   0  0  0  0  0  0
   35.6322    3.5170   14.3771 C   0  0  0  0  0  0
   35.0721    2.7273   15.3768 C   0  0  0  0  0  0
   35.0778    3.2251   13.1618 O   0  0  0  0  0  0
   34.1648    2.2355   13.3810 C   0  0  0  0  0  0
   34.1206    1.8753   14.7447 C   0  0  0  0  0  0
   33.2380    0.8613   15.1501 C   0  0  0  0  0  0
   32.4353    0.2478   14.1816 C   0  0  0  0  0  0
   32.4957    0.6261   12.8380 C   0  0  0  0  0  0
   33.3597    1.6340   12.4076 C   0  0  0  0  0  0
   36.1808    6.5825   22.0987 H   0  0  0  0  0  0
   35.8586    7.3281   20.5474 H   0  0  0  0  0  0
   34.6780    5.1251   20.9560 H   0  0  0  0  0  0
   35.5787    5.1178   19.4880 H   0  0  0  0  0  0
   36.3412    3.8135   22.1483 H   0  0  0  0  0  0
   36.0605    3.0270   20.6039 H   0  0  0  0  0  0
   38.3415    3.1757   21.0746 H   0  0  0  0  0  0
   39.5750    5.1762   21.1367 H   0  0  0  0  0  0
   38.3917    5.1760   22.4159 H   0  0  0  0  0  0
   38.4698    7.7017   22.5302 H   0  0  0  0  0  0
   37.8885    8.6859   21.2088 H   0  0  0  0  0  0
   40.5738    8.1518   21.7415 H   0  0  0  0  0  0
   40.2280    7.6232   16.8366 H   0  0  0  0  0  0
   36.9043    5.4772   18.2393 H   0  0  0  0  0  0
   39.6140    6.9675   14.6428 H   0  0  0  0  0  0
   38.9066    6.0058   12.4706 H   0  0  0  0  0  0
   35.3318    2.7728   16.4234 H   0  0  0  0  0  0
   33.1782    0.5694   16.1882 H   0  0  0  0  0  0
   31.7471   -0.5307   14.4786 H   0  0  0  0  0  0
   31.8575    0.1320   12.1191 H   0  0  0  0  0  0
   33.4132    1.9342   11.3719 H   0  0  0  0  0  0
  1  2  1  0  0  0
  1  6  1  0  0  0
  1 31  1  0  0  0
  1 32  1  0  0  0
  2  3  1  0  0  0
  2 33  1  0  0  0
  2 34  1  0  0  0
  3  4  1  0  0  0
  3 35  1  0  0  0
  3 36  1  0  0  0
  4  5  1  0  0  0
  4 37  1  0  0  0
  5  6  1  0  0  0
  5 38  1  0  0  0
  5 39  1  0  0  0
  6 10  1  0  0  0
  6  7  1  0  0  0
  7  8  1  0  0  0
  7 40  1  0  0  0
  7 41  1  0  0  0
  8  9  1  0  0  0
  8 42  1  0  0  0
  9 15  2  0  0  0
  9 11  1  0  0  0
 10 14  1  0  0  0
 10 11  2  0  0  0
 11 12  1  0  0  0
 12 13  2  0  0  0
 12 43  1  0  0  0
 13 16  1  0  0  0
 13 14  1  0  0  0
 14 44  1  0  0  0
 16 17  2  0  0  0
 16 21  1  0  0  0
 17 18  1  0  0  0
 17 45  1  0  0  0
 18 19  2  0  0  0
 18 46  1  0  0  0
 19 20  1  0  0  0
 20 21  2  0  0  0
 20 22  1  0  0  0
 22 23  2  0  0  0
 22 24  1  0  0  0
 23 26  1  0  0  0
 23 47  1  0  0  0
 24 25  1  0  0  0
 25 26  2  0  0  0
 25 30  1  0  0  0
 26 27  1  0  0  0
 27 28  2  0  0  0
 27 48  1  0  0  0
 28 29  1  0  0  0
 28 49  1  0  0  0
 29 30  2  0  0  0
 29 50  1  0  0  0
 30 51  1  0  0  0
M  END
> <s_m_entry_id>
7700

> <s_m_entry_name>
dock_pv.261

> <s_m_Source_Path>
/home/csk/Desktop/cluster/DUD-E-result/mapk2

> <s_m_Source_File>
dock_pv.maegz

> <i_m_Source_File_Index>
261

> <chembl_id>
CHEMBL1779368

> <chembl_pref_name>
None

> <i_lp_mmshare_version>
53161

> <i_f3d_flags>
0

> <r_lp_tautomer_probability>
1

> <s_lp_Force_Field>
OPLS_2005

> <r_lp_Energy>
32.141448

> <b_lp_Chiralities_Consistent>
1

> <s_lp_Variant>
CHEMBL2208_lig790-2

> <s_i_glide_gridfile>
glide-grid_3m2w

> <i_i_glide_lignum>
1002

> <i_i_glide_rotatable_bonds>
2

> <r_i_docking_score>
-6.8274666034395

> <r_i_glide_ligand_efficiency>
-0.22758222011465

> <r_i_glide_ligand_efficiency_sa>
-0.707150871315666

> <r_i_glide_ligand_efficiency_ln>
-1.55127480350837

> <r_i_glide_gscore>
-6.8274666034395

> <r_i_glide_lipo>
-2.20391161031936

> <r_i_glide_hbond>
-0.382716667622427

> <r_i_glide_metal>
0

> <r_i_glide_rewards>
-1.09796898951056

> <r_i_glide_evdw>
-44.9153480529785

> <r_i_glide_ecoul>
-6.8345251083374

> <r_i_glide_erotb>
0.245612885361344

> <r_i_glide_esite>
-0.117536052448957

> <r_i_glide_emodel>
-73.2276720085043

> <r_i_glide_energy>
-51.7498731613159

> <r_i_glide_einternal>
0.281590044498444

> <i_i_glide_confnum>
1

> <i_i_glide_posenum>
297

> <r_i_glide_eff_state_penalty>
0

> <s_user_duplicate_titles>
CHEMBL2208_lig790

> <s_m_subgroup_title>
dock_pv

> <s_m_subgroupid>
dock_pv

> <b_m_subgroup_collapsed>
1

$$$$
CHEMBL2208_lig162
                    3D
 Schrodinger Suite 2021-1.
 35 38  0  0  1  0            999 V2000
   36.7940    6.8274   19.4723 C   0  0  0  0  0  0
   36.2640    5.4755   19.9713 C   0  0  0  0  0  0
   37.4395    4.8073   19.2495 C   0  0  0  0  0  0
   38.1688    6.1678   19.2511 C   0  0  0  0  0  0
   39.1605    6.1187   13.8190 C   0  0  0  0  0  0
   38.0522    5.5177   14.4102 C   0  0  0  0  0  0
   37.8560    5.6248   15.7963 C   0  0  0  0  0  0
   40.0900    6.8622   14.5400 C   0  0  0  0  0  0
   39.8885    6.9527   15.9187 C   0  0  0  0  0  0
   38.7931    6.3210   16.5819 C   0  0  0  0  0  0
   40.6105    7.6154   16.8819 N   0  0  0  0  0  0
   40.0710    7.4073   18.1259 C   0  0  0  0  0  0
   38.9524    6.5818   17.9953 C   0  0  0  0  0  0
   39.1532    6.2935   20.4616 C   0  0  0  0  0  0
   39.8767    7.5798   20.4217 N   0  0  0  0  0  0
   40.5765    8.0012   19.3456 C   0  0  0  0  0  0
   41.4784    8.8249   19.4719 O   0  0  0  0  0  0
   37.2039    4.8441   13.5552 O   0  0  0  0  0  0
   36.0880    4.1394   14.0912 C   0  0  0  0  0  0
   36.7718    7.6290   20.2114 H   0  0  0  0  0  0
   36.3203    7.1778   18.5539 H   0  0  0  0  0  0
   36.3014    5.3665   21.0575 H   0  0  0  0  0  0
   35.2767    5.1874   19.6117 H   0  0  0  0  0  0
   37.1753    4.4252   18.2669 H   0  0  0  0  0  0
   37.9236    4.0065   19.8130 H   0  0  0  0  0  0
   39.2955    6.0245   12.7519 H   0  0  0  0  0  0
   36.9957    5.1745   16.2626 H   0  0  0  0  0  0
   40.9207    7.3429   14.0428 H   0  0  0  0  0  0
   41.4262    8.1953   16.7416 H   0  0  0  0  0  0
   39.8779    5.4770   20.4500 H   0  0  0  0  0  0
   38.6295    6.2145   21.4147 H   0  0  0  0  0  0
   40.0652    8.0274   21.3051 H   0  0  0  0  0  0
   35.5491    3.6479   13.2806 H   0  0  0  0  0  0
   35.3928    4.8157   14.5905 H   0  0  0  0  0  0
   36.4032    3.3642   14.7915 H   0  0  0  0  0  0
  1  4  1  0  0  0
  1  2  1  0  0  0
  1 20  1  0  0  0
  1 21  1  0  0  0
  2  3  1  0  0  0
  2 22  1  0  0  0
  2 23  1  0  0  0
  3  4  1  0  0  0
  3 24  1  0  0  0
  3 25  1  0  0  0
  4 13  1  0  0  0
  4 14  1  0  0  0
  5  6  2  0  0  0
  5  8  1  0  0  0
  5 26  1  0  0  0
  6  7  1  0  0  0
  6 18  1  0  0  0
  7 10  2  0  0  0
  7 27  1  0  0  0
  8  9  2  0  0  0
  8 28  1  0  0  0
  9 11  1  0  0  0
  9 10  1  0  0  0
 10 13  1  0  0  0
 11 12  1  0  0  0
 11 29  1  0  0  0
 12 13  2  0  0  0
 12 16  1  0  0  0
 14 15  1  0  0  0
 14 30  1  0  0  0
 14 31  1  0  0  0
 15 16  1  0  0  0
 15 32  1  0  0  0
 16 17  2  0  0  0
 18 19  1  0  0  0
 19 33  1  0  0  0
 19 34  1  0  0  0
 19 35  1  0  0  0
M  END
> <s_m_entry_id>
7701

> <s_m_entry_name>
dock_pv.262

> <s_m_Source_Path>
/home/csk/Desktop/cluster/DUD-E-result/mapk2

> <s_m_Source_File>
dock_pv.maegz

> <i_m_Source_File_Index>
262

> <chembl_id>
CHEMBL248366

> <chembl_pref_name>
None

> <i_lp_mmshare_version>
53161

> <i_f3d_flags>
0

> <r_lp_tautomer_probability>
1

> <s_lp_Force_Field>
OPLS_2005

> <r_lp_Energy>
31.689082

> <b_lp_Chiralities_Consistent>
1

> <s_lp_Variant>
CHEMBL2208_lig162-1

> <s_i_glide_gridfile>
glide-grid_3m2w

> <i_i_glide_lignum>
245

> <i_i_glide_rotatable_bonds>
1

> <r_i_docking_score>
-6.82727281307523

> <r_i_glide_ligand_efficiency>
-0.359330148056591

> <r_i_glide_ligand_efficiency_sa>
-0.958837158568629

> <r_i_glide_ligand_efficiency_ln>
-1.73086029448933

> <r_i_glide_gscore>
-6.82727281307523

> <r_i_glide_lipo>
-2.2759712777334

> <r_i_glide_hbond>
-0.16

> <r_i_glide_metal>
0

> <r_i_glide_rewards>
-1.73656115868873

> <r_i_glide_evdw>
-33.11865234375

> <r_i_glide_ecoul>
-6.04231357574463

> <r_i_glide_erotb>
0

> <r_i_glide_esite>
-0.0924607231039017

> <r_i_glide_emodel>
-53.8680610615616

> <r_i_glide_energy>
-39.1609659194946

> <r_i_glide_einternal>
2.55389595031738

> <i_i_glide_confnum>
1

> <i_i_glide_posenum>
359

> <r_i_glide_eff_state_penalty>
0

> <s_user_duplicate_titles>
CHEMBL2208_lig162

> <s_m_subgroup_title>
dock_pv

> <s_m_subgroupid>
dock_pv

> <b_m_subgroup_collapsed>
1

$$$$
CHEMBL2208_lig483
                    3D
 Schrodinger Suite 2021-1.
 40 44  0  0  1  0            999 V2000
   37.0770    4.8254   13.4471 N   0  0  0  0  0  0
   36.4170    4.5312   14.5998 C   0  0  0  0  0  0
   36.7911    5.0474   15.8361 C   0  0  0  0  0  0
   38.1809    5.6059   13.5261 C   0  0  0  0  0  0
   38.6898    6.1404   14.7278 C   0  0  0  0  0  0
   37.9543    5.8495   15.9077 C   0  0  0  0  0  0
   40.3202    7.4224   16.0416 C   0  0  0  0  0  0
   39.8666    6.9269   14.8136 C   0  0  0  0  0  0
   39.5994    7.1476   17.2167 C   0  0  0  0  0  0
   38.4202    6.3645   17.1330 C   0  0  0  0  0  0
   37.8657    6.2218   18.3865 N   0  0  0  0  0  0
   35.2458    3.6531   14.5402 C   0  0  0  0  0  0
   39.7280    7.4768   18.6056 C   0  0  0  0  0  0
   38.6600    6.9223   19.2507 C   0  0  0  0  0  0
   38.6705    7.2223   20.6903 C   0  0  0  0  0  0
   39.8784    8.0241   20.7299 N   0  0  0  0  0  0
   40.5278    8.1801   19.5564 C   0  0  0  0  0  0
   41.5581    8.8246   19.3799 O   0  0  0  0  0  0
   35.3031    2.3214   14.3540 C   0  0  0  0  0  0
   34.1443    1.4085   14.2929 C   0  0  0  0  0  0
   34.2691    0.2082   13.5880 C   0  0  0  0  0  0
   33.1874   -0.6590   13.4725 C   0  0  0  0  0  0
   31.9751   -0.3312   14.0744 C   0  0  0  0  0  0
   31.8383    0.8583   14.7873 C   0  0  0  0  0  0
   32.9196    1.7289   14.8931 C   0  0  0  0  0  0
   36.2290    4.8090   16.7272 H   0  0  0  0  0  0
   38.6934    5.8170   12.6006 H   0  0  0  0  0  0
   41.2167    8.0248   16.0830 H   0  0  0  0  0  0
   40.4200    7.1447   13.9106 H   0  0  0  0  0  0
   37.0363    5.7198   18.6671 H   0  0  0  0  0  0
   34.2902    4.1353   14.6700 H   0  0  0  0  0  0
   37.8070    7.7980   21.0286 H   0  0  0  0  0  0
   38.7722    6.3349   21.3192 H   0  0  0  0  0  0
   40.3918    8.0030   21.6001 H   0  0  0  0  0  0
   36.2780    1.8613   14.2721 H   0  0  0  0  0  0
   35.2024   -0.0461   13.1105 H   0  0  0  0  0  0
   33.2878   -1.5742   12.9092 H   0  0  0  0  0  0
   31.1310   -0.9998   13.9880 H   0  0  0  0  0  0
   30.8952    1.1071   15.2524 H   0  0  0  0  0  0
   32.7988    2.6465   15.4506 H   0  0  0  0  0  0
  1  2  2  0  0  0
  1  4  1  0  0  0
  2  3  1  0  0  0
  2 12  1  0  0  0
  3  6  2  0  0  0
  3 26  1  0  0  0
  4  5  2  0  0  0
  4 27  1  0  0  0
  5  6  1  0  0  0
  5  8  1  0  0  0
  6 10  1  0  0  0
  7  9  1  0  0  0
  7  8  2  0  0  0
  7 28  1  0  0  0
  8 29  1  0  0  0
  9 13  1  0  0  0
  9 10  2  0  0  0
 10 11  1  0  0  0
 11 14  1  0  0  0
 11 30  1  0  0  0
 12 19  2  0  0  0
 12 31  1  0  0  0
 13 14  2  0  0  0
 13 17  1  0  0  0
 14 15  1  0  0  0
 15 16  1  0  0  0
 15 32  1  0  0  0
 15 33  1  0  0  0
 16 17  1  0  0  0
 16 34  1  0  0  0
 17 18  2  0  0  0
 19 20  1  0  0  0
 19 35  1  0  0  0
 20 21  2  0  0  0
 20 25  1  0  0  0
 21 22  1  0  0  0
 21 36  1  0  0  0
 22 23  2  0  0  0
 22 37  1  0  0  0
 23 24  1  0  0  0
 23 38  1  0  0  0
 24 25  2  0  0  0
 24 39  1  0  0  0
 25 40  1  0  0  0
M  END
> <s_m_entry_id>
7702

> <s_m_entry_name>
dock_pv.263

> <s_m_Source_Path>
/home/csk/Desktop/cluster/DUD-E-result/mapk2

> <s_m_Source_File>
dock_pv.maegz

> <i_m_Source_File_Index>
263

> <chembl_id>
CHEMBL1801373

> <chembl_pref_name>
None

> <i_lp_mmshare_version>
53161

> <i_f3d_flags>
0

> <r_lp_tautomer_probability>
1

> <s_lp_Force_Field>
OPLS_2005

> <r_lp_Energy>
59.266527

> <b_lp_Chiralities_Consistent>
1

> <s_lp_Variant>
CHEMBL2208_lig483-1

> <s_i_glide_gridfile>
glide-grid_3m2w

> <i_i_glide_lignum>
653

> <i_i_glide_rotatable_bonds>
2

> <r_i_docking_score>
-6.82608809130862

> <r_i_glide_ligand_efficiency>
-0.273043523652345

> <r_i_glide_ligand_efficiency_sa>
-0.798384105606967

> <r_i_glide_ligand_efficiency_ln>
-1.61798743899315

> <r_i_glide_gscore>
-6.82608809130862

> <r_i_glide_lipo>
-2.94558745631212

> <r_i_glide_hbond>
-0.150844049005983

> <r_i_glide_metal>
0

> <r_i_glide_rewards>
-1.27509687858192

> <r_i_glide_evdw>
-38.757625579834

> <r_i_glide_ecoul>
-5.00560331344604

> <r_i_glide_erotb>
0.354052364537211

> <r_i_glide_esite>
-0.119890295937205

> <r_i_glide_emodel>
-59.1474517475096

> <r_i_glide_energy>
-43.76322889328

> <r_i_glide_einternal>
6.29161310195923

> <i_i_glide_confnum>
6

> <i_i_glide_posenum>
355

> <r_i_glide_eff_state_penalty>
0

> <s_user_duplicate_titles>
CHEMBL2208_lig483

> <s_m_subgroup_title>
dock_pv

> <s_m_subgroupid>
dock_pv

> <b_m_subgroup_collapsed>
1

$$$$
CHEMBL2208_lig1112
                    3D
 Schrodinger Suite 2021-1.
 37 39  0  0  1  0            999 V2000
   37.7570    5.9232   19.3411 S   0  0  0  0  0  0
   40.2779    8.4249   20.7116 O   0  0  0  0  0  0
   37.4016    5.3208   14.2534 O   0  0  0  0  0  0
   39.5061    6.0250   12.6720 O   0  0  0  0  0  0
   38.7685    6.8892   21.4310 N   0  0  0  0  0  0
   37.0872    5.2890   21.9097 N   0  0  0  0  0  0
   39.0701    7.0827   19.1758 C   0  0  0  0  0  0
   39.4431    7.5533   20.4809 C   0  0  0  0  0  0
   37.8260    5.9793   21.1302 C   0  0  0  0  0  0
   39.6023    7.1302   16.6688 C   0  0  0  0  0  0
   39.7508    7.5098   18.0865 C   0  0  0  0  0  0
   38.4492    6.0337   14.8121 C   0  0  0  0  0  0
   38.5038    6.4248   16.1570 C   0  0  0  0  0  0
   39.5120    6.3910   13.9803 C   0  0  0  0  0  0
   40.6397    7.4787   15.8006 C   0  0  0  0  0  0
   36.0805    4.4408   21.4228 C   0  0  0  0  0  0
   40.5894    7.1270   14.4574 C   0  0  0  0  0  0
   34.7427    4.7578   21.6741 C   0  0  0  0  0  0
   36.3628    3.2963   20.6621 C   0  0  0  0  0  0
   33.7096    3.9742   21.1652 C   0  0  0  0  0  0
   35.3372    2.5229   20.1278 C   0  0  0  0  0  0
   34.0124    2.8614   20.3853 C   0  0  0  0  0  0
   36.2979    4.9511   15.0696 C   0  0  0  0  0  0
   40.2879    6.3325   12.1922 H   0  0  0  0  0  0
   38.9822    7.0747   22.4016 H   0  0  0  0  0  0
   40.5369    8.2383   18.2463 H   0  0  0  0  0  0
   37.6774    6.1802   16.7948 H   0  0  0  0  0  0
   41.4998    8.0249   16.1602 H   0  0  0  0  0  0
   41.3916    7.4198   13.7937 H   0  0  0  0  0  0
   34.5116    5.6245   22.2717 H   0  0  0  0  0  0
   37.3894    3.0212   20.4687 H   0  0  0  0  0  0
   32.6802    4.2252   21.3731 H   0  0  0  0  0  0
   35.5684    1.6423   19.5459 H   0  0  0  0  0  0
   33.2184    2.2440   19.9908 H   0  0  0  0  0  0
   35.5340    4.4674   14.4609 H   0  0  0  0  0  0
   36.5956    4.2518   15.8524 H   0  0  0  0  0  0
   35.8511    5.8314   15.5277 H   0  0  0  0  0  0
  1  7  1  0  0  0
  1  9  1  0  0  0
  2  8  2  0  0  0
  3 12  1  0  0  0
  3 23  1  0  0  0
  4 14  1  0  0  0
  4 24  1  0  0  0
  5  8  1  0  0  0
  5  9  1  0  0  0
  5 25  1  0  0  0
  6  9  2  3  0  0
  6 16  1  0  0  0
  7  8  1  0  0  0
  7 11  2  3  0  0
 10 11  1  0  0  0
 10 13  1  0  0  0
 10 15  2  0  0  0
 11 26  1  0  0  0
 12 13  2  0  0  0
 12 14  1  0  0  0
 13 27  1  0  0  0
 14 17  2  0  0  0
 15 17  1  0  0  0
 15 28  1  0  0  0
 16 18  2  0  0  0
 16 19  1  0  0  0
 17 29  1  0  0  0
 18 20  1  0  0  0
 18 30  1  0  0  0
 19 21  2  0  0  0
 19 31  1  0  0  0
 20 22  2  0  0  0
 20 32  1  0  0  0
 21 22  1  0  0  0
 21 33  1  0  0  0
 22 34  1  0  0  0
 23 35  1  0  0  0
 23 36  1  0  0  0
 23 37  1  0  0  0
M  END
> <s_m_entry_id>
7703

> <s_m_entry_name>
dock_pv.264

> <s_m_Source_Path>
/home/csk/Desktop/cluster/DUD-E-result/mapk2

> <s_m_Source_File>
dock_pv.maegz

> <i_m_Source_File_Index>
264

> <chembl_id>
CHEMBL1970522

> <chembl_pref_name>
None

> <i_lp_mmshare_version>
53161

> <i_f3d_flags>
0

> <r_lp_tautomer_probability>
1

> <s_lp_Force_Field>
OPLS_2005

> <r_lp_Energy>
21.527101

> <b_lp_Chiralities_Consistent>
1

> <s_lp_Variant>
CHEMBL2208_lig1112-3

> <s_i_glide_gridfile>
glide-grid_3m2w

> <i_i_glide_lignum>
1478

> <i_i_glide_rotatable_bonds>
4

> <r_i_docking_score>
-6.82494749120904

> <r_i_glide_ligand_efficiency>
-0.296736847443871

> <r_i_glide_ligand_efficiency_sa>
-0.843880121268883

> <r_i_glide_ligand_efficiency_ln>
-1.65033418857669

> <r_i_glide_gscore>
-6.82494749120904

> <r_i_glide_lipo>
-2.10832480241316

> <r_i_glide_hbond>
-0.0789040230079944

> <r_i_glide_metal>
0

> <r_i_glide_rewards>
-1.55747709320798

> <r_i_glide_evdw>
-35.542594909668

> <r_i_glide_ecoul>
-9.08527183532715

> <r_i_glide_erotb>
0.176062823723035

> <r_i_glide_esite>
-0.116383875520468

> <r_i_glide_emodel>
-61.4478659691909

> <r_i_glide_energy>
-44.6278667449951

> <r_i_glide_einternal>
2.75433397293091

> <i_i_glide_confnum>
2

> <i_i_glide_posenum>
182

> <r_i_glide_eff_state_penalty>
0

> <s_user_duplicate_titles>
CHEMBL2208_lig1112

> <s_m_subgroup_title>
dock_pv

> <s_m_subgroupid>
dock_pv

> <b_m_subgroup_collapsed>
1

$$$$
CHEMBL2208_lig36
                    3D
 Schrodinger Suite 2021-1.
 35 37  0  0  1  0            999 V2000
   41.2738    8.0260   17.4904 C   0  0  0  0  0  0
   41.0019    8.0342   18.8483 C   0  0  0  0  0  0
   39.8870    7.3801   19.3486 C   0  0  0  0  0  0
   38.9939    6.6843   18.5139 C   0  0  0  0  0  0
   40.4144    7.3541   16.5952 C   0  0  0  0  0  0
   39.2570    6.6701   17.0910 C   0  0  0  0  0  0
   38.4282    6.0205   16.2142 N   0  0  0  0  0  0
   38.7040    6.0273   14.8834 C   0  0  0  0  0  0
   39.8137    6.6799   14.3465 C   0  0  0  0  0  0
   40.6744    7.3483   15.2043 C   0  0  0  0  0  0
   37.7552    5.3001   14.0030 C   0  0  0  0  0  0
   37.8681    5.2276   12.7769 O   0  0  0  0  0  0
   37.7727    6.0207   19.1317 C   0  0  0  0  0  0
   36.7075    5.9632   18.5158 O   0  0  0  0  0  0
   37.9521    5.5547   20.3897 N   0  0  0  0  0  0
   37.0093    5.0245   21.2842 C   0  0  0  0  0  0
   37.4612    4.7845   22.5859 C   0  0  0  0  0  0
   36.5793    4.2333   23.5173 C   0  0  0  0  0  0
   35.2666    3.9242   23.1405 C   0  0  0  0  0  0
   34.8863    4.2098   21.8251 C   0  0  0  0  0  0
   35.7255    4.7569   20.9099 N   0  0  0  0  0  0
   34.2686    3.3293   24.1345 C   0  0  0  0  0  0
   34.2827    2.0004   24.0389 F   0  0  0  0  0  0
   34.5681    3.6666   25.3901 F   0  0  0  0  0  0
   33.0321    3.7586   23.8804 F   0  0  0  0  0  0
   42.1479    8.5271   17.1072 H   0  0  0  0  0  0
   41.6666    8.5523   19.5216 H   0  0  0  0  0  0
   39.7290    7.4340   20.4165 H   0  0  0  0  0  0
   40.0104    6.6773   13.2811 H   0  0  0  0  0  0
   41.5335    7.8731   14.8132 H   0  0  0  0  0  0
   36.9274    4.8122   14.5185 H   0  0  0  0  0  0
   38.8831    5.6239   20.7713 H   0  0  0  0  0  0
   38.4791    5.0085   22.8843 H   0  0  0  0  0  0
   36.9216    4.0386   24.5219 H   0  0  0  0  0  0
   33.8867    3.9933   21.4802 H   0  0  0  0  0  0
  1  5  2  0  0  0
  1  2  1  0  0  0
  1 26  1  0  0  0
  2  3  2  0  0  0
  2 27  1  0  0  0
  3  4  1  0  0  0
  3 28  1  0  0  0
  4  6  2  0  0  0
  4 13  1  0  0  0
  5  6  1  0  0  0
  5 10  1  0  0  0
  6  7  1  0  0  0
  7  8  2  0  0  0
  8  9  1  0  0  0
  8 11  1  0  0  0
  9 10  2  0  0  0
  9 29  1  0  0  0
 10 30  1  0  0  0
 11 12  2  0  0  0
 11 31  1  0  0  0
 13 14  2  0  0  0
 13 15  1  0  0  0
 15 16  1  0  0  0
 15 32  1  0  0  0
 16 17  2  0  0  0
 16 21  1  0  0  0
 17 18  1  0  0  0
 17 33  1  0  0  0
 18 19  2  0  0  0
 18 34  1  0  0  0
 19 20  1  0  0  0
 19 22  1  0  0  0
 20 21  2  0  0  0
 20 35  1  0  0  0
 22 23  1  0  0  0
 22 24  1  0  0  0
 22 25  1  0  0  0
M  END
> <s_m_entry_id>
7704

> <s_m_entry_name>
dock_pv.265

> <s_m_Source_Path>
/home/csk/Desktop/cluster/DUD-E-result/mapk2

> <s_m_Source_File>
dock_pv.maegz

> <i_m_Source_File_Index>
265

> <chembl_id>
CHEMBL4277111

> <chembl_pref_name>
None

> <i_lp_mmshare_version>
53161

> <i_f3d_flags>
0

> <r_lp_tautomer_probability>
1

> <s_lp_Force_Field>
OPLS_2005

> <r_lp_Energy>
26.64718

> <b_lp_Chiralities_Consistent>
1

> <s_lp_Variant>
CHEMBL2208_lig36-1

> <s_i_glide_gridfile>
glide-grid_3m2w

> <i_i_glide_lignum>
41

> <i_i_glide_rotatable_bonds>
5

> <r_i_docking_score>
-6.82449767939585

> <r_i_glide_ligand_efficiency>
-0.272979907175834

> <r_i_glide_ligand_efficiency_sa>
-0.798198089901407

> <r_i_glide_ligand_efficiency_ln>
-1.61761046370903

> <r_i_glide_gscore>
-6.82449767939585

> <r_i_glide_lipo>
-2.0777941621884

> <r_i_glide_hbond>
-0.32

> <r_i_glide_metal>
0

> <r_i_glide_rewards>
-2.2630597774784

> <r_i_glide_evdw>
-40.1134490966797

> <r_i_glide_ecoul>
-3.86990928649902

> <r_i_glide_erotb>
0.478071637877573

> <r_i_glide_esite>
-0.0555565297977768

> <r_i_glide_emodel>
-62.0809548749743

> <r_i_glide_energy>
-43.9833583831787

> <r_i_glide_einternal>
0.546515762805939

> <i_i_glide_confnum>
2

> <i_i_glide_posenum>
181

> <r_i_glide_eff_state_penalty>
0

> <s_user_duplicate_titles>
CHEMBL2208_lig36

> <s_m_subgroup_title>
dock_pv

> <s_m_subgroupid>
dock_pv

> <b_m_subgroup_collapsed>
1

$$$$
CHEMBL2208_lig1397
                    3D
 Schrodinger Suite 2021-1.
 36 37  0  0  1  0            999 V2000
   37.2423    5.0432   14.0811 O   0  0  0  0  0  0
   39.4781    6.0249   12.6720 O   0  0  0  0  0  0
   39.0625    8.7429   21.1201 O   0  0  0  0  0  0
   38.8501    6.4832   21.0734 N   0  0  0  0  0  0
   41.8785    8.8246   18.7864 N   0  0  0  0  0  0
   39.0819    6.7556   16.7745 C   0  0  0  0  0  0
   39.6251    7.6090   19.1574 C   0  0  0  0  0  0
   38.2200    5.7703   14.7155 C   0  0  0  0  0  0
   38.8758    6.9566   18.2310 C   0  0  0  0  0  0
   38.1075    6.0215   16.0838 C   0  0  0  0  0  0
   39.3234    6.2666   14.0126 C   0  0  0  0  0  0
   39.1640    7.6710   20.5251 C   0  0  0  0  0  0
   40.1703    7.2615   16.0487 C   0  0  0  0  0  0
   40.2843    7.0220   14.6792 C   0  0  0  0  0  0
   40.8644    8.2786   18.9220 C   0  0  0  0  0  0
   37.1965    5.2027   22.4973 C   0  0  0  0  0  0
   38.2776    6.2818   22.4069 C   0  0  0  0  0  0
   36.5790    4.9875   23.7331 C   0  0  0  0  0  0
   36.8090    4.4318   21.3909 C   0  0  0  0  0  0
   35.5801    4.0257   23.8624 C   0  0  0  0  0  0
   35.8171    3.4640   21.5227 C   0  0  0  0  0  0
   35.2024    3.2688   22.7561 C   0  0  0  0  0  0
   36.5642    4.7020   14.6674 H   0  0  0  0  0  0
   40.2868    6.4040   12.3014 H   0  0  0  0  0  0
   39.1737    5.6459   20.6111 H   0  0  0  0  0  0
   37.9553    6.5066   18.5857 H   0  0  0  0  0  0
   37.2495    5.6272   16.6117 H   0  0  0  0  0  0
   40.9440    7.8471   16.5132 H   0  0  0  0  0  0
   41.1260    7.4287   14.1390 H   0  0  0  0  0  0
   39.0784    6.0249   23.0999 H   0  0  0  0  0  0
   37.8597    7.2106   22.8038 H   0  0  0  0  0  0
   36.8684    5.5700   24.5958 H   0  0  0  0  0  0
   37.2756    4.5644   20.4267 H   0  0  0  0  0  0
   35.1050    3.8633   24.8195 H   0  0  0  0  0  0
   35.5300    2.8581   20.6746 H   0  0  0  0  0  0
   34.4389    2.5102   22.8556 H   0  0  0  0  0  0
  1  8  1  0  0  0
  1 23  1  0  0  0
  2 11  1  0  0  0
  2 24  1  0  0  0
  3 12  2  0  0  0
  4 12  1  0  0  0
  4 17  1  0  0  0
  4 25  1  0  0  0
  5 15  3  0  0  0
  6  9  1  0  0  0
  6 10  1  0  0  0
  6 13  2  0  0  0
  7  9  2  3  0  0
  7 12  1  0  0  0
  7 15  1  0  0  0
  8 10  2  0  0  0
  8 11  1  0  0  0
  9 26  1  0  0  0
 10 27  1  0  0  0
 11 14  2  0  0  0
 13 14  1  0  0  0
 13 28  1  0  0  0
 14 29  1  0  0  0
 16 17  1  0  0  0
 16 18  2  0  0  0
 16 19  1  0  0  0
 17 30  1  0  0  0
 17 31  1  0  0  0
 18 20  1  0  0  0
 18 32  1  0  0  0
 19 21  2  0  0  0
 19 33  1  0  0  0
 20 22  2  0  0  0
 20 34  1  0  0  0
 21 22  1  0  0  0
 21 35  1  0  0  0
 22 36  1  0  0  0
M  END
> <s_m_entry_id>
7705

> <s_m_entry_name>
dock_pv.266

> <s_m_Source_Path>
/home/csk/Desktop/cluster/DUD-E-result/mapk2

> <s_m_Source_File>
dock_pv.maegz

> <i_m_Source_File_Index>
266

> <chembl_id>
CHEMBL1974157

> <chembl_pref_name>
None

> <i_lp_mmshare_version>
53161

> <i_f3d_flags>
0

> <r_lp_tautomer_probability>
1

> <s_lp_Force_Field>
OPLS_2005

> <r_lp_Energy>
15.4253

> <b_lp_Chiralities_Consistent>
1

> <s_lp_Variant>
CHEMBL2208_lig1397-2

> <s_i_glide_gridfile>
glide-grid_3m2w

> <i_i_glide_lignum>
1919

> <i_i_glide_rotatable_bonds>
7

> <r_i_docking_score>
-6.82356664045999

> <r_i_glide_ligand_efficiency>
-0.310162120020909

> <r_i_glide_ligand_efficiency_sa>
-0.869086458282581

> <r_i_glide_ligand_efficiency_ln>
-1.66792858256911

> <r_i_glide_gscore>
-6.82356664045999

> <r_i_glide_lipo>
-2.13516781331489

> <r_i_glide_hbond>
0

> <r_i_glide_metal>
0

> <r_i_glide_rewards>
-1.80915018435577

> <r_i_glide_evdw>
-36.8245544433594

> <r_i_glide_ecoul>
-11.9885902404785

> <r_i_glide_erotb>
0.84449489236459

> <r_i_glide_esite>
-0.0842272769141769

> <r_i_glide_emodel>
-65.334402781591

> <r_i_glide_energy>
-48.8131446838379

> <r_i_glide_einternal>
7.80612182617188

> <i_i_glide_confnum>
5

> <i_i_glide_posenum>
250

> <r_i_glide_eff_state_penalty>
0

> <s_user_duplicate_titles>
CHEMBL2208_lig1397

> <s_m_subgroup_title>
dock_pv

> <s_m_subgroupid>
dock_pv

> <b_m_subgroup_collapsed>
1

$$$$
CHEMBL2208_lig1433
                    3D
 Schrodinger Suite 2021-1.
 43 46  0  0  1  0            999 V2000
   35.9252    4.0255   16.1311 O   0  0  0  0  0  0
   37.8777    5.1093   26.5962 O   0  0  0  0  0  0
   37.6414    5.3945   15.3576 N   0  0  0  0  0  0
   36.3433    4.0767   19.2687 N   0  0  0  0  0  0
   36.4443    5.0303   24.0980 N   0  0  0  0  0  0
   42.2785    8.9880   18.6723 N   0  0  0  0  0  0
   37.3181    5.5402   17.5992 C   0  0  0  0  0  0
   38.4703    6.3323   17.2283 C   0  0  0  0  0  0
   38.6419    6.2223   15.8122 C   0  0  0  0  0  0
   36.8945    4.9511   16.4127 C   0  0  0  0  0  0
   36.8066    5.3252   18.9901 C   0  0  0  0  0  0
   39.4109    7.0883   17.9524 C   0  0  0  0  0  0
   39.6889    6.8507   15.1302 C   0  0  0  0  0  0
   40.4743    7.6973   17.2850 C   0  0  0  0  0  0
   36.8937    6.3176   19.9742 C   0  0  0  0  0  0
   40.6037    7.5717   15.8992 C   0  0  0  0  0  0
   36.1240    4.7039   21.6041 C   0  0  0  0  0  0
   36.0194    3.7815   20.5561 C   0  0  0  0  0  0
   36.5366    6.0043   21.2871 C   0  0  0  0  0  0
   35.7511    4.2894   23.0306 C   0  0  0  0  0  0
   41.4761    8.4241   18.0563 C   0  0  0  0  0  0
   35.7765    4.8232   25.3902 C   0  0  0  0  0  0
   37.8780    4.7081   24.1790 C   0  0  0  0  0  0
   36.5194    5.5327   26.5449 C   0  0  0  0  0  0
   38.5665    5.3983   25.3814 C   0  0  0  0  0  0
   35.0613    4.4110   16.3229 H   0  0  0  0  0  0
   37.4794    5.0609   14.4198 H   0  0  0  0  0  0
   39.3401    7.1535   19.0291 H   0  0  0  0  0  0
   39.8172    6.7525   14.0616 H   0  0  0  0  0  0
   37.2375    7.3119   19.7346 H   0  0  0  0  0  0
   41.4451    8.0250   15.3946 H   0  0  0  0  0  0
   35.6891    2.7672   20.7390 H   0  0  0  0  0  0
   36.6018    6.7581   22.0578 H   0  0  0  0  0  0
   34.6703    4.4149   23.1258 H   0  0  0  0  0  0
   35.9558    3.2240   23.1537 H   0  0  0  0  0  0
   34.7494    5.1881   25.3302 H   0  0  0  0  0  0
   35.7074    3.7544   25.6026 H   0  0  0  0  0  0
   38.0091    3.6288   24.2649 H   0  0  0  0  0  0
   38.3733    4.9914   23.2506 H   0  0  0  0  0  0
   36.0434    5.2896   27.4936 H   0  0  0  0  0  0
   36.4596    6.6166   26.4341 H   0  0  0  0  0  0
   39.5914    5.0404   25.4754 H   0  0  0  0  0  0
   38.6379    6.4762   25.2231 H   0  0  0  0  0  0
  1 10  1  0  0  0
  1 26  1  0  0  0
  2 24  1  0  0  0
  2 25  1  0  0  0
  3  9  1  0  0  0
  3 10  1  0  0  0
  3 27  1  0  0  0
  4 11  1  0  0  0
  4 18  2  0  0  0
  5 20  1  0  0  0
  5 22  1  0  0  0
  5 23  1  0  0  0
  6 21  3  0  0  0
  7  8  1  0  0  0
  7 10  2  0  0  0
  7 11  1  0  0  0
  8  9  1  0  0  0
  8 12  2  0  0  0
  9 13  2  0  0  0
 11 15  2  0  0  0
 12 14  1  0  0  0
 12 28  1  0  0  0
 13 16  1  0  0  0
 13 29  1  0  0  0
 14 16  2  0  0  0
 14 21  1  0  0  0
 15 19  1  0  0  0
 15 30  1  0  0  0
 16 31  1  0  0  0
 17 18  1  0  0  0
 17 19  2  0  0  0
 17 20  1  0  0  0
 18 32  1  0  0  0
 19 33  1  0  0  0
 20 34  1  0  0  0
 20 35  1  0  0  0
 22 24  1  0  0  0
 22 36  1  0  0  0
 22 37  1  0  0  0
 23 25  1  0  0  0
 23 38  1  0  0  0
 23 39  1  0  0  0
 24 40  1  0  0  0
 24 41  1  0  0  0
 25 42  1  0  0  0
 25 43  1  0  0  0
M  END
> <s_m_entry_id>
7706

> <s_m_entry_name>
dock_pv.267

> <s_m_Source_Path>
/home/csk/Desktop/cluster/DUD-E-result/mapk2

> <s_m_Source_File>
dock_pv.maegz

> <i_m_Source_File_Index>
267

> <chembl_id>
CHEMBL1969664

> <chembl_pref_name>
AZD-1080

> <i_lp_mmshare_version>
53161

> <i_f3d_flags>
0

> <r_lp_tautomer_probability>
1

> <s_lp_Force_Field>
OPLS_2005

> <r_lp_Energy>
28.483927

> <b_lp_Chiralities_Consistent>
1

> <s_lp_Variant>
CHEMBL2208_lig1433-1

> <s_i_glide_gridfile>
glide-grid_3m2w

> <i_i_glide_lignum>
1982

> <i_i_glide_rotatable_bonds>
4

> <r_i_docking_score>
-6.82287743773908

> <r_i_glide_ligand_efficiency>
-0.272915097509563

> <r_i_glide_ligand_efficiency_sa>
-0.798008585287826

> <r_i_glide_ligand_efficiency_ln>
-1.61722641788165

> <r_i_glide_gscore>
-6.82287743773908

> <r_i_glide_lipo>
-2.031582557969

> <r_i_glide_hbond>
-0.366042645226899

> <r_i_glide_metal>
0

> <r_i_glide_rewards>
-1.4681228604883

> <r_i_glide_evdw>
-37.2860946655273

> <r_i_glide_ecoul>
-10.6591844558716

> <r_i_glide_erotb>
0.506053027602229

> <r_i_glide_esite>
0

> <r_i_glide_emodel>
-66.7117336619783

> <r_i_glide_energy>
-47.9452791213989

> <r_i_glide_einternal>
4.07532978057861

> <i_i_glide_confnum>
42

> <i_i_glide_posenum>
245

> <r_i_glide_eff_state_penalty>
0

> <s_user_duplicate_titles>
CHEMBL2208_lig1433

> <s_m_subgroup_title>
dock_pv

> <s_m_subgroupid>
dock_pv

> <b_m_subgroup_collapsed>
1

$$$$
CHEMBL2208_lig149
                    3D
 Schrodinger Suite 2021-1.
 42 45  0  0  1  0            999 V2000
   35.3287    2.9847   14.3248 C   0  0  0  0  0  0
   35.0054    2.0949   15.3553 C   0  0  0  0  0  0
   34.1003    1.0516   15.1388 C   0  0  0  0  0  0
   33.4879    0.9155   13.8900 C   0  0  0  0  0  0
   33.7942    1.8077   12.8634 C   0  0  0  0  0  0
   34.7254    2.8250   13.0720 C   0  0  0  0  0  0
   38.2551    6.0967   19.4580 C   0  0  1  0  0  0
   39.0506    6.3160   14.0741 C   0  0  0  0  0  0
   38.0005    5.6386   14.7121 C   0  0  0  0  0  0
   37.8780    5.7172   16.1074 C   0  0  0  0  0  0
   39.9866    7.0811   14.7703 C   0  0  0  0  0  0
   39.8555    7.1192   16.1600 C   0  0  0  0  0  0
   38.8193    6.4253   16.8436 C   0  0  0  0  0  0
   40.5905    7.7608   17.1301 N   0  0  0  0  0  0
   40.0882    7.4757   18.3786 C   0  0  0  0  0  0
   39.0065    6.6239   18.2414 C   0  0  0  0  0  0
   39.2177    6.2179   20.6724 C   0  0  0  0  0  0
   39.8780    7.5415   20.6720 N   0  0  0  0  0  0
   40.5884    8.0019   19.6156 C   0  0  0  0  0  0
   41.4780    8.8250   19.7656 O   0  0  0  0  0  0
   36.9255    6.8250   19.6928 C   0  0  0  0  0  0
   37.0390    4.7972   13.9056 C   0  0  0  0  0  0
   36.2423    3.9970   14.6564 N   0  0  0  0  0  0
   37.0780    4.8250   12.6742 O   0  0  0  0  0  0
   33.8090    0.1043   16.2058 C   0  0  0  0  0  0
   33.5817   -0.6537   17.0501 N   0  0  0  0  0  0
   35.4705    2.2079   16.3261 H   0  0  0  0  0  0
   32.7774    0.1220   13.7035 H   0  0  0  0  0  0
   33.3249    1.7005   11.8964 H   0  0  0  0  0  0
   34.9610    3.4988   12.2620 H   0  0  0  0  0  0
   38.0346    5.0372   19.3169 H   0  0  0  0  0  0
   39.1558    6.2559   12.9995 H   0  0  0  0  0  0
   37.0884    5.2230   16.6525 H   0  0  0  0  0  0
   40.7780    7.6030   14.2511 H   0  0  0  0  0  0
   41.3860    8.3694   16.9967 H   0  0  0  0  0  0
   39.9815    5.4386   20.6362 H   0  0  0  0  0  0
   38.6881    6.0723   21.6153 H   0  0  0  0  0  0
   40.0525    7.9670   21.5713 H   0  0  0  0  0  0
   36.2781    6.7364   18.8211 H   0  0  0  0  0  0
   36.3911    6.4094   20.5478 H   0  0  0  0  0  0
   37.0803    7.8869   19.8867 H   0  0  0  0  0  0
   36.3872    4.0803   15.6481 H   0  0  0  0  0  0
  1  2  2  0  0  0
  1 23  1  0  0  0
  1  6  1  0  0  0
  2  3  1  0  0  0
  2 27  1  0  0  0
  3  4  2  0  0  0
  3 25  1  0  0  0
  4  5  1  0  0  0
  4 28  1  0  0  0
  5  6  2  0  0  0
  5 29  1  0  0  0
  6 30  1  0  0  0
  7 16  1  0  0  0
  7 17  1  0  0  0
  7 21  1  0  0  0
  7 31  1  0  0  0
  8  9  2  0  0  0
  8 11  1  0  0  0
  8 32  1  0  0  0
  9 10  1  0  0  0
  9 22  1  0  0  0
 10 13  2  0  0  0
 10 33  1  0  0  0
 11 12  2  0  0  0
 11 34  1  0  0  0
 12 14  1  0  0  0
 12 13  1  0  0  0
 13 16  1  0  0  0
 14 15  1  0  0  0
 14 35  1  0  0  0
 15 16  2  0  0  0
 15 19  1  0  0  0
 17 18  1  0  0  0
 17 36  1  0  0  0
 17 37  1  0  0  0
 18 19  1  0  0  0
 18 38  1  0  0  0
 19 20  2  0  0  0
 21 39  1  0  0  0
 21 40  1  0  0  0
 21 41  1  0  0  0
 22 23  1  0  0  0
 22 24  2  0  0  0
 23 42  1  0  0  0
 25 26  3  0  0  0
M  END
> <s_m_entry_id>
7707

> <s_m_entry_name>
dock_pv.268

> <s_m_Source_Path>
/home/csk/Desktop/cluster/DUD-E-result/mapk2

> <s_m_Source_File>
dock_pv.maegz

> <i_m_Source_File_Index>
268

> <chembl_id>
CHEMBL246910

> <chembl_pref_name>
None

> <i_lp_mmshare_version>
53161

> <i_f3d_flags>
0

> <r_lp_tautomer_probability>
1

> <s_lp_Force_Field>
OPLS_2005

> <r_lp_Energy>
31.639536

> <b_lp_Chiralities_Consistent>
1

> <s_lp_Variant>
CHEMBL2208_lig149-2

> <s_i_glide_gridfile>
glide-grid_3m2w

> <i_i_glide_lignum>
220

> <i_i_glide_rotatable_bonds>
3

> <r_i_docking_score>
-6.82093951347214

> <r_i_glide_ligand_efficiency>
-0.262343827441236

> <r_i_glide_ligand_efficiency_sa>
-0.777192556521548

> <r_i_glide_ligand_efficiency_ln>
-1.60187526341089

> <r_i_glide_gscore>
-6.82093951347214

> <r_i_glide_lipo>
-2.57679330317566

> <r_i_glide_hbond>
-0.24235583443351

> <r_i_glide_metal>
0

> <r_i_glide_rewards>
-1.25093215932593

> <r_i_glide_evdw>
-38.5713005065918

> <r_i_glide_ecoul>
-7.89958715438843

> <r_i_glide_erotb>
0.480313527513786

> <r_i_glide_esite>
-0.117668645562979

> <r_i_glide_emodel>
-64.4646319411165

> <r_i_glide_energy>
-46.4708876609802

> <r_i_glide_einternal>
2.90701746940613

> <i_i_glide_confnum>
2

> <i_i_glide_posenum>
322

> <r_i_glide_eff_state_penalty>
0

> <s_user_duplicate_titles>
CHEMBL2208_lig149,412047

> <s_m_subgroup_title>
dock_pv

> <s_m_subgroupid>
dock_pv

> <b_m_subgroup_collapsed>
1

$$$$
CHEMBL2208_lig324
                    3D
 Schrodinger Suite 2021-1.
 43 47  0  0  1  0            999 V2000
   36.3926    5.3707   20.4192 C   0  0  0  0  0  0
   37.0708    6.0139   19.3811 C   0  0  0  0  0  0
   37.0270    5.5425   18.0667 C   0  0  0  0  0  0
   36.2785    4.3978   17.7719 C   0  0  0  0  0  0
   35.6588    4.2103   20.1263 C   0  0  0  0  0  0
   35.5880    3.7235   18.7871 C   0  0  0  0  0  0
   34.7737    2.5523   18.8634 C   0  0  0  0  0  0
   34.5085    2.4301   20.2096 N   0  0  0  0  0  0
   34.9814    3.4111   21.0006 N   0  0  0  0  0  0
   37.8241    6.1988   17.1082 N   0  0  0  0  0  0
   38.0235    6.0243   15.7305 C   0  0  0  0  0  0
   37.0874    5.4316   14.8722 C   0  0  0  0  0  0
   37.4765    5.2254   13.5482 C   0  0  0  0  0  0
   38.6791    5.6252   13.0722 N   0  0  0  0  0  0
   39.4827    6.2648   13.9547 C   0  0  0  0  0  0
   39.2149    6.4821   15.2647 N   0  0  0  0  0  0
   40.6779    6.7721   13.4721 N   0  0  0  0  0  0
   34.2825    1.6099   17.8076 C   0  0  0  0  0  0
   33.8784    0.3122   18.1310 C   0  0  0  0  0  0
   33.4693   -0.5836   17.1454 C   0  0  0  0  0  0
   34.2643    2.0117   16.4681 C   0  0  0  0  0  0
   33.8706    1.1244   15.4379 C   0  0  0  0  0  0
   33.4634   -0.1986   15.7824 C   0  0  0  0  0  0
   33.0628   -1.0870   14.7517 C   0  0  0  0  0  0
   33.0774   -0.6731   13.4210 C   0  0  0  0  0  0
   33.4771    0.6161   13.0849 C   0  0  0  0  0  0
   33.8717    1.5141   14.0741 C   0  0  0  0  0  0
   36.4635    5.7406   21.4330 H   0  0  0  0  0  0
   37.6616    6.8865   19.6142 H   0  0  0  0  0  0
   36.3092    3.9556   16.7956 H   0  0  0  0  0  0
   34.0207    1.6399   20.6089 H   0  0  0  0  0  0
   38.4995    6.8322   17.5068 H   0  0  0  0  0  0
   36.0964    5.1476   15.1873 H   0  0  0  0  0  0
   36.8155    4.7358   12.8478 H   0  0  0  0  0  0
   41.2510    7.3086   14.1042 H   0  0  0  0  0  0
   40.9090    6.6998   12.4813 H   0  0  0  0  0  0
   33.8901   -0.0202   19.1583 H   0  0  0  0  0  0
   33.1615   -1.5816   17.4199 H   0  0  0  0  0  0
   34.5388    3.0162   16.1912 H   0  0  0  0  0  0
   32.7433   -2.0871   15.0071 H   0  0  0  0  0  0
   32.7707   -1.3513   12.6392 H   0  0  0  0  0  0
   33.4814    0.9246   12.0494 H   0  0  0  0  0  0
   34.1846    2.5129   13.8046 H   0  0  0  0  0  0
  1  5  1  0  0  0
  1 28  1  0  0  0
  1  2  2  0  0  0
  2  3  1  0  0  0
  2 29  1  0  0  0
  3 10  1  0  0  0
  3  4  2  0  0  0
  4 30  1  0  0  0
  4  6  1  0  0  0
  5  9  2  0  0  0
  5  6  1  0  0  0
  6  7  2  0  0  0
  7 18  1  0  0  0
  7  8  1  0  0  0
  8 31  1  0  0  0
  8  9  1  0  0  0
 10 11  1  0  0  0
 10 32  1  0  0  0
 11 16  1  0  0  0
 11 12  2  0  0  0
 12 13  1  0  0  0
 12 33  1  0  0  0
 13 14  2  0  0  0
 13 34  1  0  0  0
 14 15  1  0  0  0
 15 16  2  0  0  0
 15 17  1  0  0  0
 17 35  1  0  0  0
 17 36  1  0  0  0
 18 19  2  0  0  0
 18 21  1  0  0  0
 19 20  1  0  0  0
 19 37  1  0  0  0
 20 23  2  0  0  0
 20 38  1  0  0  0
 21 22  2  0  0  0
 21 39  1  0  0  0
 22 23  1  0  0  0
 22 27  1  0  0  0
 23 24  1  0  0  0
 24 25  2  0  0  0
 24 40  1  0  0  0
 25 26  1  0  0  0
 25 41  1  0  0  0
 26 27  2  0  0  0
 26 42  1  0  0  0
 27 43  1  0  0  0
M  END
> <s_m_entry_id>
7708

> <s_m_entry_name>
dock_pv.269

> <s_m_Source_Path>
/home/csk/Desktop/cluster/DUD-E-result/mapk2

> <s_m_Source_File>
dock_pv.maegz

> <i_m_Source_File_Index>
269

> <chembl_id>
CHEMBL590834

> <chembl_pref_name>
None

> <i_lp_mmshare_version>
53161

> <i_f3d_flags>
0

> <r_lp_tautomer_probability>
0.01682948890584

> <s_lp_Force_Field>
OPLS_2005

> <r_lp_Energy>
31.716442

> <b_lp_Chiralities_Consistent>
1

> <s_lp_Variant>
CHEMBL2208_lig324-2

> <s_i_glide_gridfile>
glide-grid_3m2w

> <i_i_glide_lignum>
474

> <i_i_glide_rotatable_bonds>
3

> <r_i_docking_score>
-6.81998133230671

> <r_i_glide_ligand_efficiency>
-0.252591901196545

> <r_i_glide_ligand_efficiency_sa>
-0.757775702757133

> <r_i_glide_ligand_efficiency_ln>
-1.58757921798137

> <r_i_glide_gscore>
-6.81998133230671

> <r_i_glide_lipo>
-1.13104387607065

> <r_i_glide_hbond>
-0.620937882680486

> <r_i_glide_metal>
0

> <r_i_glide_rewards>
-2.25141859090909

> <r_i_glide_evdw>
-37.4937858581543

> <r_i_glide_ecoul>
-7.99400568008423

> <r_i_glide_erotb>
0.322733875962043

> <r_i_glide_esite>
-0.0655247136881779

> <r_i_glide_emodel>
-61.0745395078164

> <r_i_glide_energy>
-45.4877915382385

> <r_i_glide_einternal>
6.94569683074951

> <i_i_glide_confnum>
10

> <i_i_glide_posenum>
208

> <r_i_glide_eff_state_penalty>
0

> <s_user_duplicate_titles>
CHEMBL2208_lig324,590204

> <s_m_subgroup_title>
dock_pv

> <s_m_subgroupid>
dock_pv

> <b_m_subgroup_collapsed>
1

$$$$
CHEMBL2208_lig156
                    3D
 Schrodinger Suite 2021-1.
 37 40  0  0  1  0            999 V2000
   38.2647    6.0842   19.4257 C   0  0  1  0  0  0
   39.2187    6.2689   14.0572 C   0  0  0  0  0  0
   38.1350    5.6085   14.6568 C   0  0  0  0  0  0
   37.9669    5.6809   16.0480 C   0  0  0  0  0  0
   40.1328    7.0320   14.7802 C   0  0  0  0  0  0
   39.9504    7.0789   16.1622 C   0  0  0  0  0  0
   38.8887    6.3920   16.8163 C   0  0  0  0  0  0
   40.6559    7.7307   17.1454 N   0  0  0  0  0  0
   40.1238    7.4532   18.3818 C   0  0  0  0  0  0
   39.0421    6.6012   18.2207 C   0  0  0  0  0  0
   39.2099    6.1988   20.6560 C   0  0  0  0  0  0
   39.8779    7.5204   20.6718 N   0  0  0  0  0  0
   40.5984    7.9907   19.6255 C   0  0  0  0  0  0
   41.4780    8.8247   19.7867 O   0  0  0  0  0  0
   36.9389    6.8250   19.6408 C   0  0  0  0  0  0
   37.1700    4.8251   13.7969 C   0  0  0  0  0  0
   36.2712    4.0583   14.4591 N   0  0  0  0  0  0
   37.2658    4.8778   12.5678 O   0  0  0  0  0  0
   35.2849    3.2624   13.8997 C   0  0  0  0  0  0
   34.9146    3.2241   12.6406 N   0  0  0  0  0  0
   33.8781    2.4242   12.4665 C   0  0  0  0  0  0
   33.4225    1.7512   13.5979 C   0  0  0  0  0  0
   34.3905    2.2247   14.9620 S   0  0  0  0  0  0
   38.0365    5.0270   19.2834 H   0  0  0  0  0  0
   39.3659    6.2050   12.9873 H   0  0  0  0  0  0
   37.1506    5.1894   16.5558 H   0  0  0  0  0  0
   40.9414    7.5530   14.2875 H   0  0  0  0  0  0
   41.4527    8.3406   17.0278 H   0  0  0  0  0  0
   39.9705    5.4158   20.6291 H   0  0  0  0  0  0
   38.6647    6.0510   21.5901 H   0  0  0  0  0  0
   40.0335    7.9455   21.5740 H   0  0  0  0  0  0
   36.3149    6.7729   18.7488 H   0  0  0  0  0  0
   36.3735    6.3923   20.4677 H   0  0  0  0  0  0
   37.1030    7.8783   19.8731 H   0  0  0  0  0  0
   36.3423    4.0172   15.4620 H   0  0  0  0  0  0
   33.4629    2.3260   11.4743 H   0  0  0  0  0  0
   32.6102    1.0457   13.6954 H   0  0  0  0  0  0
  1 10  1  0  0  0
  1 11  1  0  0  0
  1 15  1  0  0  0
  1 24  1  0  0  0
  2  3  2  0  0  0
  2  5  1  0  0  0
  2 25  1  0  0  0
  3  4  1  0  0  0
  3 16  1  0  0  0
  4  7  2  0  0  0
  4 26  1  0  0  0
  5  6  2  0  0  0
  5 27  1  0  0  0
  6  8  1  0  0  0
  6  7  1  0  0  0
  7 10  1  0  0  0
  8  9  1  0  0  0
  8 28  1  0  0  0
  9 13  1  0  0  0
  9 10  2  0  0  0
 11 12  1  0  0  0
 11 29  1  0  0  0
 11 30  1  0  0  0
 12 13  1  0  0  0
 12 31  1  0  0  0
 13 14  2  0  0  0
 15 32  1  0  0  0
 15 33  1  0  0  0
 15 34  1  0  0  0
 16 17  1  0  0  0
 16 18  2  0  0  0
 17 19  1  0  0  0
 17 35  1  0  0  0
 19 20  2  0  0  0
 19 23  1  0  0  0
 20 21  1  0  0  0
 21 22  2  0  0  0
 21 36  1  0  0  0
 22 23  1  0  0  0
 22 37  1  0  0  0
M  END
> <s_m_entry_id>
7709

> <s_m_entry_name>
dock_pv.270

> <s_m_Source_Path>
/home/csk/Desktop/cluster/DUD-E-result/mapk2

> <s_m_Source_File>
dock_pv.maegz

> <i_m_Source_File_Index>
270

> <chembl_id>
CHEMBL247510

> <chembl_pref_name>
None

> <i_lp_mmshare_version>
53161

> <i_f3d_flags>
0

> <r_lp_tautomer_probability>
0.999000488399163

> <s_lp_Force_Field>
OPLS_2005

> <r_lp_Energy>
23.587667

> <b_lp_Chiralities_Consistent>
1

> <s_lp_Variant>
CHEMBL2208_lig156-2

> <s_i_glide_gridfile>
glide-grid_3m2w

> <i_i_glide_lignum>
234

> <i_i_glide_rotatable_bonds>
3

> <r_i_docking_score>
-6.81892971936881

> <r_i_glide_ligand_efficiency>
-0.296475205189948

> <r_i_glide_ligand_efficiency_sa>
-0.843136045503195

> <r_i_glide_ligand_efficiency_ln>
-1.64887903677959

> <r_i_glide_gscore>
-6.81892971936881

> <r_i_glide_lipo>
-2.50645254815332

> <r_i_glide_hbond>
-0.396439703989806

> <r_i_glide_metal>
0

> <r_i_glide_rewards>
-1.359029343902

> <r_i_glide_evdw>
-34.7027130126953

> <r_i_glide_ecoul>
-8.30187034606934

> <r_i_glide_erotb>
0.528179042631369

> <r_i_glide_esite>
-0.104770963409877

> <r_i_glide_emodel>
-59.965403874224

> <r_i_glide_energy>
-43.0045833587646

> <r_i_glide_einternal>
1.07010233402252

> <i_i_glide_confnum>
2

> <i_i_glide_posenum>
362

> <r_i_glide_eff_state_penalty>
0

> <s_user_duplicate_titles>
CHEMBL2208_lig156,412027

> <s_m_subgroup_title>
dock_pv

> <s_m_subgroupid>
dock_pv

> <b_m_subgroup_collapsed>
1

$$$$
CHEMBL2208_lig222
                    3D
 Schrodinger Suite 2021-1.
 38 41  0  0  1  0            999 V2000
   39.1902    6.1861   13.9588 C   0  0  0  0  0  0
   38.0824    5.6500   14.6324 C   0  0  0  0  0  0
   37.9386    5.8670   16.0104 C   0  0  0  0  0  0
   40.1756    6.9311   14.6046 C   0  0  0  0  0  0
   37.0789    4.8140   13.8759 C   0  0  0  0  0  0
   37.0797    4.8251   12.6428 O   0  0  0  0  0  0
   36.2918    4.0268   14.6522 N   0  0  0  0  0  0
   35.3203    3.1187   14.2657 C   0  0  0  0  0  0
   40.0326    7.0961   15.9831 C   0  0  0  0  0  0
   38.9272    6.5627   16.7028 C   0  0  0  0  0  0
   40.8192    7.7421   16.9084 N   0  0  0  0  0  0
   40.2780    7.6258   18.1665 C   0  0  0  0  0  0
   39.1158    6.8836   18.0794 C   0  0  0  0  0  0
   38.2977    6.5752   19.3186 C   0  0  0  0  0  0
   39.2215    6.7174   20.5676 C   0  0  1  0  0  0
   40.0473    7.9437   20.4402 N   0  0  0  0  0  0
   40.8424    8.1753   19.3662 C   0  0  0  0  0  0
   41.8777    8.8251   19.4720 O   0  0  0  0  0  0
   38.4323    6.6430   21.8928 C   0  0  0  0  0  0
   34.8304    2.9168   13.0645 N   0  0  0  0  0  0
   33.8841    1.9964   13.0721 C   0  0  0  0  0  0
   33.6207    1.3953   14.2990 C   0  0  0  0  0  0
   34.6600    2.0969   15.5027 S   0  0  0  0  0  0
   37.9265    5.3405   22.1184 O   0  0  0  0  0  0
   39.3060    6.0249   12.8957 H   0  0  0  0  0  0
   37.0954    5.4867   16.5679 H   0  0  0  0  0  0
   41.0115    7.3422   14.0567 H   0  0  0  0  0  0
   36.4686    4.0528   15.6431 H   0  0  0  0  0  0
   41.6735    8.2537   16.7368 H   0  0  0  0  0  0
   37.8936    5.5627   19.2780 H   0  0  0  0  0  0
   37.4413    7.2452   19.3909 H   0  0  0  0  0  0
   39.9276    5.8810   20.5716 H   0  0  0  0  0  0
   40.4413    8.2785   21.3059 H   0  0  0  0  0  0
   37.6095    7.3590   21.8971 H   0  0  0  0  0  0
   39.0784    6.8985   22.7339 H   0  0  0  0  0  0
   33.3883    1.7566   12.1426 H   0  0  0  0  0  0
   32.9057    0.6244   14.5461 H   0  0  0  0  0  0
   38.6434    4.7836   22.4420 H   0  0  0  0  0  0
  1  2  2  0  0  0
  1  4  1  0  0  0
  1 25  1  0  0  0
  2  5  1  0  0  0
  2  3  1  0  0  0
  3 10  2  0  0  0
  3 26  1  0  0  0
  4  9  2  0  0  0
  4 27  1  0  0  0
  5  6  2  0  0  0
  5  7  1  0  0  0
  7  8  1  0  0  0
  7 28  1  0  0  0
  8 20  2  0  0  0
  8 23  1  0  0  0
  9 11  1  0  0  0
  9 10  1  0  0  0
 10 13  1  0  0  0
 11 12  1  0  0  0
 11 29  1  0  0  0
 12 13  2  0  0  0
 12 17  1  0  0  0
 13 14  1  0  0  0
 14 15  1  0  0  0
 14 30  1  0  0  0
 14 31  1  0  0  0
 15 16  1  0  0  0
 15 19  1  0  0  0
 15 32  1  0  0  0
 16 17  1  0  0  0
 16 33  1  0  0  0
 17 18  2  0  0  0
 19 24  1  0  0  0
 19 34  1  0  0  0
 19 35  1  0  0  0
 20 21  1  0  0  0
 21 22  2  0  0  0
 21 36  1  0  0  0
 22 23  1  0  0  0
 22 37  1  0  0  0
 24 38  1  0  0  0
M  END
> <s_m_entry_id>
7710

> <s_m_entry_name>
dock_pv.271

> <s_m_Source_Path>
/home/csk/Desktop/cluster/DUD-E-result/mapk2

> <s_m_Source_File>
dock_pv.maegz

> <i_m_Source_File_Index>
271

> <chembl_id>
CHEMBL269791

> <chembl_pref_name>
None

> <i_lp_mmshare_version>
53161

> <i_f3d_flags>
0

> <r_lp_tautomer_probability>
0.999000488399163

> <s_lp_Force_Field>
OPLS_2005

> <r_lp_Energy>
19.942978

> <b_lp_Chiralities_Consistent>
1

> <s_lp_Variant>
CHEMBL2208_lig222-2

> <s_i_glide_gridfile>
glide-grid_3m2w

> <i_i_glide_lignum>
350

> <i_i_glide_rotatable_bonds>
5

> <r_i_docking_score>
-6.81584818599733

> <r_i_glide_ligand_efficiency>
-0.283993674416556

> <r_i_glide_ligand_efficiency_sa>
-0.8191795089268

> <r_i_glide_ligand_efficiency_ln>
-1.63134522980277

> <r_i_glide_gscore>
-6.81584818599733

> <r_i_glide_lipo>
-2.4619481563306

> <r_i_glide_hbond>
-0.32795078242985

> <r_i_glide_metal>
0

> <r_i_glide_rewards>
-1.29194913659652

> <r_i_glide_evdw>
-40.7370681762695

> <r_i_glide_ecoul>
-8.18140983581543

> <r_i_glide_erotb>
0.647048962435417

> <r_i_glide_esite>
-0.11698418889

> <r_i_glide_emodel>
-67.2620846858535

> <r_i_glide_energy>
-48.918478012085

> <r_i_glide_einternal>
2.45625448226929

> <i_i_glide_confnum>
10

> <i_i_glide_posenum>
240

> <r_i_glide_eff_state_penalty>
0

> <s_user_duplicate_titles>
CHEMBL2208_lig222

> <s_m_subgroup_title>
dock_pv

> <s_m_subgroupid>
dock_pv

> <b_m_subgroup_collapsed>
1

$$$$
CHEMBL2208_lig1224
                    3D
 Schrodinger Suite 2021-1.
 49 51  0  0  1  0            999 V2000
   35.5219    0.8379   15.1400 O   0  0  0  0  0  0
   36.4244    4.6459   17.7948 N   0  0  0  0  0  0
   35.0823    2.2088   17.6296 N   0  0  0  0  0  0
   36.8942    4.6142   15.4597 N   0  0  0  0  0  0
   36.0492    4.6823   20.1591 N   0  0  0  0  0  0
   34.9030    2.7745   14.1997 N   0  0  0  0  0  0
   38.2780    4.4250   22.1167 N   0  0  0  0  0  0
   36.2780    4.0331   16.5910 C   0  0  0  0  0  0
   35.5768    2.8062   16.5100 C   0  0  0  0  0  0
   35.9179    4.0582   18.9088 C   0  0  0  0  0  0
   35.2541    2.8373   18.8188 C   0  0  0  0  0  0
   35.3396    2.0506   15.2289 C   0  0  0  0  0  0
   37.9185    5.5688   15.2987 C   0  0  0  0  0  0
   37.0118    5.7666   20.3819 C   0  0  2  0  0  0
   38.3736    5.2102   20.8927 C   0  0  1  0  0  0
   38.2779    6.5199   16.2649 C   0  0  0  0  0  0
   38.6308    5.5382   14.0966 C   0  0  0  0  0  0
   36.4082    6.8189   21.3357 C   0  0  0  0  0  0
   39.3243    7.4192   16.0331 C   0  0  0  0  0  0
   39.3353    6.4019   21.0724 C   0  0  0  0  0  0
   39.6990    6.4075   13.8722 C   0  0  0  0  0  0
   37.3877    7.9887   21.5627 C   0  0  0  0  0  0
   40.0452    7.3478   14.8397 C   0  0  0  0  0  0
   38.7755    7.4908   22.0176 C   0  0  0  0  0  0
   39.6773    8.4637   17.0761 C   0  0  0  0  0  0
   36.7637    4.0451   14.6360 H   0  0  0  0  0  0
   35.7853    4.1480   20.9739 H   0  0  0  0  0  0
   34.6568    3.7432   14.3425 H   0  0  0  0  0  0
   34.7478    2.3286   13.3096 H   0  0  0  0  0  0
   38.1194    3.4523   21.8726 H   0  0  0  0  0  0
   39.1884    4.4254   22.5757 H   0  0  0  0  0  0
   34.8562    2.3388   19.6911 H   0  0  0  0  0  0
   37.1986    6.2741   19.4355 H   0  0  0  0  0  0
   38.7781    4.5693   20.1073 H   0  0  0  0  0  0
   37.7358    6.5994   17.1918 H   0  0  0  0  0  0
   38.3740    4.8136   13.3384 H   0  0  0  0  0  0
   35.4779    7.2068   20.9258 H   0  0  0  0  0  0
   36.1612    6.3570   22.2928 H   0  0  0  0  0  0
   40.2779    6.0247   21.4650 H   0  0  0  0  0  0
   39.5803    6.8281   20.0999 H   0  0  0  0  0  0
   40.2568    6.3578   12.9479 H   0  0  0  0  0  0
   36.9778    8.6788   22.3009 H   0  0  0  0  0  0
   37.4919    8.5581   20.6379 H   0  0  0  0  0  0
   40.8653    8.0267   14.6537 H   0  0  0  0  0  0
   38.6980    7.0856   23.0288 H   0  0  0  0  0  0
   39.4744    8.3249   22.0835 H   0  0  0  0  0  0
   40.7366    8.7201   17.0353 H   0  0  0  0  0  0
   39.4818    8.0912   18.0815 H   0  0  0  0  0  0
   39.0878    9.3678   16.9207 H   0  0  0  0  0  0
  1 12  2  0  0  0
  2  8  2  0  0  0
  2 10  1  0  0  0
  3  9  2  0  0  0
  3 11  1  0  0  0
  4  8  1  0  0  0
  4 13  1  0  0  0
  4 26  1  0  0  0
  5 10  1  0  0  0
  5 14  1  0  0  0
  5 27  1  0  0  0
  6 12  1  0  0  0
  6 28  1  0  0  0
  6 29  1  0  0  0
  7 15  1  0  0  0
  7 30  1  0  0  0
  7 31  1  0  0  0
  8  9  1  0  0  0
  9 12  1  0  0  0
 10 11  2  0  0  0
 11 32  1  0  0  0
 13 16  2  0  0  0
 13 17  1  0  0  0
 14 15  1  0  0  0
 14 18  1  0  0  0
 14 33  1  0  0  0
 15 20  1  0  0  0
 15 34  1  0  0  0
 16 19  1  0  0  0
 16 35  1  0  0  0
 17 21  2  0  0  0
 17 36  1  0  0  0
 18 22  1  0  0  0
 18 37  1  0  0  0
 18 38  1  0  0  0
 19 23  2  0  0  0
 19 25  1  0  0  0
 20 24  1  0  0  0
 20 39  1  0  0  0
 20 40  1  0  0  0
 21 23  1  0  0  0
 21 41  1  0  0  0
 22 24  1  0  0  0
 22 42  1  0  0  0
 22 43  1  0  0  0
 23 44  1  0  0  0
 24 45  1  0  0  0
 24 46  1  0  0  0
 25 47  1  0  0  0
 25 48  1  0  0  0
 25 49  1  0  0  0
M  END
> <s_m_entry_id>
7711

> <s_m_entry_name>
dock_pv.272

> <s_m_Source_Path>
/home/csk/Desktop/cluster/DUD-E-result/mapk2

> <s_m_Source_File>
dock_pv.maegz

> <i_m_Source_File_Index>
272

> <chembl_id>
CHEMBL1974328

> <chembl_pref_name>
None

> <i_lp_mmshare_version>
53161

> <i_f3d_flags>
0

> <r_lp_tautomer_probability>
1

> <s_lp_Force_Field>
OPLS_2005

> <r_lp_Energy>
40.851014

> <b_lp_Chiralities_Consistent>
1

> <s_lp_Variant>
CHEMBL2208_lig1224-3

> <s_i_glide_gridfile>
glide-grid_3m2w

> <i_i_glide_lignum>
1656

> <i_i_glide_rotatable_bonds>
5

> <r_i_docking_score>
-6.81549782904159

> <r_i_glide_ligand_efficiency>
-0.272619913161664

> <r_i_glide_ligand_efficiency_sa>
-0.797145461019452

> <r_i_glide_ligand_efficiency_ln>
-1.61547722947132

> <r_i_glide_gscore>
-6.81549782904159

> <r_i_glide_lipo>
-2.42658634794885

> <r_i_glide_hbond>
-0.580677679348274

> <r_i_glide_metal>
0

> <r_i_glide_rewards>
-1.38972737597454

> <r_i_glide_evdw>
-37.9185485839844

> <r_i_glide_ecoul>
-7.77605628967285

> <r_i_glide_erotb>
0.653638663091057

> <r_i_glide_esite>
-0.00980921621083868

> <r_i_glide_emodel>
-62.6639314862763

> <r_i_glide_energy>
-45.6946048736572

> <r_i_glide_einternal>
1.95561873912811

> <i_i_glide_confnum>
30

> <i_i_glide_posenum>
319

> <r_i_glide_eff_state_penalty>
0

> <s_user_duplicate_titles>
CHEMBL2208_lig1224

> <s_m_subgroup_title>
dock_pv

> <s_m_subgroupid>
dock_pv

> <b_m_subgroup_collapsed>
1

$$$$
CHEMBL2208_lig1508
                    3D
 Schrodinger Suite 2021-1.
 38 41  0  0  1  0            999 V2000
   37.4158    5.6620   20.9792 S   0  0  0  0  0  0
   39.0814    7.6343   21.3465 N   0  0  0  0  0  0
   38.2512    6.7448   23.3480 N   0  0  0  0  0  0
   38.6861    5.6255   13.1169 N   0  0  0  0  0  0
   38.2106    6.3640   19.5780 C   0  0  0  0  0  0
   39.0687    7.4043   20.0069 C   0  0  0  0  0  0
   38.8790    6.7255   17.2843 C   0  0  0  0  0  0
   38.3229    6.7841   21.9795 C   0  0  0  0  0  0
   38.1073    6.0249   18.2230 C   0  0  0  0  0  0
   39.8292    8.1123   19.0675 C   0  0  0  0  0  0
   38.8099    6.3584   15.8405 C   0  0  0  0  0  0
   39.7202    7.7591   17.7206 C   0  0  0  0  0  0
   39.9529    6.3958   15.0271 C   0  0  0  0  0  0
   37.6039    5.9415   15.2535 C   0  0  0  0  0  0
   37.6027    5.7242   24.1649 C   0  0  0  0  0  0
   37.5131    6.1558   25.6227 C   0  0  0  0  0  0
   39.8499    6.0256   13.6858 C   0  0  0  0  0  0
   37.5846    5.5838   13.9054 C   0  0  0  0  0  0
   38.6785    6.4180   26.3479 C   0  0  0  0  0  0
   36.2668    6.2742   26.2439 C   0  0  0  0  0  0
   38.6028    6.8253   27.6758 C   0  0  0  0  0  0
   36.1890    6.6671   27.5779 C   0  0  0  0  0  0
   37.3567    6.9409   28.2889 C   0  0  0  0  0  0
   38.9928    7.2174   23.8590 H   0  0  0  0  0  0
   37.4587    5.2158   17.9171 H   0  0  0  0  0  0
   40.4883    8.9048   19.3773 H   0  0  0  0  0  0
   40.3084    8.3098   17.0000 H   0  0  0  0  0  0
   40.9107    6.6920   15.4254 H   0  0  0  0  0  0
   36.6900    5.8917   15.8269 H   0  0  0  0  0  0
   38.1874    4.8039   24.1037 H   0  0  0  0  0  0
   36.6114    5.4978   23.7678 H   0  0  0  0  0  0
   40.7195    6.0340   13.0466 H   0  0  0  0  0  0
   36.6720    5.2493   13.4391 H   0  0  0  0  0  0
   39.6456    6.3225   25.8744 H   0  0  0  0  0  0
   35.3607    6.0709   25.6904 H   0  0  0  0  0  0
   39.5113    7.0473   28.2182 H   0  0  0  0  0  0
   35.2262    6.7625   28.0578 H   0  0  0  0  0  0
   37.2937    7.2528   29.3203 H   0  0  0  0  0  0
  1  5  1  0  0  0
  1  8  1  0  0  0
  2  6  1  0  0  0
  2  8  2  0  0  0
  3  8  1  0  0  0
  3 15  1  0  0  0
  3 24  1  0  0  0
  4 17  2  0  0  0
  4 18  1  0  0  0
  5  6  1  0  0  0
  5  9  2  0  0  0
  6 10  2  0  0  0
  7  9  1  0  0  0
  7 11  1  0  0  0
  7 12  2  0  0  0
  9 25  1  0  0  0
 10 12  1  0  0  0
 10 26  1  0  0  0
 11 13  2  0  0  0
 11 14  1  0  0  0
 12 27  1  0  0  0
 13 17  1  0  0  0
 13 28  1  0  0  0
 14 18  2  0  0  0
 14 29  1  0  0  0
 15 16  1  0  0  0
 15 30  1  0  0  0
 15 31  1  0  0  0
 16 19  2  0  0  0
 16 20  1  0  0  0
 17 32  1  0  0  0
 18 33  1  0  0  0
 19 21  1  0  0  0
 19 34  1  0  0  0
 20 22  2  0  0  0
 20 35  1  0  0  0
 21 23  2  0  0  0
 21 36  1  0  0  0
 22 23  1  0  0  0
 22 37  1  0  0  0
 23 38  1  0  0  0
M  END
> <s_m_entry_id>
7712

> <s_m_entry_name>
dock_pv.273

> <s_m_Source_Path>
/home/csk/Desktop/cluster/DUD-E-result/mapk2

> <s_m_Source_File>
dock_pv.maegz

> <i_m_Source_File_Index>
273

> <chembl_id>
CHEMBL1983534

> <chembl_pref_name>
None

> <i_lp_mmshare_version>
53161

> <i_f3d_flags>
0

> <r_lp_tautomer_probability>
1

> <s_lp_Force_Field>
OPLS_2005

> <r_lp_Energy>
11.654867

> <b_lp_Chiralities_Consistent>
1

> <s_lp_Variant>
CHEMBL2208_lig1508-1

> <s_i_glide_gridfile>
glide-grid_3m2w

> <i_i_glide_lignum>
2106

> <i_i_glide_rotatable_bonds>
4

> <r_i_docking_score>
-6.81306579931096

> <r_i_glide_ligand_efficiency>
-0.296220252143955

> <r_i_glide_ligand_efficiency_sa>
-0.842410992955039

> <r_i_glide_ligand_efficiency_ln>
-1.64746108773851

> <r_i_glide_gscore>
-6.81306579931096

> <r_i_glide_lipo>
-2.08473713971453

> <r_i_glide_hbond>
-0.448872402125195

> <r_i_glide_metal>
0

> <r_i_glide_rewards>
-2.12218350798003

> <r_i_glide_evdw>
-39.5999908447266

> <r_i_glide_ecoul>
-5.59243869781494

> <r_i_glide_erotb>
0.739684016457143

> <r_i_glide_esite>
-0.0780914190397734

> <r_i_glide_emodel>
-61.0269642862467

> <r_i_glide_energy>
-45.1924295425415

> <r_i_glide_einternal>
5.62809324264526

> <i_i_glide_confnum>
13

> <i_i_glide_posenum>
276

> <r_i_glide_eff_state_penalty>
0

> <s_user_duplicate_titles>
CHEMBL2208_lig1508

> <s_m_subgroup_title>
dock_pv

> <s_m_subgroupid>
dock_pv

> <b_m_subgroup_collapsed>
1

$$$$
CHEMBL2208_lig1066
                    3D
 Schrodinger Suite 2021-1.
 28 30  0  0  1  0            999 V2000
   37.5360    4.8290   22.0773 C   0  0  0  0  0  0
   36.5152    4.0324   21.5711 C   0  0  0  0  0  0
   36.2186    4.0619   20.2124 C   0  0  0  0  0  0
   38.2740    5.6465   21.2209 C   0  0  0  0  0  0
   37.9957    5.6926   19.8424 C   0  0  0  0  0  0
   36.9400    4.8845   19.3339 C   0  0  0  0  0  0
   36.6255    4.9391   17.9693 N   0  0  0  0  0  0
   38.8237    6.5895   18.9482 C   0  0  0  0  0  0
   35.8781    3.9268   17.4058 O   0  0  0  0  0  0
   39.6829    7.3583   19.3841 O   0  0  0  0  0  0
   37.8782    4.7966   23.7687 Cl  0  0  0  0  0  0
   39.0896    6.9457   16.3548 C   0  0  0  0  0  0
   38.4982    6.4246   17.5253 C   0  0  0  0  0  0
   37.4425    5.6249   17.1061 C   0  0  0  0  0  0
   37.4853    5.6896   15.7274 N   0  0  0  0  0  0
   38.4802    6.4705   15.2851 N   0  0  0  0  0  0
   36.6496    5.0144   14.7385 C   0  0  0  0  0  0
   40.2452    7.9281   16.2008 C   0  0  0  0  0  0
   39.8770    9.1492   16.5889 F   0  0  0  0  0  0
   40.6663    8.0182   14.9364 F   0  0  0  0  0  0
   41.2947    7.5671   16.9385 F   0  0  0  0  0  0
   35.9535    3.3869   22.2303 H   0  0  0  0  0  0
   35.4195    3.4326   19.8487 H   0  0  0  0  0  0
   39.0735    6.2400   21.6457 H   0  0  0  0  0  0
   35.0442    4.3807   17.2138 H   0  0  0  0  0  0
   35.6103    5.0106   15.0690 H   0  0  0  0  0  0
   36.6924    5.5312   13.7771 H   0  0  0  0  0  0
   36.9977    3.9863   14.6133 H   0  0  0  0  0  0
  1  4  1  0  0  0
  1 11  1  0  0  0
  1  2  2  0  0  0
  2  3  1  0  0  0
  2 22  1  0  0  0
  3  6  2  0  0  0
  3 23  1  0  0  0
  4  5  2  0  0  0
  4 24  1  0  0  0
  5  6  1  0  0  0
  5  8  1  0  0  0
  6  7  1  0  0  0
  7 14  1  0  0  0
  7  9  1  0  0  0
  8 10  2  0  0  0
  8 13  1  0  0  0
  9 25  1  0  0  0
 12 13  1  0  0  0
 12 16  2  0  0  0
 12 18  1  0  0  0
 13 14  2  0  0  0
 14 15  1  0  0  0
 15 16  1  0  0  0
 15 17  1  0  0  0
 17 26  1  0  0  0
 17 27  1  0  0  0
 17 28  1  0  0  0
 18 19  1  0  0  0
 18 20  1  0  0  0
 18 21  1  0  0  0
M  END
> <s_m_entry_id>
7713

> <s_m_entry_name>
dock_pv.274

> <s_m_Source_Path>
/home/csk/Desktop/cluster/DUD-E-result/mapk2

> <s_m_Source_File>
dock_pv.maegz

> <i_m_Source_File_Index>
274

> <chembl_id>
CHEMBL207400

> <chembl_pref_name>
None

> <i_lp_mmshare_version>
53161

> <i_f3d_flags>
0

> <r_lp_tautomer_probability>
1

> <s_lp_Force_Field>
OPLS_2005

> <r_lp_Energy>
16.297072

> <b_lp_Chiralities_Consistent>
1

> <s_lp_Variant>
CHEMBL2208_lig1066-1

> <s_i_glide_gridfile>
glide-grid_3m2w

> <i_i_glide_lignum>
1410

> <i_i_glide_rotatable_bonds>
2

> <r_i_docking_score>
-6.8116624733878

> <r_i_glide_ligand_efficiency>
-0.324364879685133

> <r_i_glide_ligand_efficiency_sa>
-0.894898107624089

> <r_i_glide_ligand_efficiency_ln>
-1.68416978228509

> <r_i_glide_gscore>
-6.8116624733878

> <r_i_glide_lipo>
-1.04401114506148

> <r_i_glide_hbond>
-0.32

> <r_i_glide_metal>
0

> <r_i_glide_rewards>
-3.01730185914145

> <r_i_glide_evdw>
-31.7009315490723

> <r_i_glide_ecoul>
-5.63535261154175

> <r_i_glide_erotb>
0

> <r_i_glide_esite>
0

> <r_i_glide_emodel>
-52.3793540837175

> <r_i_glide_energy>
-37.336284160614

> <r_i_glide_einternal>
0.297717362642288

> <i_i_glide_confnum>
1

> <i_i_glide_posenum>
394

> <r_i_glide_eff_state_penalty>
0

> <s_user_duplicate_titles>
CHEMBL2208_lig1066

> <s_m_subgroup_title>
dock_pv

> <s_m_subgroupid>
dock_pv

> <b_m_subgroup_collapsed>
1

$$$$
CHEMBL2208_lig1511
                    3D
 Schrodinger Suite 2021-1.
 45 48  0  0  1  0            999 V2000
   36.6395    6.1155   20.7275 S   0  0  0  0  0  0
   39.4776    6.0239   26.2720 O   0  0  0  0  0  0
   38.7963    7.3701   21.4485 N   0  0  0  0  0  0
   37.4952    6.7055   23.2764 N   0  0  0  0  0  0
   38.9971    5.7004   13.1101 N   0  0  0  0  0  0
   37.8300    6.4963   19.4991 C   0  0  0  0  0  0
   38.8883    7.2157   20.0999 C   0  0  0  0  0  0
   37.7477    6.7593   21.9259 C   0  0  0  0  0  0
   38.8869    6.6734   17.3302 C   0  0  0  0  0  0
   37.8337    6.1992   18.1312 C   0  0  0  0  0  0
   39.9285    7.7064   19.3031 C   0  0  0  0  0  0
   38.9252    6.3542   15.8629 C   0  0  0  0  0  0
   39.8988    7.4408   17.9322 C   0  0  0  0  0  0
   37.3165    5.5344   24.1533 C   0  0  2  0  0  0
   36.2101    4.5602   23.6903 C   0  0  0  0  0  0
   37.7580    6.0213   15.1510 C   0  0  0  0  0  0
   40.1332    6.3480   15.1437 C   0  0  0  0  0  0
   37.1357    5.9863   25.6311 C   0  0  0  0  0  0
   36.4847    3.6503   22.6649 C   0  0  0  0  0  0
   34.9326    4.5468   24.2718 C   0  0  0  0  0  0
   37.8332    5.6994   13.7974 C   0  0  0  0  0  0
   40.1252    6.0299   13.7853 C   0  0  0  0  0  0
   35.4840    2.8244   22.1634 C   0  0  0  0  0  0
   33.9400    3.6921   23.8020 C   0  0  0  0  0  0
   38.2929    6.7850   26.2588 C   0  0  0  0  0  0
   34.2182    2.8410   22.7382 C   0  0  0  0  0  0
   40.1290    6.5035   25.7292 H   0  0  0  0  0  0
   38.1114    7.3258   23.7816 H   0  0  0  0  0  0
   37.0325    5.6046   17.7186 H   0  0  0  0  0  0
   40.7409    8.2595   19.7433 H   0  0  0  0  0  0
   40.7050    7.8369   17.3325 H   0  0  0  0  0  0
   38.2588    4.9830   24.1175 H   0  0  0  0  0  0
   36.7875    6.0171   15.6199 H   0  0  0  0  0  0
   41.0738    6.5742   15.6197 H   0  0  0  0  0  0
   36.2423    6.6057   25.7100 H   0  0  0  0  0  0
   36.9488    5.1126   26.2571 H   0  0  0  0  0  0
   37.4694    3.6187   22.2199 H   0  0  0  0  0  0
   34.6758    5.2221   25.0721 H   0  0  0  0  0  0
   36.9500    5.4295   13.2363 H   0  0  0  0  0  0
   41.0418    6.0364   13.2141 H   0  0  0  0  0  0
   35.7000    2.1444   21.3501 H   0  0  0  0  0  0
   32.9558    3.7041   24.2481 H   0  0  0  0  0  0
   38.5037    7.6784   25.6710 H   0  0  0  0  0  0
   38.0500    7.1123   27.2695 H   0  0  0  0  0  0
   33.4540    2.1792   22.3599 H   0  0  0  0  0  0
  1  6  1  0  0  0
  1  8  1  0  0  0
  2 25  1  0  0  0
  2 27  1  0  0  0
  3  7  1  0  0  0
  3  8  2  0  0  0
  4  8  1  0  0  0
  4 14  1  0  0  0
  4 28  1  0  0  0
  5 21  2  0  0  0
  5 22  1  0  0  0
  6  7  1  0  0  0
  6 10  2  0  0  0
  7 11  2  0  0  0
  9 10  1  0  0  0
  9 12  1  0  0  0
  9 13  2  0  0  0
 10 29  1  0  0  0
 11 13  1  0  0  0
 11 30  1  0  0  0
 12 16  2  0  0  0
 12 17  1  0  0  0
 13 31  1  0  0  0
 14 15  1  0  0  0
 14 18  1  0  0  0
 14 32  1  0  0  0
 15 19  2  0  0  0
 15 20  1  0  0  0
 16 21  1  0  0  0
 16 33  1  0  0  0
 17 22  2  0  0  0
 17 34  1  0  0  0
 18 25  1  0  0  0
 18 35  1  0  0  0
 18 36  1  0  0  0
 19 23  1  0  0  0
 19 37  1  0  0  0
 20 24  2  0  0  0
 20 38  1  0  0  0
 21 39  1  0  0  0
 22 40  1  0  0  0
 23 26  2  0  0  0
 23 41  1  0  0  0
 24 26  1  0  0  0
 24 42  1  0  0  0
 25 43  1  0  0  0
 25 44  1  0  0  0
 26 45  1  0  0  0
M  END
> <s_m_entry_id>
7714

> <s_m_entry_name>
dock_pv.275

> <s_m_Source_Path>
/home/csk/Desktop/cluster/DUD-E-result/mapk2

> <s_m_Source_File>
dock_pv.maegz

> <i_m_Source_File_Index>
275

> <chembl_id>
CHEMBL1982122

> <chembl_pref_name>
None

> <i_lp_mmshare_version>
53161

> <i_f3d_flags>
0

> <r_lp_tautomer_probability>
1

> <s_lp_Force_Field>
OPLS_2005

> <r_lp_Energy>
15.711548

> <b_lp_Chiralities_Consistent>
1

> <s_lp_Variant>
CHEMBL2208_lig1511-1

> <s_i_glide_gridfile>
glide-grid_3m2w

> <i_i_glide_lignum>
2112

> <i_i_glide_rotatable_bonds>
7

> <r_i_docking_score>
-6.81119742622459

> <r_i_glide_ligand_efficiency>
-0.261969131777869

> <r_i_glide_ligand_efficiency_sa>
-0.776082522093178

> <r_i_glide_ligand_efficiency_ln>
-1.59958736618719

> <r_i_glide_gscore>
-6.81119742622459

> <r_i_glide_lipo>
-2.40276301726309

> <r_i_glide_hbond>
-0.441299248036244

> <r_i_glide_metal>
0

> <r_i_glide_rewards>
-1.82791701515151

> <r_i_glide_evdw>
-39.6112976074219

> <r_i_glide_ecoul>
-6.93298101425171

> <r_i_glide_erotb>
0.88129388673511

> <r_i_glide_esite>
0

> <r_i_glide_emodel>
-63.4447344451007

> <r_i_glide_energy>
-46.5442786216736

> <r_i_glide_einternal>
6.93738126754761

> <i_i_glide_confnum>
78

> <i_i_glide_posenum>
371

> <r_i_glide_eff_state_penalty>
0

> <s_user_duplicate_titles>
CHEMBL2208_lig1511

> <s_m_subgroup_title>
dock_pv

> <s_m_subgroupid>
dock_pv

> <b_m_subgroup_collapsed>
1

$$$$
CHEMBL2208_lig1394
                    3D
 Schrodinger Suite 2021-1.
 25 27  0  0  1  0            999 V2000
   35.2816    3.6708   14.6719 Br  0  0  0  0  0  0
   40.2780    6.8251   13.8522 N   0  0  0  0  0  0
   38.4569    5.6249   12.8391 N   0  0  0  0  0  0
   38.6752    6.0517   15.2539 C   0  0  0  0  0  0
   39.6580    6.7688   16.0380 C   0  0  0  0  0  0
   39.0939    6.1336   13.8928 C   0  0  0  0  0  0
   39.7268    6.9478   17.5200 C   0  0  0  0  0  0
   40.6142    7.2032   15.1260 C   0  0  0  0  0  0
   37.4756    5.3481   15.4993 C   0  0  0  0  0  0
   36.8240    4.7547   14.4169 C   0  0  0  0  0  0
   37.3343    4.9265   13.1350 C   0  0  0  0  0  0
   40.4553    8.0233   18.0409 C   0  0  0  0  0  0
   39.0642    6.0810   18.3960 C   0  0  0  0  0  0
   40.5213    8.2248   19.4147 C   0  0  0  0  0  0
   39.1177    6.2908   19.7701 C   0  0  0  0  0  0
   39.8411    7.3669   20.2722 C   0  0  0  0  0  0
   40.8376    7.0314   13.0330 H   0  0  0  0  0  0
   41.5288    7.7555   15.2869 H   0  0  0  0  0  0
   37.0659    5.2412   16.4910 H   0  0  0  0  0  0
   36.8360    4.4576   12.2983 H   0  0  0  0  0  0
   40.9709    8.7094   17.3858 H   0  0  0  0  0  0
   38.5218    5.2254   18.0331 H   0  0  0  0  0  0
   41.0987    9.0429   19.8075 H   0  0  0  0  0  0
   38.6123    5.6154   20.4453 H   0  0  0  0  0  0
   39.8778    7.5227   21.3412 H   0  0  0  0  0  0
  1 10  1  0  0  0
  2  6  1  0  0  0
  2  8  1  0  0  0
  2 17  1  0  0  0
  3  6  2  0  0  0
  3 11  1  0  0  0
  4  5  1  0  0  0
  4  6  1  0  0  0
  4  9  2  0  0  0
  5  7  1  0  0  0
  5  8  2  0  0  0
  7 12  2  0  0  0
  7 13  1  0  0  0
  8 18  1  0  0  0
  9 10  1  0  0  0
  9 19  1  0  0  0
 10 11  2  0  0  0
 11 20  1  0  0  0
 12 14  1  0  0  0
 12 21  1  0  0  0
 13 15  2  0  0  0
 13 22  1  0  0  0
 14 16  2  0  0  0
 14 23  1  0  0  0
 15 16  1  0  0  0
 15 24  1  0  0  0
 16 25  1  0  0  0
M  END
> <s_m_entry_id>
7715

> <s_m_entry_name>
dock_pv.276

> <s_m_Source_Path>
/home/csk/Desktop/cluster/DUD-E-result/mapk2

> <s_m_Source_File>
dock_pv.maegz

> <i_m_Source_File_Index>
276

> <chembl_id>
CHEMBL1992634

> <chembl_pref_name>
None

> <i_lp_mmshare_version>
53161

> <i_f3d_flags>
0

> <r_lp_tautomer_probability>
0.999998432528457

> <s_lp_Force_Field>
OPLS_2005

> <r_lp_Energy>
9.652335

> <b_lp_Chiralities_Consistent>
1

> <s_lp_Variant>
CHEMBL2208_lig1394-1

> <s_i_glide_gridfile>
glide-grid_3m2w

> <i_i_glide_lignum>
1915

> <i_i_glide_rotatable_bonds>
1

> <r_i_docking_score>
-6.8103153760356

> <r_i_glide_ligand_efficiency>
-0.425644711002225

> <r_i_glide_ligand_efficiency_sa>
-1.07255746134499

> <r_i_glide_ligand_efficiency_ln>
-1.8052101295559

> <r_i_glide_gscore>
-6.8103153760356

> <r_i_glide_lipo>
-2.07494424558227

> <r_i_glide_hbond>
-0.474414794705268

> <r_i_glide_metal>
0

> <r_i_glide_rewards>
-2.80589010923734

> <r_i_glide_evdw>
-29.2088184356689

> <r_i_glide_ecoul>
-1.56686365604401

> <r_i_glide_erotb>
0.24040424367933

> <r_i_glide_esite>
0

> <r_i_glide_emodel>
-43.6857777654219

> <r_i_glide_energy>
-30.775682091713

> <r_i_glide_einternal>
0.235694840550423

> <i_i_glide_confnum>
1

> <i_i_glide_posenum>
220

> <r_i_glide_eff_state_penalty>
0

> <s_user_duplicate_titles>
CHEMBL2208_lig1394

> <s_m_subgroup_title>
dock_pv

> <s_m_subgroupid>
dock_pv

> <b_m_subgroup_collapsed>
1

$$$$
412093
                    3D
 Schrodinger Suite 2021-1.
 48 51  0  0  1  0            999 V2000
   41.3137    6.5830   16.5421 C   0  0  0  0  0  0
   40.1122    7.4440   16.1575 C   0  0  1  0  0  0
   40.1637    7.9104   14.6760 C   0  0  0  0  0  0
   39.8109    6.8056   13.7547 N   0  0  0  0  0  0
   38.7089    6.0248   13.8901 C   0  0  0  0  0  0
   38.2782    5.3780   12.9406 O   0  0  0  0  0  0
   38.2391    6.0123   15.2606 C   0  0  0  0  0  0
   38.8461    6.6347   16.3426 C   0  0  0  0  0  0
   38.1335    6.2543   17.5281 C   0  0  0  0  0  0
   38.2807    6.5341   18.8982 C   0  0  0  0  0  0
   37.4256    5.9291   19.8326 C   0  0  0  0  0  0
   36.4502    5.0267   19.3794 C   0  0  0  0  0  0
   36.2768    4.7211   18.0319 C   0  0  0  0  0  0
   37.1037    5.3656   17.1150 C   0  0  0  0  0  0
   37.1741    5.2832   15.7396 N   0  0  0  0  0  0
   37.5413    6.2856   21.3025 C   0  0  0  0  0  0
   38.0640    7.3496   21.6437 O   0  0  0  0  0  0
   37.0436    5.3676   22.1619 N   0  0  0  0  0  0
   36.9386    5.4806   23.5388 C   0  0  0  0  0  0
   37.5019    6.3695   24.3264 N   0  0  0  0  0  0
   37.1360    6.2256   25.5993 C   0  0  0  0  0  0
   36.2283    5.1856   25.8264 C   0  0  0  0  0  0
   35.8784    4.3695   24.3333 S   0  0  0  0  0  0
   37.6182    7.1376   26.6220 C   0  0  0  0  0  0
   37.0806    7.2042   27.7284 O   0  0  0  0  0  0
   38.6777    7.8844   26.2720 N   0  0  0  0  0  0
   39.3803    8.8806   27.0716 C   0  0  0  0  0  0
   39.2238   10.3248   26.5459 C   0  0  0  0  0  0
   39.4780   10.4250   25.1561 O   0  0  0  0  0  0
   36.5951    4.7212   15.1321 H   0  0  0  0  0  0
   41.0780    6.0676   17.4725 H   0  0  0  0  0  0
   41.5169    5.8157   15.7953 H   0  0  0  0  0  0
   42.2143    7.1820   16.6726 H   0  0  0  0  0  0
   40.0943    8.3274   16.7978 H   0  0  0  0  0  0
   39.4781    8.7425   14.5252 H   0  0  0  0  0  0
   41.1541    8.2857   14.4183 H   0  0  0  0  0  0
   40.3309    6.7157   12.8912 H   0  0  0  0  0  0
   39.0556    7.2123   19.2264 H   0  0  0  0  0  0
   35.7760    4.5495   20.0751 H   0  0  0  0  0  0
   35.5105    4.0246   17.7188 H   0  0  0  0  0  0
   36.6929    4.5087   21.7684 H   0  0  0  0  0  0
   35.7687    4.8751   26.7538 H   0  0  0  0  0  0
   39.1856    7.6252   25.4267 H   0  0  0  0  0  0
   39.0789    8.8251   28.1183 H   0  0  0  0  0  0
   40.4392    8.6161   27.0807 H   0  0  0  0  0  0
   38.2008   10.6737   26.6718 H   0  0  0  0  0  0
   39.8961   10.9981   27.0781 H   0  0  0  0  0  0
   40.2517    9.8820   24.9431 H   0  0  0  0  0  0
  1  2  1  0  0  0
  1 31  1  0  0  0
  1 32  1  0  0  0
  1 33  1  0  0  0
  2  8  1  0  0  0
  2  3  1  0  0  0
  2 34  1  0  0  0
  3  4  1  0  0  0
  3 35  1  0  0  0
  3 36  1  0  0  0
  4  5  1  0  0  0
  4 37  1  0  0  0
  5  6  2  0  0  0
  5  7  1  0  0  0
  7 15  1  0  0  0
  7  8  2  0  0  0
  8  9  1  0  0  0
  9 14  2  0  0  0
  9 10  1  0  0  0
 10 11  2  0  0  0
 10 38  1  0  0  0
 11 12  1  0  0  0
 11 16  1  0  0  0
 12 13  2  0  0  0
 12 39  1  0  0  0
 13 14  1  0  0  0
 13 40  1  0  0  0
 14 15  1  0  0  0
 15 30  1  0  0  0
 16 17  2  0  0  0
 16 18  1  0  0  0
 18 19  1  0  0  0
 18 41  1  0  0  0
 19 23  1  0  0  0
 19 20  2  0  0  0
 20 21  1  0  0  0
 21 22  2  0  0  0
 21 24  1  0  0  0
 22 23  1  0  0  0
 22 42  1  0  0  0
 24 25  2  0  0  0
 24 26  1  0  0  0
 26 27  1  0  0  0
 26 43  1  0  0  0
 27 28  1  0  0  0
 27 44  1  0  0  0
 27 45  1  0  0  0
 28 29  1  0  0  0
 28 46  1  0  0  0
 28 47  1  0  0  0
 29 48  1  0  0  0
M  END
> <s_m_entry_id>
9385

> <s_m_entry_name>
ligand_docking-pose.1

> <s_m_Source_Path>
/home/csk/Desktop/cluster/DUD-E-result/mapk2

> <s_m_Source_File>
ligand_docking-pose.sdf

> <i_m_Source_File_Index>
1

> <i_lp_mmshare_version>
53161

> <r_lp_tautomer_probability>
0.999000488399163

> <s_lp_Force_Field>
OPLS_2005

> <r_lp_Energy>
26.168927

> <b_lp_Chiralities_Consistent>
1

> <s_lp_Variant>
412093-2

> <s_i_glide_gridfile>
glide-grid_3m2w

> <i_i_glide_lignum>
188

> <i_i_glide_rotatable_bonds>
8

> <r_i_docking_score>
-8.52794923670185

> <r_i_glide_ligand_efficiency>
-0.294067215058685

> <r_i_glide_ligand_efficiency_sa>
-0.903467651693294

> <r_i_glide_ligand_efficiency_ln>
-1.95268412507065

> <r_i_glide_gscore>
-8.52794923670185

> <r_i_glide_lipo>
-2.22797381469055

> <r_i_glide_hbond>
-0.673492740686442

> <r_i_glide_metal>
0

> <r_i_glide_rewards>
-1.91256641997433

> <r_i_glide_evdw>
-46.4917488098145

> <r_i_glide_ecoul>
-12.320387840271

> <r_i_glide_erotb>
0.565507827567134

> <r_i_glide_esite>
-0.106778472386288

> <r_i_glide_emodel>
-84.8975265998129

> <r_i_glide_energy>
-58.8121366500854

> <r_i_glide_einternal>
5.71561002731323

> <i_i_glide_confnum>
74

> <i_i_glide_posenum>
321

> <r_i_glide_eff_state_penalty>
0

> <i_f3d_flags>
0

> <s_user_duplicate_titles>
412093

> <s_m_subgroup_title>
dock_pv

> <s_m_subgroupid>
dock_pv1

> <b_m_subgroup_collapsed>
0

$$$$
412091
                    3D
 Schrodinger Suite 2021-1.
 48 51  0  0  1  0            999 V2000
   39.4773    9.0086   16.2948 C   0  0  0  0  0  0
   39.9758    7.5573   16.4169 C   0  0  2  0  0  0
   40.8320    7.0903   15.2001 C   0  0  0  0  0  0
   39.9983    6.7054   14.0368 N   0  0  0  0  0  0
   38.8263    6.0254   14.0889 C   0  0  0  0  0  0
   38.2971    5.6248   13.0561 O   0  0  0  0  0  0
   38.3373    5.9101   15.4458 C   0  0  0  0  0  0
   38.8238    6.5789   16.5617 C   0  0  0  0  0  0
   38.0594    6.1366   17.6960 C   0  0  0  0  0  0
   38.0967    6.4086   19.0741 C   0  0  0  0  0  0
   37.2081    5.7519   19.9413 C   0  0  0  0  0  0
   36.2853    4.8345   19.4156 C   0  0  0  0  0  0
   36.2020    4.5510   18.0536 C   0  0  0  0  0  0
   37.0823    5.2252   17.2060 C   0  0  0  0  0  0
   37.2484    5.1673   15.8387 N   0  0  0  0  0  0
   37.2518    6.0605   21.4251 C   0  0  0  0  0  0
   37.7257    7.1310   21.8191 O   0  0  0  0  0  0
   36.7540    5.1014   22.2386 N   0  0  0  0  0  0
   36.6737    5.1623   23.6223 C   0  0  0  0  0  0
   37.3955    5.9073   24.4294 N   0  0  0  0  0  0
   37.0767    5.7297   25.7078 C   0  0  0  0  0  0
   36.0490    4.8040   25.9223 C   0  0  0  0  0  0
   35.5016    4.1532   24.4052 S   0  0  0  0  0  0
   37.7935    6.4276   26.7598 C   0  0  0  0  0  0
   37.5948    6.1624   27.9485 O   0  0  0  0  0  0
   38.6783    7.3547   26.3535 N   0  0  0  0  0  0
   39.5583    8.1582   27.2051 C   0  0  0  0  0  0
   39.4778    9.6445   26.8190 C   0  0  0  0  0  0
   38.4921   10.1218   26.2591 O   0  0  0  0  0  0
   40.4827   10.4256   27.2046 N   0  0  0  0  0  0
   36.7152    4.6142   15.1828 H   0  0  0  0  0  0
   39.0776    9.3588   17.2440 H   0  0  0  0  0  0
   40.2775    9.6920   16.0199 H   0  0  0  0  0  0
   38.6991    9.1053   15.5364 H   0  0  0  0  0  0
   40.6077    7.4982   17.3042 H   0  0  0  0  0  0
   41.5042    7.8888   14.8877 H   0  0  0  0  0  0
   41.4699    6.2443   15.4734 H   0  0  0  0  0  0
   40.3479    6.9064   13.1105 H   0  0  0  0  0  0
   38.8244    7.1068   19.4629 H   0  0  0  0  0  0
   35.5848    4.3235   20.0611 H   0  0  0  0  0  0
   35.4775    3.8438   17.6768 H   0  0  0  0  0  0
   36.3623    4.2774   21.8117 H   0  0  0  0  0  0
   35.6198    4.4756   26.8574 H   0  0  0  0  0  0
   38.8739    7.4466   25.3628 H   0  0  0  0  0  0
   39.3082    8.0544   28.2622 H   0  0  0  0  0  0
   40.5792    7.8009   27.0722 H   0  0  0  0  0  0
   40.4165   11.4222   27.0384 H   0  0  0  0  0  0
   41.3024   10.0403   27.6456 H   0  0  0  0  0  0
  1  2  1  0  0  0
  1 32  1  0  0  0
  1 33  1  0  0  0
  1 34  1  0  0  0
  2  8  1  0  0  0
  2  3  1  0  0  0
  2 35  1  0  0  0
  3  4  1  0  0  0
  3 36  1  0  0  0
  3 37  1  0  0  0
  4  5  1  0  0  0
  4 38  1  0  0  0
  5  6  2  0  0  0
  5  7  1  0  0  0
  7 15  1  0  0  0
  7  8  2  0  0  0
  8  9  1  0  0  0
  9 14  2  0  0  0
  9 10  1  0  0  0
 10 11  2  0  0  0
 10 39  1  0  0  0
 11 12  1  0  0  0
 11 16  1  0  0  0
 12 13  2  0  0  0
 12 40  1  0  0  0
 13 14  1  0  0  0
 13 41  1  0  0  0
 14 15  1  0  0  0
 15 31  1  0  0  0
 16 17  2  0  0  0
 16 18  1  0  0  0
 18 19  1  0  0  0
 18 42  1  0  0  0
 19 23  1  0  0  0
 19 20  2  0  0  0
 20 21  1  0  0  0
 21 22  2  0  0  0
 21 24  1  0  0  0
 22 23  1  0  0  0
 22 43  1  0  0  0
 24 25  2  0  0  0
 24 26  1  0  0  0
 26 27  1  0  0  0
 26 44  1  0  0  0
 27 28  1  0  0  0
 27 45  1  0  0  0
 27 46  1  0  0  0
 28 29  2  0  0  0
 28 30  1  0  0  0
 30 47  1  0  0  0
 30 48  1  0  0  0
M  END
> <s_m_entry_id>
9386

> <s_m_entry_name>
ligand_docking-pose.2

> <s_m_Source_Path>
/home/csk/Desktop/cluster/DUD-E-result/mapk2

> <s_m_Source_File>
ligand_docking-pose.sdf

> <i_m_Source_File_Index>
2

> <i_lp_mmshare_version>
53161

> <r_lp_tautomer_probability>
0.999000488399163

> <s_lp_Force_Field>
OPLS_2005

> <r_lp_Energy>
21.252692

> <b_lp_Chiralities_Consistent>
1

> <s_lp_Variant>
412091-1

> <s_i_glide_gridfile>
glide-grid_3m2w

> <i_i_glide_lignum>
189

> <i_i_glide_rotatable_bonds>
7

> <r_i_docking_score>
-8.24079381378572

> <r_i_glide_ligand_efficiency>
-0.274693127126191

> <r_i_glide_ligand_efficiency_sa>
-0.853535412800934

> <r_i_glide_ligand_efficiency_ln>
-1.87239814513238

> <r_i_glide_gscore>
-8.24079381378572

> <r_i_glide_lipo>
-2.14621427773734

> <r_i_glide_hbond>
-0.741117909961729

> <r_i_glide_metal>
0

> <r_i_glide_rewards>
-1.41566815973019

> <r_i_glide_evdw>
-50.1539421081543

> <r_i_glide_ecoul>
-13.2310237884521

> <r_i_glide_erotb>
0.654774939508418

> <r_i_glide_esite>
-0.100217732189338

> <r_i_glide_emodel>
-93.7596711012252

> <r_i_glide_energy>
-63.3849658966064

> <r_i_glide_einternal>
3.24376535415649

> <i_i_glide_confnum>
27

> <i_i_glide_posenum>
372

> <r_i_glide_eff_state_penalty>
0

> <i_f3d_flags>
0

> <s_user_duplicate_titles>
412091

> <s_m_subgroup_title>
dock_pv

> <s_m_subgroupid>
dock_pv1

> <b_m_subgroup_collapsed>
0

$$$$
567912
                    3D
 Schrodinger Suite 2021-1.
 31 34  0  0  1  0            999 V2000
   37.8426    4.8227   21.9804 C   0  0  0  0  0  0
   38.3339    5.3485   20.6256 C   0  0  1  0  0  0
   37.1491    5.6183   19.6764 C   0  0  0  0  0  0
   37.5468    5.7388   18.2839 N   0  0  0  0  0  0
   38.6208    6.4565   17.8112 C   0  0  0  0  0  0
   38.9260    6.5084   16.4138 C   0  0  0  0  0  0
   38.2322    5.8985   15.3298 C   0  0  0  0  0  0
   37.0423    5.1154   15.2212 C   0  0  0  0  0  0
   36.9356    4.8242   13.8714 C   0  0  0  0  0  0
   37.9537    5.3616   13.1372 O   0  0  0  0  0  0
   38.7474    6.0231   14.0295 C   0  0  0  0  0  0
   39.9139    6.7340   13.7384 C   0  0  0  0  0  0
   40.5738    7.3802   14.7853 C   0  0  0  0  0  0
   40.0862    7.2624   16.0998 C   0  0  0  0  0  0
   40.7488    7.9874   17.5453 S   0  0  0  0  0  0
   39.5708    7.1541   18.5652 C   0  0  0  0  0  0
   39.6868    7.4266   19.9917 C   0  0  0  0  0  0
   40.2778    8.4250   20.3993 O   0  0  0  0  0  0
   39.1601    6.5306   20.8434 N   0  0  0  0  0  0
   38.9731    4.5750   20.1938 H   0  0  0  0  0  0
   37.2143    3.9430   21.8479 H   0  0  0  0  0  0
   38.6755    4.5189   22.6155 H   0  0  0  0  0  0
   37.2421    5.5615   22.5109 H   0  0  0  0  0  0
   36.4305    4.8000   19.7347 H   0  0  0  0  0  0
   36.6186    6.5221   19.9801 H   0  0  0  0  0  0
   36.8387    5.4964   17.6071 H   0  0  0  0  0  0
   36.3538    4.7891   15.9870 H   0  0  0  0  0  0
   36.2199    4.2451   13.3061 H   0  0  0  0  0  0
   40.2775    6.8111   12.7225 H   0  0  0  0  0  0
   41.4606    7.9626   14.5793 H   0  0  0  0  0  0
   39.3429    6.7548   21.8107 H   0  0  0  0  0  0
  1  2  1  0  0  0
  1 21  1  0  0  0
  1 22  1  0  0  0
  1 23  1  0  0  0
  2 20  1  0  0  0
  2 19  1  0  0  0
  2  3  1  0  0  0
  3  4  1  0  0  0
  3 24  1  0  0  0
  3 25  1  0  0  0
  4  5  1  0  0  0
  4 26  1  0  0  0
  5 16  2  0  0  0
  5  6  1  0  0  0
  6 14  2  0  0  0
  6  7  1  0  0  0
  7 11  2  0  0  0
  7  8  1  0  0  0
  8  9  2  0  0  0
  8 27  1  0  0  0
  9 10  1  0  0  0
  9 28  1  0  0  0
 10 11  1  0  0  0
 11 12  1  0  0  0
 12 13  2  0  0  0
 12 29  1  0  0  0
 13 14  1  0  0  0
 13 30  1  0  0  0
 14 15  1  0  0  0
 15 16  1  0  0  0
 16 17  1  0  0  0
 17 18  2  0  0  0
 17 19  1  0  0  0
 19 31  1  0  0  0
M  END
> <s_m_entry_id>
9387

> <s_m_entry_name>
ligand_docking-pose.3

> <s_m_Source_Path>
/home/csk/Desktop/cluster/DUD-E-result/mapk2

> <s_m_Source_File>
ligand_docking-pose.sdf

> <i_m_Source_File_Index>
3

> <i_lp_mmshare_version>
53161

> <r_lp_tautomer_probability>
1

> <s_lp_Force_Field>
OPLS_2005

> <r_lp_Energy>
48.446756

> <b_lp_Chiralities_Consistent>
1

> <s_lp_Variant>
567912-1

> <s_i_glide_gridfile>
glide-grid_3m2w

> <i_i_glide_lignum>
239

> <i_i_glide_rotatable_bonds>
0

> <r_i_docking_score>
-7.99267780207382

> <r_i_glide_ligand_efficiency>
-0.420667252740727

> <r_i_glide_ligand_efficiency_sa>
-1.12250918967497

> <r_i_glide_ligand_efficiency_ln>
-2.02631548980455

> <r_i_glide_gscore>
-7.99267780207382

> <r_i_glide_lipo>
-2.56153550526137

> <r_i_glide_hbond>
-0.276617773260789

> <r_i_glide_metal>
0

> <r_i_glide_rewards>
-2.18437090300468

> <r_i_glide_evdw>
-36.5333671569824

> <r_i_glide_ecoul>
-7.11750602722168

> <r_i_glide_erotb>
0

> <r_i_glide_esite>
-0.0758593586146066

> <r_i_glide_emodel>
-65.3526544927571

> <r_i_glide_energy>
-43.6508731842041

> <r_i_glide_einternal>
0

> <i_i_glide_confnum>
1

> <i_i_glide_posenum>
351

> <r_i_glide_eff_state_penalty>
0

> <i_f3d_flags>
0

> <s_user_duplicate_titles>
567912

> <s_m_subgroup_title>
dock_pv

> <s_m_subgroupid>
dock_pv1

> <b_m_subgroup_collapsed>
0

$$$$
557256
                    3D
 Schrodinger Suite 2021-1.
 33 36  0  0  1  0            999 V2000
   37.7344    4.8091   22.2518 C   0  0  0  0  0  0
   38.2545    5.3127   20.8977 C   0  0  1  0  0  0
   37.0853    5.5773   19.9303 C   0  0  0  0  0  0
   37.5040    5.6883   18.5425 N   0  0  0  0  0  0
   38.5562    6.4269   18.0549 C   0  0  0  0  0  0
   38.8700    6.5034   16.6435 C   0  0  0  0  0  0
   38.2083    5.9231   15.5042 C   0  0  0  0  0  0
   36.9855    5.1888   15.5746 C   0  0  0  0  0  0
   36.4292    4.6379   14.4265 C   0  0  0  0  0  0
   37.0782    4.8255   13.2158 C   0  0  0  0  0  0
   38.2246    5.5313   13.0838 N   0  0  0  0  0  0
   38.7817    6.0732   14.2009 C   0  0  0  0  0  0
   39.9676    6.8142   14.0381 C   0  0  0  0  0  0
   40.5830    7.4328   15.1151 C   0  0  0  0  0  0
   40.0417    7.2723   16.3931 C   0  0  0  0  0  0
   40.6770    7.9808   17.8526 S   0  0  0  0  0  0
   39.4823    7.1360   18.8321 C   0  0  0  0  0  0
   39.5717    7.4123   20.2611 C   0  0  0  0  0  0
   40.1293    8.4250   20.6718 O   0  0  0  0  0  0
   39.0780    6.4976   21.1122 N   0  0  0  0  0  0
   38.8973    4.5274   20.4850 H   0  0  0  0  0  0
   37.1140    3.9217   22.1232 H   0  0  0  0  0  0
   38.5542    4.5304   22.9147 H   0  0  0  0  0  0
   37.1160    5.5567   22.7529 H   0  0  0  0  0  0
   36.3680    4.7561   19.9803 H   0  0  0  0  0  0
   36.5432    6.4795   20.2220 H   0  0  0  0  0  0
   36.7952    5.4356   17.8724 H   0  0  0  0  0  0
   36.4482    5.0326   16.4895 H   0  0  0  0  0  0
   35.5089    4.0714   14.4755 H   0  0  0  0  0  0
   36.6773    4.3958   12.3075 H   0  0  0  0  0  0
   40.3948    6.9214   13.0514 H   0  0  0  0  0  0
   41.4759    8.0241   14.9623 H   0  0  0  0  0  0
   39.2637    6.7264   22.0796 H   0  0  0  0  0  0
  1  2  1  0  0  0
  1 22  1  0  0  0
  1 23  1  0  0  0
  1 24  1  0  0  0
  2 21  1  0  0  0
  2 20  1  0  0  0
  2  3  1  0  0  0
  3  4  1  0  0  0
  3 25  1  0  0  0
  3 26  1  0  0  0
  4  5  1  0  0  0
  4 27  1  0  0  0
  5 17  2  0  0  0
  5  6  1  0  0  0
  6 15  2  0  0  0
  6  7  1  0  0  0
  7 12  1  0  0  0
  7  8  2  0  0  0
  8  9  1  0  0  0
  8 28  1  0  0  0
  9 10  2  0  0  0
  9 29  1  0  0  0
 10 11  1  0  0  0
 10 30  1  0  0  0
 11 12  2  0  0  0
 12 13  1  0  0  0
 13 14  2  0  0  0
 13 31  1  0  0  0
 14 15  1  0  0  0
 14 32  1  0  0  0
 15 16  1  0  0  0
 16 17  1  0  0  0
 17 18  1  0  0  0
 18 19  2  0  0  0
 18 20  1  0  0  0
 20 33  1  0  0  0
M  END
> <s_m_entry_id>
9388

> <s_m_entry_name>
ligand_docking-pose.4

> <s_m_Source_Path>
/home/csk/Desktop/cluster/DUD-E-result/mapk2

> <s_m_Source_File>
ligand_docking-pose.sdf

> <i_m_Source_File_Index>
4

> <i_lp_mmshare_version>
53161

> <r_lp_tautomer_probability>
1

> <s_lp_Force_Field>
OPLS_2005

> <r_lp_Energy>
31.672273

> <b_lp_Chiralities_Consistent>
1

> <s_lp_Variant>
557256-1

> <s_i_glide_gridfile>
glide-grid_3m2w

> <i_i_glide_lignum>
230

> <i_i_glide_rotatable_bonds>
0

> <r_i_docking_score>
-7.85698312929816

> <r_i_glide_ligand_efficiency>
-0.392849156464908

> <r_i_glide_ligand_efficiency_sa>
-1.06635666990796

> <r_i_glide_ligand_efficiency_ln>
-1.96634373661622

> <r_i_glide_gscore>
-7.85698312929816

> <r_i_glide_lipo>
-2.56190078798608

> <r_i_glide_hbond>
-0.324397950229914

> <r_i_glide_metal>
0

> <r_i_glide_rewards>
-1.95756864365152

> <r_i_glide_evdw>
-37.5230598449707

> <r_i_glide_ecoul>
-6.99245357513428

> <r_i_glide_erotb>
0

> <r_i_glide_esite>
-0.0880947189119707

> <r_i_glide_emodel>
-65.7394240786962

> <r_i_glide_energy>
-44.515513420105

> <r_i_glide_einternal>
0

> <i_i_glide_confnum>
1

> <i_i_glide_posenum>
78

> <r_i_glide_eff_state_penalty>
0

> <i_f3d_flags>
0

> <s_user_duplicate_titles>
557256

> <s_m_subgroup_title>
dock_pv

> <s_m_subgroupid>
dock_pv1

> <b_m_subgroup_collapsed>
0

$$$$
301997
                    3D
 Schrodinger Suite 2021-1.
 32 34  0  0  1  0            999 V2000
   40.4023    7.0786   14.6209 C   0  0  0  0  0  0
   40.3742    7.2962   16.0008 C   0  0  0  0  0  0
   39.3549    6.7604   16.7976 C   0  0  0  0  0  0
   38.3362    6.0219   16.1560 C   0  0  0  0  0  0
   38.3752    5.7894   14.7805 C   0  0  0  0  0  0
   39.4179    6.3016   14.0139 C   0  0  0  0  0  0
   39.4781    6.0251   12.6721 O   0  0  0  0  0  0
   37.3070    5.3794   16.8257 O   0  0  0  0  0  0
   37.1827    5.6512   18.2256 C   0  0  1  0  0  0
   36.2820    4.6045   18.8702 C   0  0  0  0  0  0
   36.4174    4.2301   20.1579 C   0  0  0  0  0  0
   37.4416    4.8569   20.9925 C   0  0  0  0  0  0
   38.4578    5.5671   20.4470 C   0  0  0  0  0  0
   38.5817    5.7115   18.9238 C   0  0  2  0  0  0
   39.3398    6.9149   18.3207 C   0  0  0  0  0  0
   39.4778    6.1211   21.1764 N   0  0  0  0  0  0
   37.3637    4.6984   22.4134 C   0  0  0  0  0  0
   37.2758    4.5552   23.5583 N   0  0  0  0  0  0
   35.6309    3.2228   20.6512 N   0  0  0  0  0  0
   41.2025    7.4998   14.0308 H   0  0  0  0  0  0
   41.1631    7.8770   16.4564 H   0  0  0  0  0  0
   37.6133    5.1812   14.3159 H   0  0  0  0  0  0
   40.2475    6.4105   12.2314 H   0  0  0  0  0  0
   36.6734    6.6127   18.3237 H   0  0  0  0  0  0
   35.5232    4.1368   18.2578 H   0  0  0  0  0  0
   39.1555    4.8257   18.6593 H   0  0  0  0  0  0
   40.3597    6.9668   18.7037 H   0  0  0  0  0  0
   38.8471    7.8485   18.5946 H   0  0  0  0  0  0
   40.3061    6.4645   20.7145 H   0  0  0  0  0  0
   39.5614    5.9316   22.1682 H   0  0  0  0  0  0
   35.7915    2.8510   21.5772 H   0  0  0  0  0  0
   35.0120    2.6974   20.0511 H   0  0  0  0  0  0
  1  6  1  0  0  0
  1  2  2  0  0  0
  1 20  1  0  0  0
  2  3  1  0  0  0
  2 21  1  0  0  0
  3 15  1  0  0  0
  3  4  2  0  0  0
  4  5  1  0  0  0
  4  8  1  0  0  0
  5  6  2  0  0  0
  5 22  1  0  0  0
  6  7  1  0  0  0
  7 23  1  0  0  0
  8  9  1  0  0  0
  9 14  1  0  0  0
  9 10  1  0  0  0
  9 24  1  0  0  0
 10 11  2  0  0  0
 10 25  1  0  0  0
 11 12  1  0  0  0
 11 19  1  0  0  0
 12 13  2  0  0  0
 12 17  1  0  0  0
 13 14  1  0  0  0
 13 16  1  0  0  0
 14 15  1  0  0  0
 14 26  1  0  0  0
 15 27  1  0  0  0
 15 28  1  0  0  0
 16 29  1  0  0  0
 16 30  1  0  0  0
 17 18  3  0  0  0
 19 31  1  0  0  0
 19 32  1  0  0  0
M  END
> <s_m_entry_id>
9391

> <s_m_entry_name>
ligand_docking-pose.7

> <s_m_Source_Path>
/home/csk/Desktop/cluster/DUD-E-result/mapk2

> <s_m_Source_File>
ligand_docking-pose.sdf

> <i_m_Source_File_Index>
7

> <i_lp_mmshare_version>
53161

> <r_lp_tautomer_probability>
1

> <s_lp_Force_Field>
OPLS_2005

> <r_lp_Energy>
26.677363

> <b_lp_Chiralities_Consistent>
1

> <s_lp_Variant>
301997-1

> <s_i_glide_gridfile>
glide-grid_3m2w

> <i_i_glide_lignum>
36

> <i_i_glide_rotatable_bonds>
1

> <r_i_docking_score>
-7.69007190083089

> <r_i_glide_ligand_efficiency>
-0.40474062635952

> <r_i_glide_ligand_efficiency_sa>
-1.08001055362249

> <r_i_glide_ligand_efficiency_ln>
-1.94959839446065

> <r_i_glide_gscore>
-7.69007190083089

> <r_i_glide_lipo>
-2.24082948288967

> <r_i_glide_hbond>
-0.618109396724731

> <r_i_glide_metal>
0

> <r_i_glide_rewards>
-2.15499558049019

> <r_i_glide_evdw>
-30.811408996582

> <r_i_glide_ecoul>
-6.8617525100708

> <r_i_glide_erotb>
0

> <r_i_glide_esite>
-0.106304114386568

> <r_i_glide_emodel>
-53.4259856484629

> <r_i_glide_energy>
-37.6731615066528

> <r_i_glide_einternal>
0.0265800394117832

> <i_i_glide_confnum>
1

> <i_i_glide_posenum>
382

> <r_i_glide_eff_state_penalty>
0

> <i_f3d_flags>
0

> <s_user_duplicate_titles>
301997

> <s_m_subgroup_title>
dock_pv

> <s_m_subgroupid>
dock_pv1

> <b_m_subgroup_collapsed>
0

$$$$
434487
                    3D
 Schrodinger Suite 2021-1.
 45 48  0  0  1  0            999 V2000
   33.5825    2.0150   12.4003 C   0  0  0  0  0  0
   34.6780    2.8266   12.7098 C   0  0  0  0  0  0
   35.0110    3.0719   14.0507 C   0  0  0  0  0  0
   34.2480    2.4250   15.0311 C   0  0  0  0  0  0
   33.2018    1.6069   14.7495 N   0  0  0  0  0  0
   32.8786    1.4199   13.4461 C   0  0  0  0  0  0
   36.0128    3.9473   14.5091 N   0  0  0  0  0  0
   36.9158    4.7360   13.8720 C   0  0  0  0  0  0
   37.0780    4.8250   12.6519 O   0  0  0  0  0  0
   37.8303    5.4993   14.8005 C   0  0  0  0  0  0
   39.0610    5.9690   14.3218 C   0  0  0  0  0  0
   39.9706    6.6176   15.1507 C   0  0  0  0  0  0
   39.6492    6.7834   16.5023 C   0  0  0  0  0  0
   40.3196    7.3640   17.6121 C   0  0  0  0  0  0
   39.5334    7.1795   18.7404 C   0  0  0  0  0  0
   38.3307    6.6139   18.3370 N   0  0  0  0  0  0
   38.3946    6.3193   16.9842 C   0  0  0  0  0  0
   37.4656    5.7085   16.1413 C   0  0  0  0  0  0
   37.1379    6.4718   19.1823 C   0  0  0  0  0  0
   37.2860    5.4902   20.3676 C   0  0  2  0  0  0
   38.6889    5.5370   21.0236 C   0  0  0  0  0  0
   39.2785    6.8805   21.0959 N   0  0  0  0  0  0
   39.8780    7.5576   20.0948 C   0  0  0  0  0  0
   40.7262    8.4250   20.2720 O   0  0  0  0  0  0
   36.8450    4.0621   19.9720 C   0  0  0  0  0  0
   36.6780    3.2250   21.1460 N   0  0  0  0  0  0
   33.3020    1.8400   11.3721 H   0  0  0  0  0  0
   35.2361    3.2893   11.9096 H   0  0  0  0  0  0
   34.4443    2.5798   16.0826 H   0  0  0  0  0  0
   32.0334    0.7771   13.2482 H   0  0  0  0  0  0
   36.0639    3.9934   15.5134 H   0  0  0  0  0  0
   39.3358    5.8195   13.2862 H   0  0  0  0  0  0
   40.9135    6.9703   14.7594 H   0  0  0  0  0  0
   41.2966    7.8247   17.6096 H   0  0  0  0  0  0
   36.5115    5.3855   16.5311 H   0  0  0  0  0  0
   36.9266    7.4659   19.5802 H   0  0  0  0  0  0
   36.2780    6.2262   18.5639 H   0  0  0  0  0  0
   36.5785    5.8456   21.1202 H   0  0  0  0  0  0
   38.6421    5.1200   22.0313 H   0  0  0  0  0  0
   39.3833    4.8984   20.4711 H   0  0  0  0  0  0
   39.5013    7.2165   22.0243 H   0  0  0  0  0  0
   35.8847    4.0987   19.4551 H   0  0  0  0  0  0
   37.5545    3.6005   19.2864 H   0  0  0  0  0  0
   36.1747    2.3746   20.9181 H   0  0  0  0  0  0
   37.5881    2.9016   21.4720 H   0  0  0  0  0  0
  1  6  1  0  0  0
  1  2  2  0  0  0
  1 27  1  0  0  0
  2  3  1  0  0  0
  2 28  1  0  0  0
  3  4  2  0  0  0
  3  7  1  0  0  0
  4  5  1  0  0  0
  4 29  1  0  0  0
  5  6  2  0  0  0
  6 30  1  0  0  0
  7  8  1  0  0  0
  7 31  1  0  0  0
  8  9  2  0  0  0
  8 10  1  0  0  0
 10 18  1  0  0  0
 10 11  2  0  0  0
 11 12  1  0  0  0
 11 32  1  0  0  0
 12 13  2  0  0  0
 12 33  1  0  0  0
 13 17  1  0  0  0
 13 14  1  0  0  0
 14 15  2  0  0  0
 14 34  1  0  0  0
 15 23  1  0  0  0
 15 16  1  0  0  0
 16 17  1  0  0  0
 16 19  1  0  0  0
 17 18  2  0  0  0
 18 35  1  0  0  0
 19 20  1  0  0  0
 19 36  1  0  0  0
 19 37  1  0  0  0
 20 21  1  0  0  0
 20 25  1  0  0  0
 20 38  1  0  0  0
 21 22  1  0  0  0
 21 39  1  0  0  0
 21 40  1  0  0  0
 22 23  1  0  0  0
 22 41  1  0  0  0
 23 24  2  0  0  0
 25 26  1  0  0  0
 25 42  1  0  0  0
 25 43  1  0  0  0
 26 44  1  0  0  0
 26 45  1  0  0  0
M  END
> <s_m_entry_id>
9397

> <s_m_entry_name>
ligand_docking-pose.13

> <s_m_Source_Path>
/home/csk/Desktop/cluster/DUD-E-result/mapk2

> <s_m_Source_File>
ligand_docking-pose.sdf

> <i_m_Source_File_Index>
13

> <i_lp_mmshare_version>
53161

> <r_lp_tautomer_probability>
1

> <s_lp_Force_Field>
OPLS_2005

> <r_lp_Energy>
34.85487

> <b_lp_Chiralities_Consistent>
1

> <s_lp_Variant>
434487-2

> <s_i_glide_gridfile>
glide-grid_3m2w

> <i_i_glide_lignum>
124

> <i_i_glide_rotatable_bonds>
4

> <r_i_docking_score>
-7.34491621655529

> <r_i_glide_ligand_efficiency>
-0.282496777559819

> <r_i_glide_ligand_efficiency_sa>
-0.836895591949819

> <r_i_glide_ligand_efficiency_ln>
-1.72492947282217

> <r_i_glide_gscore>
-7.34491621655529

> <r_i_glide_lipo>
-2.40535316361659

> <r_i_glide_hbond>
-0.56150445333683

> <r_i_glide_metal>
0

> <r_i_glide_rewards>
-1.36268525374121

> <r_i_glide_evdw>
-36.2751884460449

> <r_i_glide_ecoul>
-10.5029182434082

> <r_i_glide_erotb>
0.468124407762646

> <r_i_glide_esite>
-0.0943005948098248

> <r_i_glide_emodel>
-65.7522579609403

> <r_i_glide_energy>
-46.7781066894531

> <r_i_glide_einternal>
1.22065567970276

> <i_i_glide_confnum>
5

> <i_i_glide_posenum>
187

> <r_i_glide_eff_state_penalty>
0

> <i_f3d_flags>
0

> <s_user_duplicate_titles>
434487

> <s_m_subgroup_title>
dock_pv

> <s_m_subgroupid>
dock_pv1

> <b_m_subgroup_collapsed>
0

$$$$
412087
                    3D
 Schrodinger Suite 2021-1.
 47 50  0  0  1  0            999 V2000
   39.4525    8.8876   15.8421 C   0  0  0  0  0  0
   39.9272    7.4392   16.0570 C   0  0  2  0  0  0
   40.6777    6.8389   14.8325 C   0  0  0  0  0  0
   39.7493    6.4250   13.7535 N   0  0  0  0  0  0
   38.5375    5.8372   13.9305 C   0  0  0  0  0  0
   37.8967    5.4487   12.9563 O   0  0  0  0  0  0
   38.1751    5.7799   15.3318 C   0  0  0  0  0  0
   38.7741    6.5008   16.3577 C   0  0  0  0  0  0
   38.1101    6.1509   17.5803 C   0  0  0  0  0  0
   38.2771    6.5162   18.9240 C   0  0  0  0  0  0
   37.4376    5.9752   19.9081 C   0  0  0  0  0  0
   36.4615    5.0402   19.5367 C   0  0  0  0  0  0
   36.2635    4.6492   18.2119 C   0  0  0  0  0  0
   37.0781    5.2337   17.2418 C   0  0  0  0  0  0
   37.1131    5.0881   15.8698 N   0  0  0  0  0  0
   37.5691    6.4571   21.3384 C   0  0  0  0  0  0
   38.0042    7.5926   21.5444 O   0  0  0  0  0  0
   37.1856    5.5832   22.3027 N   0  0  0  0  0  0
   37.1705    5.7759   23.6858 C   0  0  0  0  0  0
   36.6092    4.9020   24.4902 N   0  0  0  0  0  0
   36.6410    5.2754   25.7678 C   0  0  0  0  0  0
   37.3570    6.4511   26.0069 C   0  0  0  0  0  0
   37.8778    7.1392   24.5079 S   0  0  0  0  0  0
   36.1217    4.4251   26.8317 C   0  0  0  0  0  0
   36.6778    4.4768   27.9341 O   0  0  0  0  0  0
   35.0786    3.5772   26.5871 N   0  0  0  0  0  0
   34.7152    2.5280   27.5462 C   0  0  0  0  0  0
   34.1637    3.6226   25.4385 C   0  0  0  0  0  0
   36.5035    4.5189   15.2997 H   0  0  0  0  0  0
   39.0362    9.3022   16.7589 H   0  0  0  0  0  0
   40.2764    9.5313   15.5350 H   0  0  0  0  0  0
   38.6809    8.9499   15.0731 H   0  0  0  0  0  0
   40.6206    7.4399   16.9009 H   0  0  0  0  0  0
   41.3959    7.5610   14.4368 H   0  0  0  0  0  0
   41.2456    5.9607   15.1448 H   0  0  0  0  0  0
   40.0378    6.5867   12.7978 H   0  0  0  0  0  0
   39.0456    7.2281   19.1915 H   0  0  0  0  0  0
   35.8032    4.6134   20.2799 H   0  0  0  0  0  0
   35.4872    3.9441   17.9501 H   0  0  0  0  0  0
   36.8807    4.6740   21.9935 H   0  0  0  0  0  0
   37.5842    6.9304   26.9477 H   0  0  0  0  0  0
   35.4037    2.4562   28.3907 H   0  0  0  0  0  0
   33.7161    2.7048   27.9444 H   0  0  0  0  0  0
   34.7197    1.5548   27.0548 H   0  0  0  0  0  0
   34.1865    4.5793   24.9154 H   0  0  0  0  0  0
   34.4026    2.8273   24.7275 H   0  0  0  0  0  0
   33.1318    3.4785   25.7693 H   0  0  0  0  0  0
  1  2  1  0  0  0
  1 30  1  0  0  0
  1 31  1  0  0  0
  1 32  1  0  0  0
  2  8  1  0  0  0
  2  3  1  0  0  0
  2 33  1  0  0  0
  3  4  1  0  0  0
  3 34  1  0  0  0
  3 35  1  0  0  0
  4  5  1  0  0  0
  4 36  1  0  0  0
  5  6  2  0  0  0
  5  7  1  0  0  0
  7 15  1  0  0  0
  7  8  2  0  0  0
  8  9  1  0  0  0
  9 14  2  0  0  0
  9 10  1  0  0  0
 10 11  2  0  0  0
 10 37  1  0  0  0
 11 12  1  0  0  0
 11 16  1  0  0  0
 12 13  2  0  0  0
 12 38  1  0  0  0
 13 14  1  0  0  0
 13 39  1  0  0  0
 14 15  1  0  0  0
 15 29  1  0  0  0
 16 17  2  0  0  0
 16 18  1  0  0  0
 18 19  1  0  0  0
 18 40  1  0  0  0
 19 23  1  0  0  0
 19 20  2  0  0  0
 20 21  1  0  0  0
 21 22  2  0  0  0
 21 24  1  0  0  0
 22 23  1  0  0  0
 22 41  1  0  0  0
 24 25  2  0  0  0
 24 26  1  0  0  0
 26 27  1  0  0  0
 26 28  1  0  0  0
 27 42  1  0  0  0
 27 43  1  0  0  0
 27 44  1  0  0  0
 28 45  1  0  0  0
 28 46  1  0  0  0
 28 47  1  0  0  0
M  END
> <s_m_entry_id>
9405

> <s_m_entry_name>
ligand_docking-pose.21

> <s_m_Source_Path>
/home/csk/Desktop/cluster/DUD-E-result/mapk2

> <s_m_Source_File>
ligand_docking-pose.sdf

> <i_m_Source_File_Index>
21

> <i_lp_mmshare_version>
53161

> <r_lp_tautomer_probability>
0.999000488399163

> <s_lp_Force_Field>
OPLS_2005

> <r_lp_Energy>
37.930472

> <b_lp_Chiralities_Consistent>
1

> <s_lp_Variant>
412087-1

> <s_i_glide_gridfile>
glide-grid_3m2w

> <i_i_glide_lignum>
175

> <i_i_glide_rotatable_bonds>
5

> <r_i_docking_score>
-7.13309822874709

> <r_i_glide_ligand_efficiency>
-0.254753508169539

> <r_i_glide_ligand_efficiency_sa>
-0.773581692595014

> <r_i_glide_ligand_efficiency_ln>
-1.64652850805943

> <r_i_glide_gscore>
-7.13309822874709

> <r_i_glide_lipo>
-2.17852410639119

> <r_i_glide_hbond>
-0.289895962626698

> <r_i_glide_metal>
0

> <r_i_glide_rewards>
-2.04670991742839

> <r_i_glide_evdw>
-43.2507629394531

> <r_i_glide_ecoul>
-5.21455335617065

> <r_i_glide_erotb>
0.346967281111541

> <r_i_glide_esite>
-0.0202143730140993

> <r_i_glide_emodel>
-68.9229455807598

> <r_i_glide_energy>
-48.4653162956238

> <r_i_glide_einternal>
0.9784876704216

> <i_i_glide_confnum>
10

> <i_i_glide_posenum>
140

> <r_i_glide_eff_state_penalty>
0

> <i_f3d_flags>
0

> <s_user_duplicate_titles>
412087

> <s_m_subgroup_title>
dock_pv

> <s_m_subgroupid>
dock_pv1

> <b_m_subgroup_collapsed>
0

$$$$
566066
                    3D
 Schrodinger Suite 2021-1.
 33 36  0  0  1  0            999 V2000
   37.8480    5.3083   22.3596 C   0  0  0  0  0  0
   38.3321    5.6056   20.9323 C   0  0  1  0  0  0
   37.1353    5.8362   19.9911 C   0  0  0  0  0  0
   37.4896    5.7410   18.5880 N   0  0  0  0  0  0
   38.5450    6.3794   17.9791 C   0  0  0  0  0  0
   38.7145    6.2884   16.5568 C   0  0  0  0  0  0
   39.8640    7.0050   16.1052 C   0  0  0  0  0  0
   40.2354    7.0458   14.7500 C   0  0  0  0  0  0
   39.4664    6.3380   13.8293 C   0  0  0  0  0  0
   38.3368    5.6595   14.2588 C   0  0  0  0  0  0
   37.9456    5.6251   15.5786 C   0  0  0  0  0  0
   36.6791    4.8443   15.6728 C   0  0  0  0  0  0
   36.4304    4.4252   14.2206 C   0  0  0  0  0  0
   37.4885    4.9772   13.4260 O   0  0  0  0  0  0
   40.6780    7.8011   17.4302 S   0  0  0  0  0  0
   39.5691    7.0997   18.6054 C   0  0  0  0  0  0
   39.8210    7.4749   19.9958 C   0  0  0  0  0  0
   40.5520    8.4250   20.2720 O   0  0  0  0  0  0
   39.2565    6.7348   20.9659 N   0  0  0  0  0  0
   38.8915    4.7289   20.5961 H   0  0  0  0  0  0
   37.1625    4.4604   22.3666 H   0  0  0  0  0  0
   38.6777    5.0519   23.0192 H   0  0  0  0  0  0
   37.3039    6.1517   22.7882 H   0  0  0  0  0  0
   36.3633    5.0885   20.1786 H   0  0  0  0  0  0
   36.6812    6.8092   20.1848 H   0  0  0  0  0  0
   36.7469    5.4234   17.9782 H   0  0  0  0  0  0
   41.0915    7.6164   14.4223 H   0  0  0  0  0  0
   39.7417    6.3471   12.7855 H   0  0  0  0  0  0
   36.7358    3.9798   16.3340 H   0  0  0  0  0  0
   35.8780    5.4765   16.0449 H   0  0  0  0  0  0
   36.4145    3.3381   14.1491 H   0  0  0  0  0  0
   35.4696    4.8089   13.8725 H   0  0  0  0  0  0
   39.5264    7.0355   21.8926 H   0  0  0  0  0  0
  1  2  1  0  0  0
  1 21  1  0  0  0
  1 22  1  0  0  0
  1 23  1  0  0  0
  2 20  1  0  0  0
  2 19  1  0  0  0
  2  3  1  0  0  0
  3  4  1  0  0  0
  3 24  1  0  0  0
  3 25  1  0  0  0
  4  5  1  0  0  0
  4 26  1  0  0  0
  5 16  2  0  0  0
  5  6  1  0  0  0
  6 11  2  0  0  0
  6  7  1  0  0  0
  7  8  2  0  0  0
  7 15  1  0  0  0
  8  9  1  0  0  0
  8 27  1  0  0  0
  9 10  2  0  0  0
  9 28  1  0  0  0
 10 14  1  0  0  0
 10 11  1  0  0  0
 11 12  1  0  0  0
 12 13  1  0  0  0
 12 29  1  0  0  0
 12 30  1  0  0  0
 13 14  1  0  0  0
 13 31  1  0  0  0
 13 32  1  0  0  0
 15 16  1  0  0  0
 16 17  1  0  0  0
 17 18  2  0  0  0
 17 19  1  0  0  0
 19 33  1  0  0  0
M  END
> <s_m_entry_id>
9406

> <s_m_entry_name>
ligand_docking-pose.22

> <s_m_Source_Path>
/home/csk/Desktop/cluster/DUD-E-result/mapk2

> <s_m_Source_File>
ligand_docking-pose.sdf

> <i_m_Source_File_Index>
22

> <i_lp_mmshare_version>
53161

> <r_lp_tautomer_probability>
1

> <s_lp_Force_Field>
OPLS_2005

> <r_lp_Energy>
43.447465

> <b_lp_Chiralities_Consistent>
1

> <s_lp_Variant>
566066-1

> <s_i_glide_gridfile>
glide-grid_3m2w

> <i_i_glide_lignum>
241

> <i_i_glide_rotatable_bonds>
0

> <r_i_docking_score>
-7.12256945795877

> <r_i_glide_ligand_efficiency>
-0.374872076734672

> <r_i_glide_ligand_efficiency_sa>
-1.00030926663683

> <r_i_glide_ligand_efficiency_ln>
-1.8057243363577

> <r_i_glide_gscore>
-7.12256945795877

> <r_i_glide_lipo>
-2.41392039151239

> <r_i_glide_hbond>
-0.12418861754627

> <r_i_glide_metal>
0

> <r_i_glide_rewards>
-1.69365061432401

> <r_i_glide_evdw>
-36.6033363342285

> <r_i_glide_ecoul>
-6.5011830329895

> <r_i_glide_erotb>
0

> <r_i_glide_esite>
-0.0854655629162554

> <r_i_glide_emodel>
-62.2626200016653

> <r_i_glide_energy>
-43.104519367218

> <r_i_glide_einternal>
0

> <i_i_glide_confnum>
1

> <i_i_glide_posenum>
43

> <r_i_glide_eff_state_penalty>
0

> <i_f3d_flags>
0

> <s_user_duplicate_titles>
566066

> <s_m_subgroup_title>
dock_pv

> <s_m_subgroupid>
dock_pv1

> <b_m_subgroup_collapsed>
0

$$$$
302094
                    3D
 Schrodinger Suite 2021-1.
 33 35  0  0  1  0            999 V2000
   40.3430    7.2753   16.0109 C   0  0  0  0  0  0
   40.3713    7.0552   14.6335 C   0  0  0  0  0  0
   39.3856    6.2838   14.0216 C   0  0  0  0  0  0
   38.3314    5.7723   14.7898 C   0  0  0  0  0  0
   38.3012    6.0036   16.1726 C   0  0  0  0  0  0
   39.3239    6.7441   16.8082 C   0  0  0  0  0  0
   39.3158    6.9111   18.3290 C   0  0  0  0  0  0
   38.5741    5.7069   18.9451 C   0  0  2  0  0  0
   37.1694    5.6385   18.2637 C   0  0  1  0  0  0
   37.2741    5.3693   16.8621 O   0  0  0  0  0  0
   36.2825    4.5885   18.9214 C   0  0  0  0  0  0
   36.4272    4.2288   20.2124 C   0  0  0  0  0  0
   37.4522    4.8713   21.0330 C   0  0  0  0  0  0
   38.4614    5.5786   20.4717 C   0  0  0  0  0  0
   39.4760    6.1557   21.1896 N   0  0  0  0  0  0
   37.3764    4.7389   22.4569 C   0  0  0  0  0  0
   37.2848    4.6238   23.6047 N   0  0  0  0  0  0
   35.6473    3.2256   20.7249 N   0  0  0  0  0  0
   37.3368    5.0238   14.2050 O   0  0  0  0  0  0
   39.4780    6.0251   12.6742 O   0  0  0  0  0  0
   41.1331    7.8563   16.4643 H   0  0  0  0  0  0
   41.1749    7.4734   14.0454 H   0  0  0  0  0  0
   40.3374    6.9754   18.7061 H   0  0  0  0  0  0
   38.8164    7.8422   18.5994 H   0  0  0  0  0  0
   39.1495    4.8252   18.6711 H   0  0  0  0  0  0
   36.6587    6.5976   18.3695 H   0  0  0  0  0  0
   35.5219    4.1097   18.3206 H   0  0  0  0  0  0
   40.2951    6.5100   20.7219 H   0  0  0  0  0  0
   39.5658    5.9795   22.1839 H   0  0  0  0  0  0
   35.8154    2.8692   21.6558 H   0  0  0  0  0  0
   35.0321    2.6838   20.1357 H   0  0  0  0  0  0
   36.7145    4.6984   14.8618 H   0  0  0  0  0  0
   40.2470    6.4231   12.2456 H   0  0  0  0  0  0
  1  6  1  0  0  0
  1  2  2  0  0  0
  1 21  1  0  0  0
  2  3  1  0  0  0
  2 22  1  0  0  0
  3  4  2  0  0  0
  3 20  1  0  0  0
  4  5  1  0  0  0
  4 19  1  0  0  0
  5 10  1  0  0  0
  5  6  2  0  0  0
  6  7  1  0  0  0
  7  8  1  0  0  0
  7 23  1  0  0  0
  7 24  1  0  0  0
  8 14  1  0  0  0
  8  9  1  0  0  0
  8 25  1  0  0  0
  9 10  1  0  0  0
  9 11  1  0  0  0
  9 26  1  0  0  0
 11 12  2  0  0  0
 11 27  1  0  0  0
 12 13  1  0  0  0
 12 18  1  0  0  0
 13 14  2  0  0  0
 13 16  1  0  0  0
 14 15  1  0  0  0
 15 28  1  0  0  0
 15 29  1  0  0  0
 16 17  3  0  0  0
 18 30  1  0  0  0
 18 31  1  0  0  0
 19 32  1  0  0  0
 20 33  1  0  0  0
M  END
> <s_m_entry_id>
9409

> <s_m_entry_name>
ligand_docking-pose.25

> <s_m_Source_Path>
/home/csk/Desktop/cluster/DUD-E-result/mapk2

> <s_m_Source_File>
ligand_docking-pose.sdf

> <i_m_Source_File_Index>
25

> <i_lp_mmshare_version>
53161

> <r_lp_tautomer_probability>
0.99999999999482

> <s_lp_Force_Field>
OPLS_2005

> <r_lp_Energy>
23.551481

> <b_lp_Chiralities_Consistent>
1

> <s_lp_Variant>
302094-1

> <s_i_glide_gridfile>
glide-grid_3m2w

> <i_i_glide_lignum>
73

> <i_i_glide_rotatable_bonds>
2

> <r_i_docking_score>
-7.10100859031509

> <r_i_glide_ligand_efficiency>
-0.355050429515754

> <r_i_glide_ligand_efficiency_sa>
-0.963755139694768

> <r_i_glide_ligand_efficiency_ln>
-1.77714824321779

> <r_i_glide_gscore>
-7.10100859031509

> <r_i_glide_lipo>
-2.2253386812367

> <r_i_glide_hbond>
-0.0665332475023591

> <r_i_glide_metal>
0

> <r_i_glide_rewards>
-2.03179721890595

> <r_i_glide_evdw>
-32.7867202758789

> <r_i_glide_ecoul>
-6.87977933883667

> <r_i_glide_erotb>
0

> <r_i_glide_esite>
-0.106036528050635

> <r_i_glide_emodel>
-55.3360805787242

> <r_i_glide_energy>
-39.6664996147156

> <r_i_glide_einternal>
0.0137196779251099

> <i_i_glide_confnum>
1

> <i_i_glide_posenum>
393

> <r_i_glide_eff_state_penalty>
0

> <i_f3d_flags>
0

> <s_user_duplicate_titles>
302094

> <s_m_subgroup_title>
dock_pv

> <s_m_subgroupid>
dock_pv1

> <b_m_subgroup_collapsed>
0

$$$$
592505
                    3D
 Schrodinger Suite 2021-1.
 52 57  0  0  1  0            999 V2000
   32.5413   -0.8483   14.4149 C   0  0  0  0  0  0
   32.6904   -1.2757   15.7303 C   0  0  0  0  0  0
   33.4776   -0.5648   16.6340 C   0  0  0  0  0  0
   34.1171    0.5978   16.1791 C   0  0  0  0  0  0
   33.9650    1.0609   14.8430 C   0  0  0  0  0  0
   33.1711    0.3092   13.9599 C   0  0  0  0  0  0
   34.6708    2.2722   14.6156 C   0  0  0  0  0  0
   35.3704    2.7351   15.7200 C   0  0  0  0  0  0
   35.1632    1.6604   17.1007 S   0  0  0  0  0  0
   36.2308    3.9631   15.8504 C   0  0  0  0  0  0
   36.5081    4.5515   17.0949 C   0  0  0  0  0  0
   37.3303    5.6698   17.2354 C   0  0  0  0  0  0
   37.9489    6.2312   16.1181 C   0  0  0  0  0  0
   37.6755    5.7055   14.8604 C   0  0  0  0  0  0
   36.7878    4.6153   14.7391 C   0  0  0  0  0  0
   36.6780    4.4250   13.3801 N   0  0  0  0  0  0
   37.4896    5.2250   12.6720 N   0  0  0  0  0  0
   38.1047    5.9819   13.5356 C   0  0  0  0  0  0
   37.6010    6.2500   18.5763 C   0  0  0  0  0  0
   36.7759    6.2367   19.6922 C   0  0  0  0  0  0
   37.2961    7.0140   20.7029 N   0  0  0  0  0  0
   38.5535    7.4202   20.3204 C   0  0  0  0  0  0
   38.7651    6.9811   18.9846 C   0  0  0  0  0  0
   39.8832    7.2897   18.3114 N   0  0  0  0  0  0
   40.7866    8.0221   18.9903 C   0  0  0  0  0  0
   40.6928    8.4250   20.2720 N   0  0  0  0  0  0
   39.5586    8.1374   20.9565 C   0  0  0  0  0  0
   41.9072    8.4251   18.2842 N   0  0  0  0  0  0
   36.6478    7.3111   21.9775 C   0  0  0  0  0  0
   37.2362    6.5228   23.1679 C   0  0  0  0  0  0
   37.1618    5.0165   22.9437 C   0  0  0  0  0  0
   36.1025    4.4084   23.0566 O   0  0  0  0  0  0
   38.2780    4.4228   22.5541 N   0  0  0  0  0  0
   36.1725    3.6876   12.9138 H   0  0  0  0  0  0
   31.9173   -1.4160   13.7395 H   0  0  0  0  0  0
   32.1795   -2.1690   16.0602 H   0  0  0  0  0  0
   33.5877   -0.8957   17.6578 H   0  0  0  0  0  0
   33.0358    0.6327   12.9390 H   0  0  0  0  0  0
   34.6390    2.7774   13.6660 H   0  0  0  0  0  0
   36.0751    4.1247   17.9869 H   0  0  0  0  0  0
   38.6024    7.0841   16.1989 H   0  0  0  0  0  0
   38.8363    6.7130   13.2277 H   0  0  0  0  0  0
   35.8128    5.7705   19.8356 H   0  0  0  0  0  0
   39.4800    8.4733   21.9815 H   0  0  0  0  0  0
   42.4556    9.1748   18.6708 H   0  0  0  0  0  0
   41.8777    8.2760   17.2866 H   0  0  0  0  0  0
   36.7224    8.3847   22.1543 H   0  0  0  0  0  0
   35.5873    7.0888   21.8694 H   0  0  0  0  0  0
   38.2639    6.8312   23.3694 H   0  0  0  0  0  0
   36.6781    6.7541   24.0752 H   0  0  0  0  0  0
   38.2560    3.4396   22.3111 H   0  0  0  0  0  0
   39.1859    4.8618   22.6707 H   0  0  0  0  0  0
  1  6  1  0  0  0
  1  2  2  0  0  0
  1 35  1  0  0  0
  2  3  1  0  0  0
  2 36  1  0  0  0
  3  4  2  0  0  0
  3 37  1  0  0  0
  4  9  1  0  0  0
  4  5  1  0  0  0
  5  6  2  0  0  0
  5  7  1  0  0  0
  6 38  1  0  0  0
  7  8  2  0  0  0
  7 39  1  0  0  0
  8  9  1  0  0  0
  8 10  1  0  0  0
 10 15  1  0  0  0
 10 11  2  0  0  0
 11 12  1  0  0  0
 11 40  1  0  0  0
 12 13  2  0  0  0
 12 19  1  0  0  0
 13 14  1  0  0  0
 13 41  1  0  0  0
 14 18  1  0  0  0
 14 15  2  0  0  0
 15 16  1  0  0  0
 16 34  1  0  0  0
 16 17  1  0  0  0
 17 18  2  0  0  0
 18 42  1  0  0  0
 19 23  1  0  0  0
 19 20  2  0  0  0
 20 21  1  0  0  0
 20 43  1  0  0  0
 21 22  1  0  0  0
 21 29  1  0  0  0
 22 27  1  0  0  0
 22 23  2  0  0  0
 23 24  1  0  0  0
 24 25  2  0  0  0
 25 26  1  0  0  0
 25 28  1  0  0  0
 26 27  2  0  0  0
 27 44  1  0  0  0
 28 45  1  0  0  0
 28 46  1  0  0  0
 29 30  1  0  0  0
 29 47  1  0  0  0
 29 48  1  0  0  0
 30 31  1  0  0  0
 30 49  1  0  0  0
 30 50  1  0  0  0
 31 32  2  0  0  0
 31 33  1  0  0  0
 33 51  1  0  0  0
 33 52  1  0  0  0
M  END
> <s_m_entry_id>
9410

> <s_m_entry_name>
ligand_docking-pose.26

> <s_m_Source_Path>
/home/csk/Desktop/cluster/DUD-E-result/mapk2

> <s_m_Source_File>
ligand_docking-pose.sdf

> <i_m_Source_File_Index>
26

> <i_lp_mmshare_version>
53161

> <r_lp_tautomer_probability>
0.980392156862745

> <s_lp_Force_Field>
OPLS_2005

> <r_lp_Energy>
20.855818

> <b_lp_Chiralities_Consistent>
1

> <s_lp_Variant>
592505-1

> <s_i_glide_gridfile>
glide-grid_3m2w

> <i_i_glide_lignum>
55

> <i_i_glide_rotatable_bonds>
5

> <r_i_docking_score>
-7.07751029659435

> <r_i_glide_ligand_efficiency>
-0.214470008987708

> <r_i_glide_ligand_efficiency_sa>
-0.687919915780813

> <r_i_glide_ligand_efficiency_ln>
-1.57400164457549

> <r_i_glide_gscore>
-7.07751029659435

> <r_i_glide_lipo>
-1.83118763598276

> <r_i_glide_hbond>
-0.914285471947851

> <r_i_glide_metal>
0

> <r_i_glide_rewards>
-1.30077881667188

> <r_i_glide_evdw>
-39.9547843933105

> <r_i_glide_ecoul>
-8.8018741607666

> <r_i_glide_erotb>
0.390387931889166

> <r_i_glide_esite>
-0.103625960100519

> <r_i_glide_emodel>
-70.5154205490279

> <r_i_glide_energy>
-48.7566585540771

> <r_i_glide_einternal>
2.95189929008484

> <i_i_glide_confnum>
6

> <i_i_glide_posenum>
353

> <r_i_glide_eff_state_penalty>
0

> <i_f3d_flags>
0

> <s_user_duplicate_titles>
592505

> <s_m_subgroup_title>
dock_pv

> <s_m_subgroupid>
dock_pv1

> <b_m_subgroup_collapsed>
0

$$$$
412078
                    3D
 Schrodinger Suite 2021-1.
 41 44  0  0  1  0            999 V2000
   39.4692    8.9251   16.2568 C   0  0  0  0  0  0
   39.9187    7.4608   16.4065 C   0  0  2  0  0  0
   40.6783    6.9125   15.1618 C   0  0  0  0  0  0
   39.7623    6.6004   14.0434 N   0  0  0  0  0  0
   38.5616    5.9827   14.1670 C   0  0  0  0  0  0
   37.9517    5.6242   13.1621 O   0  0  0  0  0  0
   38.1604    5.8716   15.5554 C   0  0  0  0  0  0
   38.7440    6.5273   16.6350 C   0  0  0  0  0  0
   38.0453    6.1206   17.8226 C   0  0  0  0  0  0
   38.1803    6.3994   19.1933 C   0  0  0  0  0  0
   37.3195    5.7910   20.1197 C   0  0  0  0  0  0
   36.3264    4.9114   19.6575 C   0  0  0  0  0  0
   36.1504    4.6175   18.3070 C   0  0  0  0  0  0
   37.0094    5.2396   17.4016 C   0  0  0  0  0  0
   37.0777    5.1668   16.0258 N   0  0  0  0  0  0
   37.4569    6.1071   21.5970 C   0  0  0  0  0  0
   38.0018    7.1510   21.9638 O   0  0  0  0  0  0
   36.9504    5.1775   22.4345 N   0  0  0  0  0  0
   36.8996    5.2310   23.8161 C   0  0  0  0  0  0
   37.6640    5.9246   24.6353 N   0  0  0  0  0  0
   37.3504    5.7112   25.9107 C   0  0  0  0  0  0
   36.2836    4.8252   26.1067 C   0  0  0  0  0  0
   35.6874    4.2597   24.5796 S   0  0  0  0  0  0
   38.0766    6.3518   26.9924 C   0  0  0  0  0  0
   37.7959    6.1414   28.1702 O   0  0  0  0  0  0
   39.0791    7.1678   26.6721 N   0  0  0  0  0  0
   36.4743    4.6364   15.4116 H   0  0  0  0  0  0
   39.0766    9.3079   17.1980 H   0  0  0  0  0  0
   40.2788    9.5835   15.9558 H   0  0  0  0  0  0
   38.6864    9.0253   15.5039 H   0  0  0  0  0  0
   40.5999    7.4081   17.2601 H   0  0  0  0  0  0
   41.4332    7.6274   14.8236 H   0  0  0  0  0  0
   41.2180    6.0019   15.4304 H   0  0  0  0  0  0
   40.0628    6.8147   13.1025 H   0  0  0  0  0  0
   38.9551    7.0734   19.5295 H   0  0  0  0  0  0
   35.6446    4.4382   20.3493 H   0  0  0  0  0  0
   35.3749    3.9402   17.9811 H   0  0  0  0  0  0
   36.5106    4.3715   22.0189 H   0  0  0  0  0  0
   35.8453    4.4859   27.0341 H   0  0  0  0  0  0
   39.6258    7.5969   27.3998 H   0  0  0  0  0  0
   39.4211    7.2392   25.7147 H   0  0  0  0  0  0
  1  2  1  0  0  0
  1 28  1  0  0  0
  1 29  1  0  0  0
  1 30  1  0  0  0
  2  8  1  0  0  0
  2  3  1  0  0  0
  2 31  1  0  0  0
  3  4  1  0  0  0
  3 32  1  0  0  0
  3 33  1  0  0  0
  4  5  1  0  0  0
  4 34  1  0  0  0
  5  6  2  0  0  0
  5  7  1  0  0  0
  7 15  1  0  0  0
  7  8  2  0  0  0
  8  9  1  0  0  0
  9 14  2  0  0  0
  9 10  1  0  0  0
 10 11  2  0  0  0
 10 35  1  0  0  0
 11 12  1  0  0  0
 11 16  1  0  0  0
 12 13  2  0  0  0
 12 36  1  0  0  0
 13 14  1  0  0  0
 13 37  1  0  0  0
 14 15  1  0  0  0
 15 27  1  0  0  0
 16 17  2  0  0  0
 16 18  1  0  0  0
 18 19  1  0  0  0
 18 38  1  0  0  0
 19 23  1  0  0  0
 19 20  2  0  0  0
 20 21  1  0  0  0
 21 22  2  0  0  0
 21 24  1  0  0  0
 22 23  1  0  0  0
 22 39  1  0  0  0
 24 25  2  0  0  0
 24 26  1  0  0  0
 26 40  1  0  0  0
 26 41  1  0  0  0
M  END
> <s_m_entry_id>
9411

> <s_m_entry_name>
ligand_docking-pose.27

> <s_m_Source_Path>
/home/csk/Desktop/cluster/DUD-E-result/mapk2

> <s_m_Source_File>
ligand_docking-pose.sdf

> <i_m_Source_File_Index>
27

> <i_lp_mmshare_version>
53161

> <r_lp_tautomer_probability>
0.999000488399163

> <s_lp_Force_Field>
OPLS_2005

> <r_lp_Energy>
25.097286

> <b_lp_Chiralities_Consistent>
1

> <s_lp_Variant>
412078-1

> <s_i_glide_gridfile>
glide-grid_3m2w

> <i_i_glide_lignum>
163

> <i_i_glide_rotatable_bonds>
4

> <r_i_docking_score>
-7.06936962774032

> <r_i_glide_ligand_efficiency>
-0.271898831836166

> <r_i_glide_ligand_efficiency_sa>
-0.805499219444401

> <r_i_glide_ligand_efficiency_ln>
-1.66021826058107

> <r_i_glide_gscore>
-7.06936962774032

> <r_i_glide_lipo>
-2.10119821470916

> <r_i_glide_hbond>
-0.410360936449183

> <r_i_glide_metal>
0

> <r_i_glide_rewards>
-1.41479650222402

> <r_i_glide_evdw>
-44.3676338195801

> <r_i_glide_ecoul>
-8.87064552307129

> <r_i_glide_erotb>
0.423886996374203

> <r_i_glide_esite>
-0.0179224512924658

> <r_i_glide_emodel>
-76.0537802460102

> <r_i_glide_energy>
-53.2382793426514

> <r_i_glide_einternal>
1.58367729187012

> <i_i_glide_confnum>
5

> <i_i_glide_posenum>
132

> <r_i_glide_eff_state_penalty>
0

> <i_f3d_flags>
0

> <s_user_duplicate_titles>
412078

> <s_m_subgroup_title>
dock_pv

> <s_m_subgroupid>
dock_pv1

> <b_m_subgroup_collapsed>
0

$$$$
302070
                    3D
 Schrodinger Suite 2021-1.
 33 35  0  0  1  0            999 V2000
   36.8008    5.8295   22.6765 C   0  0  0  0  0  0
   37.9689    6.5419   22.9222 C   0  0  0  0  0  0
   38.8186    6.8658   21.8720 C   0  0  0  0  0  0
   38.5156    6.4550   20.5788 C   0  0  0  0  0  0
   37.3445    5.7131   20.3084 C   0  0  0  0  0  0
   36.4866    5.4267   21.3808 C   0  0  0  0  0  0
   35.3195    4.7400   21.1819 O   0  0  0  0  0  0
   37.0722    5.2250   18.8868 C   0  0  0  0  0  0
   37.8527    6.0945   17.8819 C   0  0  1  0  0  0
   39.3341    6.2076   18.3614 C   0  0  2  0  0  0
   39.3903    6.9058   19.6041 O   0  0  0  0  0  0
   40.1876    6.9382   17.3295 C   0  0  0  0  0  0
   39.9039    6.9127   16.0125 C   0  0  0  0  0  0
   38.7473    6.1579   15.5412 C   0  0  0  0  0  0
   37.7790    5.7446   16.3897 C   0  0  0  0  0  0
   36.6780    5.0295   15.9919 N   0  0  0  0  0  0
   38.6422    5.8497   14.1529 C   0  0  0  0  0  0
   38.5251    5.6250   13.0268 N   0  0  0  0  0  0
   40.6780    7.6250   15.1359 N   0  0  0  0  0  0
   38.2780    6.9348   24.1935 O   0  0  0  0  0  0
   36.1384    5.6020   23.4987 H   0  0  0  0  0  0
   39.7135    7.4374   22.0599 H   0  0  0  0  0  0
   34.9258    4.4801   22.0177 H   0  0  0  0  0  0
   37.3871    4.1843   18.8184 H   0  0  0  0  0  0
   36.0024    5.2412   18.6729 H   0  0  0  0  0  0
   37.4189    7.0876   17.9480 H   0  0  0  0  0  0
   39.7728    5.2180   18.5089 H   0  0  0  0  0  0
   41.0456    7.4962   17.6744 H   0  0  0  0  0  0
   35.9221    4.8250   16.6316 H   0  0  0  0  0  0
   36.5599    4.7442   15.0301 H   0  0  0  0  0  0
   40.4949    7.6024   14.1427 H   0  0  0  0  0  0
   41.4325    8.2134   15.4601 H   0  0  0  0  0  0
   39.2096    7.2250   24.2720 H   0  0  0  0  0  0
  1  6  1  0  0  0
  1  2  2  0  0  0
  1 21  1  0  0  0
  2  3  1  0  0  0
  2 20  1  0  0  0
  3  4  2  0  0  0
  3 22  1  0  0  0
  4 11  1  0  0  0
  4  5  1  0  0  0
  5  6  2  0  0  0
  5  8  1  0  0  0
  6  7  1  0  0  0
  7 23  1  0  0  0
  8  9  1  0  0  0
  8 24  1  0  0  0
  8 25  1  0  0  0
  9 15  1  0  0  0
  9 10  1  0  0  0
  9 26  1  0  0  0
 10 11  1  0  0  0
 10 12  1  0  0  0
 10 27  1  0  0  0
 12 13  2  0  0  0
 12 28  1  0  0  0
 13 14  1  0  0  0
 13 19  1  0  0  0
 14 15  2  0  0  0
 14 17  1  0  0  0
 15 16  1  0  0  0
 16 29  1  0  0  0
 16 30  1  0  0  0
 17 18  3  0  0  0
 19 31  1  0  0  0
 19 32  1  0  0  0
 20 33  1  0  0  0
M  END
> <s_m_entry_id>
9412

> <s_m_entry_name>
ligand_docking-pose.28

> <s_m_Source_Path>
/home/csk/Desktop/cluster/DUD-E-result/mapk2

> <s_m_Source_File>
ligand_docking-pose.sdf

> <i_m_Source_File_Index>
28

> <i_lp_mmshare_version>
53161

> <r_lp_tautomer_probability>
0.999999964870001

> <s_lp_Force_Field>
OPLS_2005

> <r_lp_Energy>
30.070448

> <b_lp_Chiralities_Consistent>
1

> <s_lp_Variant>
302070-4

> <s_i_glide_gridfile>
glide-grid_3m2w

> <i_i_glide_lignum>
67

> <i_i_glide_rotatable_bonds>
2

> <r_i_docking_score>
-7.05946855126078

> <r_i_glide_ligand_efficiency>
-0.352973427563039

> <r_i_glide_ligand_efficiency_sa>
-0.958117289010245

> <r_i_glide_ligand_efficiency_ln>
-1.76675214152468

> <r_i_glide_gscore>
-7.05946855126078

> <r_i_glide_lipo>
-1.42322912513823

> <r_i_glide_hbond>
-0.528602109149364

> <r_i_glide_metal>
0

> <r_i_glide_rewards>
-2.06784706060606

> <r_i_glide_evdw>
-28.5899047851562

> <r_i_glide_ecoul>
-10.6490468978882

> <r_i_glide_erotb>
0

> <r_i_glide_esite>
-0.0129379824260862

> <r_i_glide_emodel>
-56.329205776075

> <r_i_glide_energy>
-39.2389516830444

> <r_i_glide_einternal>
1.18481814861298

> <i_i_glide_confnum>
1

> <i_i_glide_posenum>
360

> <r_i_glide_eff_state_penalty>
0

> <i_f3d_flags>
0

> <s_user_duplicate_titles>
302070

> <s_m_subgroup_title>
dock_pv

> <s_m_subgroupid>
dock_pv1

> <b_m_subgroup_collapsed>
0

$$$$
301998
                    3D
 Schrodinger Suite 2021-1.
 32 34  0  0  1  0            999 V2000
   39.0414    8.0792   21.6294 C   0  0  0  0  0  0
   39.7574    8.0237   20.4343 C   0  0  0  0  0  0
   39.1950    7.4213   19.3134 C   0  0  0  0  0  0
   37.9150    6.8250   19.3871 C   0  0  0  0  0  0
   37.2186    6.8801   20.6012 C   0  0  0  0  0  0
   37.7722    7.5117   21.7154 C   0  0  0  0  0  0
   37.0782    7.5870   22.8949 O   0  0  0  0  0  0
   37.2964    6.1887   18.1473 C   0  0  0  0  0  0
   38.3504    6.0251   17.0299 C   0  0  2  0  0  0
   39.2295    7.3109   16.9577 C   0  0  1  0  0  0
   39.9810    7.4223   18.1676 O   0  0  0  0  0  0
   40.1339    7.3074   15.7327 C   0  0  0  0  0  0
   39.7797    6.6876   14.5884 C   0  0  0  0  0  0
   38.5183    5.9485   14.5227 C   0  0  0  0  0  0
   37.8345    5.6242   15.6423 C   0  0  0  0  0  0
   36.6639    4.9079   15.6276 N   0  0  0  0  0  0
   37.9741    5.5673   13.2587 C   0  0  0  0  0  0
   37.4780    5.2250   12.2720 N   0  0  0  0  0  0
   40.6210    6.7458   13.5125 N   0  0  0  0  0  0
   39.4771    8.5413   22.5038 H   0  0  0  0  0  0
   40.7536    8.4309   20.3793 H   0  0  0  0  0  0
   36.2333    6.4402   20.6699 H   0  0  0  0  0  0
   36.1846    7.2248   22.8777 H   0  0  0  0  0  0
   36.8538    5.2249   18.4047 H   0  0  0  0  0  0
   36.4831    6.8251   17.7955 H   0  0  0  0  0  0
   39.0218    5.2251   17.3395 H   0  0  0  0  0  0
   38.6198    8.2071   16.8558 H   0  0  0  0  0  0
   41.0641    7.8568   15.7768 H   0  0  0  0  0  0
   36.1305    4.7404   16.4691 H   0  0  0  0  0  0
   36.2715    4.5694   14.7610 H   0  0  0  0  0  0
   40.3813    6.3535   12.6126 H   0  0  0  0  0  0
   41.4925    7.2528   13.5643 H   0  0  0  0  0  0
  1  6  1  0  0  0
  1  2  2  0  0  0
  1 20  1  0  0  0
  2  3  1  0  0  0
  2 21  1  0  0  0
  3 11  1  0  0  0
  3  4  2  0  0  0
  4  5  1  0  0  0
  4  8  1  0  0  0
  5  6  2  0  0  0
  5 22  1  0  0  0
  6  7  1  0  0  0
  7 23  1  0  0  0
  8  9  1  0  0  0
  8 24  1  0  0  0
  8 25  1  0  0  0
  9 15  1  0  0  0
  9 10  1  0  0  0
  9 26  1  0  0  0
 10 11  1  0  0  0
 10 12  1  0  0  0
 10 27  1  0  0  0
 12 13  2  0  0  0
 12 28  1  0  0  0
 13 14  1  0  0  0
 13 19  1  0  0  0
 14 15  2  0  0  0
 14 17  1  0  0  0
 15 16  1  0  0  0
 16 29  1  0  0  0
 16 30  1  0  0  0
 17 18  3  0  0  0
 19 31  1  0  0  0
 19 32  1  0  0  0
M  END
> <s_m_entry_id>
9414

> <s_m_entry_name>
ligand_docking-pose.30

> <s_m_Source_Path>
/home/csk/Desktop/cluster/DUD-E-result/mapk2

> <s_m_Source_File>
ligand_docking-pose.sdf

> <i_m_Source_File_Index>
30

> <i_lp_mmshare_version>
53161

> <r_lp_tautomer_probability>
0.999999999999998

> <s_lp_Force_Field>
OPLS_2005

> <r_lp_Energy>
23.660588

> <b_lp_Chiralities_Consistent>
1

> <s_lp_Variant>
301998-1

> <s_i_glide_gridfile>
glide-grid_3m2w

> <i_i_glide_lignum>
28

> <i_i_glide_rotatable_bonds>
1

> <r_i_docking_score>
-7.03273123837844

> <r_i_glide_ligand_efficiency>
-0.370143749388339

> <r_i_glide_ligand_efficiency_sa>
-0.987692190162566

> <r_i_glide_ligand_efficiency_ln>
-1.78294841814605

> <r_i_glide_gscore>
-7.03273123837844

> <r_i_glide_lipo>
-1.97286818501518

> <r_i_glide_hbond>
-0.693147737091175

> <r_i_glide_metal>
0

> <r_i_glide_rewards>
-2.0381821238666

> <r_i_glide_evdw>
-29.6814041137695

> <r_i_glide_ecoul>
-5.58948707580566

> <r_i_glide_erotb>
0

> <r_i_glide_esite>
-0.00603992534615789

> <r_i_glide_emodel>
-50.6940411488538

> <r_i_glide_energy>
-35.2708911895752

> <r_i_glide_einternal>
0.216119080781937

> <i_i_glide_confnum>
1

> <i_i_glide_posenum>
230

> <r_i_glide_eff_state_penalty>
0

> <i_f3d_flags>
0

> <s_user_duplicate_titles>
301998

> <s_m_subgroup_title>
dock_pv

> <s_m_subgroupid>
dock_pv1

> <b_m_subgroup_collapsed>
0

$$$$
302039
                    3D
 Schrodinger Suite 2021-1.
 33 35  0  0  1  0            999 V2000
   39.0418    8.0193   21.6326 C   0  0  0  0  0  0
   39.7397    8.0241   20.4267 C   0  0  0  0  0  0
   39.1750    7.4392   19.2976 C   0  0  0  0  0  0
   37.9079    6.8175   19.3680 C   0  0  0  0  0  0
   37.2282    6.8212   20.5907 C   0  0  0  0  0  0
   37.7893    7.4164   21.7193 C   0  0  0  0  0  0
   37.1149    7.4093   22.9378 N   0  0  0  0  0  0
   37.2915    6.1881   18.1251 C   0  0  0  0  0  0
   38.3523    6.0253   17.0163 C   0  0  2  0  0  0
   39.2114    7.3229   16.9402 C   0  0  1  0  0  0
   39.9543    7.4707   18.1498 O   0  0  0  0  0  0
   40.1239    7.3273   15.7226 C   0  0  0  0  0  0
   39.7803    6.7040   14.5771 C   0  0  0  0  0  0
   38.5260    5.9554   14.5118 C   0  0  0  0  0  0
   37.8437    5.6230   15.6299 C   0  0  0  0  0  0
   36.6778    4.8969   15.6113 N   0  0  0  0  0  0
   37.9813    5.5714   13.2507 C   0  0  0  0  0  0
   37.4783    5.2255   12.2718 N   0  0  0  0  0  0
   40.6258    6.7701   13.5034 N   0  0  0  0  0  0
   39.4780    8.4695   22.5121 H   0  0  0  0  0  0
   40.7254    8.4565   20.3700 H   0  0  0  0  0  0
   36.2566    6.3545   20.6610 H   0  0  0  0  0  0
   36.1867    7.0069   23.0004 H   0  0  0  0  0  0
   37.6811    7.4860   23.7743 H   0  0  0  0  0  0
   36.8472    5.2244   18.3785 H   0  0  0  0  0  0
   36.4793    6.8250   17.7725 H   0  0  0  0  0  0
   39.0241    5.2254   17.3259 H   0  0  0  0  0  0
   38.5837    8.2039   16.8198 H   0  0  0  0  0  0
   41.0472    7.8874   15.7708 H   0  0  0  0  0  0
   36.1454    4.7226   16.4524 H   0  0  0  0  0  0
   36.2941    4.5541   14.7424 H   0  0  0  0  0  0
   40.3957    6.3766   12.6001 H   0  0  0  0  0  0
   41.4904    7.2877   13.5577 H   0  0  0  0  0  0
  1  6  1  0  0  0
  1  2  2  0  0  0
  1 20  1  0  0  0
  2  3  1  0  0  0
  2 21  1  0  0  0
  3 11  1  0  0  0
  3  4  2  0  0  0
  4  5  1  0  0  0
  4  8  1  0  0  0
  5  6  2  0  0  0
  5 22  1  0  0  0
  6  7  1  0  0  0
  7 23  1  0  0  0
  7 24  1  0  0  0
  8  9  1  0  0  0
  8 25  1  0  0  0
  8 26  1  0  0  0
  9 15  1  0  0  0
  9 10  1  0  0  0
  9 27  1  0  0  0
 10 11  1  0  0  0
 10 12  1  0  0  0
 10 28  1  0  0  0
 12 13  2  0  0  0
 12 29  1  0  0  0
 13 14  1  0  0  0
 13 19  1  0  0  0
 14 15  2  0  0  0
 14 17  1  0  0  0
 15 16  1  0  0  0
 16 30  1  0  0  0
 16 31  1  0  0  0
 17 18  3  0  0  0
 19 32  1  0  0  0
 19 33  1  0  0  0
M  END
> <s_m_entry_id>
9416

> <s_m_entry_name>
ligand_docking-pose.32

> <s_m_Source_Path>
/home/csk/Desktop/cluster/DUD-E-result/mapk2

> <s_m_Source_File>
ligand_docking-pose.sdf

> <i_m_Source_File_Index>
32

> <i_lp_mmshare_version>
53161

> <r_lp_tautomer_probability>
1

> <s_lp_Force_Field>
OPLS_2005

> <r_lp_Energy>
25.544388

> <b_lp_Chiralities_Consistent>
1

> <s_lp_Variant>
302039-1

> <s_i_glide_gridfile>
glide-grid_3m2w

> <i_i_glide_lignum>
24

> <i_i_glide_rotatable_bonds>
0

> <r_i_docking_score>
-7.01178733201167

> <r_i_glide_ligand_efficiency>
-0.36904143852693

> <r_i_glide_ligand_efficiency_sa>
-0.984750782045466

> <r_i_glide_ligand_efficiency_ln>
-1.77763868804822

> <r_i_glide_gscore>
-7.01178733201167

> <r_i_glide_lipo>
-1.97233003586813

> <r_i_glide_hbond>
-0.690889320806806

> <r_i_glide_metal>
0

> <r_i_glide_rewards>
-2.04134251756647

> <r_i_glide_evdw>
-29.1753940582275

> <r_i_glide_ecoul>
-5.62731122970581

> <r_i_glide_erotb>
0

> <r_i_glide_esite>
-0.00435907040301608

> <r_i_glide_emodel>
-48.9029521174515

> <r_i_glide_energy>
-34.8027052879333

> <r_i_glide_einternal>
0

> <i_i_glide_confnum>
1

> <i_i_glide_posenum>
162

> <r_i_glide_eff_state_penalty>
0

> <i_f3d_flags>
0

> <s_user_duplicate_titles>
302039

> <s_m_subgroup_title>
dock_pv

> <s_m_subgroupid>
dock_pv1

> <b_m_subgroup_collapsed>
0

$$$$
412062
                    3D
 Schrodinger Suite 2021-1.
 45 48  0  0  1  0            999 V2000
   38.8085    5.2849   19.9977 C   0  0  0  0  0  0
   38.3152    6.6115   19.3884 C   0  0  1  0  0  0
   38.5018    7.8181   20.3555 C   0  0  0  0  0  0
   39.9268    8.2146   20.4276 N   0  0  0  0  0  0
   40.7515    8.3537   19.3566 C   0  0  0  0  0  0
   41.8780    8.8250   19.4720 O   0  0  0  0  0  0
   40.1615    7.8135   18.1644 C   0  0  0  0  0  0
   39.0606    6.9748   18.1120 C   0  0  0  0  0  0
   38.8662    6.6258   16.7382 C   0  0  0  0  0  0
   37.9124    5.8638   16.0586 C   0  0  0  0  0  0
   38.0433    5.6644   14.6747 C   0  0  0  0  0  0
   39.1196    6.2506   13.9915 C   0  0  0  0  0  0
   40.0726    7.0453   14.6232 C   0  0  0  0  0  0
   39.9274    7.2215   15.9983 C   0  0  0  0  0  0
   40.6838    7.9306   16.9005 N   0  0  0  0  0  0
   37.0631    4.8038   13.9107 C   0  0  0  0  0  0
   37.0780    4.8250   12.6781 O   0  0  0  0  0  0
   36.2880    3.9884   14.6720 N   0  0  0  0  0  0
   35.4243    2.9356   14.3066 C   0  0  0  0  0  0
   35.2480    1.9208   15.2496 C   0  0  0  0  0  0
   34.4353    0.8250   14.9633 C   0  0  0  0  0  0
   33.7466    0.7487   13.7458 C   0  0  0  0  0  0
   33.8780    1.7974   12.8254 C   0  0  0  0  0  0
   34.7404    2.8580   13.0885 C   0  0  0  0  0  0
   32.9074   -0.4652   13.4260 C   0  0  0  0  0  0
   33.1743   -1.5802   13.8720 O   0  0  0  0  0  0
   31.8502   -0.2735   12.6367 N   0  0  0  0  0  0
   41.5131    8.4765   16.7108 H   0  0  0  0  0  0
   38.6293    4.4448   19.3287 H   0  0  0  0  0  0
   39.8779    5.3134   20.2136 H   0  0  0  0  0  0
   38.2973    5.0653   20.9357 H   0  0  0  0  0  0
   37.2498    6.5112   19.1763 H   0  0  0  0  0  0
   37.9168    8.6755   20.0177 H   0  0  0  0  0  0
   38.1416    7.5736   21.3562 H   0  0  0  0  0  0
   40.3562    8.2408   21.3412 H   0  0  0  0  0  0
   37.0994    5.4340   16.6247 H   0  0  0  0  0  0
   39.2335    6.0948   12.9272 H   0  0  0  0  0  0
   40.8843    7.4921   14.0665 H   0  0  0  0  0  0
   36.4605    4.0384   15.6621 H   0  0  0  0  0  0
   35.7626    1.9580   16.1993 H   0  0  0  0  0  0
   34.3428    0.0379   15.6989 H   0  0  0  0  0  0
   33.3765    1.7724   11.8686 H   0  0  0  0  0  0
   34.8655    3.6250   12.3409 H   0  0  0  0  0  0
   31.2567   -1.0536   12.4042 H   0  0  0  0  0  0
   31.6053    0.6563   12.3355 H   0  0  0  0  0  0
  1  2  1  0  0  0
  1 29  1  0  0  0
  1 30  1  0  0  0
  1 31  1  0  0  0
  2  8  1  0  0  0
  2  3  1  0  0  0
  2 32  1  0  0  0
  3  4  1  0  0  0
  3 33  1  0  0  0
  3 34  1  0  0  0
  4  5  1  0  0  0
  4 35  1  0  0  0
  5  6  2  0  0  0
  5  7  1  0  0  0
  7 15  1  0  0  0
  7  8  2  0  0  0
  8  9  1  0  0  0
  9 14  2  0  0  0
  9 10  1  0  0  0
 10 11  2  0  0  0
 10 36  1  0  0  0
 11 12  1  0  0  0
 11 16  1  0  0  0
 12 13  2  0  0  0
 12 37  1  0  0  0
 13 14  1  0  0  0
 13 38  1  0  0  0
 14 15  1  0  0  0
 15 28  1  0  0  0
 16 17  2  0  0  0
 16 18  1  0  0  0
 18 19  1  0  0  0
 18 39  1  0  0  0
 19 24  1  0  0  0
 19 20  2  0  0  0
 20 21  1  0  0  0
 20 40  1  0  0  0
 21 22  2  0  0  0
 21 41  1  0  0  0
 22 23  1  0  0  0
 22 25  1  0  0  0
 23 24  2  0  0  0
 23 42  1  0  0  0
 24 43  1  0  0  0
 25 26  2  0  0  0
 25 27  1  0  0  0
 27 44  1  0  0  0
 27 45  1  0  0  0
M  END
> <s_m_entry_id>
9417

> <s_m_entry_name>
ligand_docking-pose.33

> <s_m_Source_Path>
/home/csk/Desktop/cluster/DUD-E-result/mapk2

> <s_m_Source_File>
ligand_docking-pose.sdf

> <i_m_Source_File_Index>
33

> <i_lp_mmshare_version>
53161

> <r_lp_tautomer_probability>
1

> <s_lp_Force_Field>
OPLS_2005

> <r_lp_Energy>
31.840182

> <b_lp_Chiralities_Consistent>
1

> <s_lp_Variant>
412062-2

> <s_i_glide_gridfile>
glide-grid_3m2w

> <i_i_glide_lignum>
148

> <i_i_glide_rotatable_bonds>
4

> <r_i_docking_score>
-7.00340941466824

> <r_i_glide_ligand_efficiency>
-0.259385533876602

> <r_i_glide_ligand_efficiency_sa>
-0.778156600774913

> <r_i_glide_ligand_efficiency_ln>
-1.63027825150686

> <r_i_glide_gscore>
-7.00340941466824

> <r_i_glide_lipo>
-2.67805519624868

> <r_i_glide_hbond>
-0.292251356292727

> <r_i_glide_metal>
0

> <r_i_glide_rewards>
-1.14107761333621

> <r_i_glide_evdw>
-42.7829322814941

> <r_i_glide_ecoul>
-7.15481519699097

> <r_i_glide_erotb>
0.438651858152265

> <r_i_glide_esite>
-0.118308213319543

> <r_i_glide_emodel>
-69.8991804859824

> <r_i_glide_energy>
-49.9377474784851

> <r_i_glide_einternal>
2.15550684928894

> <i_i_glide_confnum>
1

> <i_i_glide_posenum>
384

> <r_i_glide_eff_state_penalty>
0

> <i_f3d_flags>
0

> <s_user_duplicate_titles>
412062

> <s_m_subgroup_title>
dock_pv

> <s_m_subgroupid>
dock_pv1

> <b_m_subgroup_collapsed>
0

$$$$
302016
                    3D
 Schrodinger Suite 2021-1.
 32 34  0  0  1  0            999 V2000
   36.4262    5.2213   22.2973 C   0  0  0  0  0  0
   36.1737    4.8625   20.9742 C   0  0  0  0  0  0
   36.9029    5.4262   19.9219 C   0  0  0  0  0  0
   37.8982    6.3828   20.2338 C   0  0  0  0  0  0
   38.1354    6.7593   21.5629 C   0  0  0  0  0  0
   37.4077    6.1655   22.5923 C   0  0  0  0  0  0
   39.0781    7.7070   21.8726 O   0  0  0  0  0  0
   38.6573    7.0185   19.2605 O   0  0  0  0  0  0
   38.7895    6.2773   18.0516 C   0  0  2  0  0  0
   39.6480    7.0409   17.0526 C   0  0  0  0  0  0
   39.4631    6.9412   15.7228 C   0  0  0  0  0  0
   38.3845    6.1018   15.2059 C   0  0  0  0  0  0
   37.4013    5.6250   16.0044 C   0  0  0  0  0  0
   37.3600    5.9775   17.4988 C   0  0  1  0  0  0
   36.6718    4.9936   18.4731 C   0  0  0  0  0  0
   36.3557    4.8630   15.5434 N   0  0  0  0  0  0
   38.3445    5.8161   13.8095 C   0  0  0  0  0  0
   38.2770    5.6250   12.6728 N   0  0  0  0  0  0
   40.2770    7.6481   14.8753 N   0  0  0  0  0  0
   35.8613    4.7648   23.0977 H   0  0  0  0  0  0
   35.4178    4.1184   20.7669 H   0  0  0  0  0  0
   37.5955    6.4389   23.6211 H   0  0  0  0  0  0
   39.3626    7.6582   22.7949 H   0  0  0  0  0  0
   39.3248    5.3488   18.2715 H   0  0  0  0  0  0
   40.4486    7.6606   17.4309 H   0  0  0  0  0  0
   36.7770    6.8957   17.5401 H   0  0  0  0  0  0
   37.0779    3.9910   18.3487 H   0  0  0  0  0  0
   35.6025    4.9222   18.2660 H   0  0  0  0  0  0
   35.5374    4.7000   16.1171 H   0  0  0  0  0  0
   36.3206    4.5491   14.5841 H   0  0  0  0  0  0
   40.1849    7.5658   13.8723 H   0  0  0  0  0  0
   40.9979    8.2593   15.2314 H   0  0  0  0  0  0
  1  6  1  0  0  0
  1  2  2  0  0  0
  1 20  1  0  0  0
  2  3  1  0  0  0
  2 21  1  0  0  0
  3 15  1  0  0  0
  3  4  2  0  0  0
  4  5  1  0  0  0
  4  8  1  0  0  0
  5  6  2  0  0  0
  5  7  1  0  0  0
  6 22  1  0  0  0
  7 23  1  0  0  0
  8  9  1  0  0  0
  9 14  1  0  0  0
  9 10  1  0  0  0
  9 24  1  0  0  0
 10 11  2  0  0  0
 10 25  1  0  0  0
 11 12  1  0  0  0
 11 19  1  0  0  0
 12 13  2  0  0  0
 12 17  1  0  0  0
 13 14  1  0  0  0
 13 16  1  0  0  0
 14 15  1  0  0  0
 14 26  1  0  0  0
 15 27  1  0  0  0
 15 28  1  0  0  0
 16 29  1  0  0  0
 16 30  1  0  0  0
 17 18  3  0  0  0
 19 31  1  0  0  0
 19 32  1  0  0  0
M  END
> <s_m_entry_id>
9418

> <s_m_entry_name>
ligand_docking-pose.34

> <s_m_Source_Path>
/home/csk/Desktop/cluster/DUD-E-result/mapk2

> <s_m_Source_File>
ligand_docking-pose.sdf

> <i_m_Source_File_Index>
34

> <i_lp_mmshare_version>
53161

> <r_lp_tautomer_probability>
1

> <s_lp_Force_Field>
OPLS_2005

> <r_lp_Energy>
22.476563

> <b_lp_Chiralities_Consistent>
1

> <s_lp_Variant>
302016-4

> <s_i_glide_gridfile>
glide-grid_3m2w

> <i_i_glide_lignum>
35

> <i_i_glide_rotatable_bonds>
1

> <r_i_docking_score>
-6.99816569130631

> <r_i_glide_ligand_efficiency>
-0.368324510068753

> <r_i_glide_ligand_efficiency_sa>
-0.982837728967528

> <r_i_glide_ligand_efficiency_ln>
-1.77418530956339

> <r_i_glide_gscore>
-6.99816569130631

> <r_i_glide_lipo>
-1.59485872471521

> <r_i_glide_hbond>
-0.55427956276718

> <r_i_glide_metal>
0

> <r_i_glide_rewards>
-2.09457158893912

> <r_i_glide_evdw>
-28.698543548584

> <r_i_glide_ecoul>
-8.5775146484375

> <r_i_glide_erotb>
0

> <r_i_glide_esite>
-0.0329014401899709

> <r_i_glide_emodel>
-53.1790491851938

> <r_i_glide_energy>
-37.2760581970215

> <r_i_glide_einternal>
0.451958984136581

> <i_i_glide_confnum>
1

> <i_i_glide_posenum>
302

> <r_i_glide_eff_state_penalty>
0

> <i_f3d_flags>
0

> <s_user_duplicate_titles>
302016

> <s_m_subgroup_title>
dock_pv

> <s_m_subgroupid>
dock_pv1

> <b_m_subgroup_collapsed>
0

$$$$
302111
                    3D
 Schrodinger Suite 2021-1.
 40 42  0  0  1  0            999 V2000
   36.5134    4.8551   21.4982 C   0  0  0  0  0  0
   37.2221    5.3738   20.4082 C   0  0  0  0  0  0
   38.3035    6.2410   20.6759 C   0  0  0  0  0  0
   38.6481    6.5794   21.9834 C   0  0  0  0  0  0
   37.9256    6.0583   23.0547 C   0  0  0  0  0  0
   36.8576    5.1880   22.8096 C   0  0  0  0  0  0
   36.1468    4.6493   23.8502 O   0  0  0  0  0  0
   38.2780    6.4064   24.3365 O   0  0  0  0  0  0
   39.0448    6.8604   19.6869 O   0  0  0  0  0  0
   39.0505    6.1747   18.4371 C   0  0  2  0  0  0
   39.8333    6.9933   17.4210 C   0  0  0  0  0  0
   39.5546    6.9632   16.1048 C   0  0  0  0  0  0
   38.4743    6.1111   15.6131 C   0  0  0  0  0  0
   37.5345    5.6010   16.4555 C   0  0  0  0  0  0
   37.5811    5.9381   17.9611 C   0  0  1  0  0  0
   36.8701    4.9943   18.9686 C   0  0  0  0  0  0
   36.5018    4.7469   16.1178 N   0  0  0  0  0  0
   36.2367    4.0324   14.8789 C   0  0  0  0  0  0
   35.2485    2.8733   15.0578 C   0  0  0  0  0  0
   35.0777    2.1776   13.8453 O   0  0  0  0  0  0
   38.4556    5.8219   14.2132 C   0  0  0  0  0  0
   38.4694    5.6249   13.0726 N   0  0  0  0  0  0
   40.2772    7.7497   15.2459 N   0  0  0  0  0  0
   35.6925    4.1728   21.3294 H   0  0  0  0  0  0
   39.4766    7.2472   22.1668 H   0  0  0  0  0  0
   36.4840    4.9784   24.6877 H   0  0  0  0  0  0
   39.1575    6.8186   24.3817 H   0  0  0  0  0  0
   39.5762    5.2253   18.5659 H   0  0  0  0  0  0
   40.6406    7.6169   17.7776 H   0  0  0  0  0  0
   37.0455    6.8775   18.0417 H   0  0  0  0  0  0
   37.1443    3.9537   18.8013 H   0  0  0  0  0  0
   35.7886    5.0392   18.8320 H   0  0  0  0  0  0
   35.7018    4.7146   16.7374 H   0  0  0  0  0  0
   35.8741    4.7258   14.1194 H   0  0  0  0  0  0
   37.1702    3.6254   14.4889 H   0  0  0  0  0  0
   35.5978    2.2117   15.8514 H   0  0  0  0  0  0
   34.3025    3.2247   15.4687 H   0  0  0  0  0  0
   35.9564    2.0246   13.4692 H   0  0  0  0  0  0
   40.1103    7.7215   14.2501 H   0  0  0  0  0  0
   41.0070    8.3615   15.5823 H   0  0  0  0  0  0
  1  6  1  0  0  0
  1  2  2  0  0  0
  1 24  1  0  0  0
  2 16  1  0  0  0
  2  3  1  0  0  0
  3  4  2  0  0  0
  3  9  1  0  0  0
  4  5  1  0  0  0
  4 25  1  0  0  0
  5  6  2  0  0  0
  5  8  1  0  0  0
  6  7  1  0  0  0
  7 26  1  0  0  0
  8 27  1  0  0  0
  9 10  1  0  0  0
 10 15  1  0  0  0
 10 11  1  0  0  0
 10 28  1  0  0  0
 11 12  2  0  0  0
 11 29  1  0  0  0
 12 13  1  0  0  0
 12 23  1  0  0  0
 13 14  2  0  0  0
 13 21  1  0  0  0
 14 15  1  0  0  0
 14 17  1  0  0  0
 15 16  1  0  0  0
 15 30  1  0  0  0
 16 31  1  0  0  0
 16 32  1  0  0  0
 17 18  1  0  0  0
 17 33  1  0  0  0
 18 19  1  0  0  0
 18 34  1  0  0  0
 18 35  1  0  0  0
 19 20  1  0  0  0
 19 36  1  0  0  0
 19 37  1  0  0  0
 20 38  1  0  0  0
 21 22  3  0  0  0
 23 39  1  0  0  0
 23 40  1  0  0  0
M  END
> <s_m_entry_id>
9420

> <s_m_entry_name>
ligand_docking-pose.36

> <s_m_Source_Path>
/home/csk/Desktop/cluster/DUD-E-result/mapk2

> <s_m_Source_File>
ligand_docking-pose.sdf

> <i_m_Source_File_Index>
36

> <i_lp_mmshare_version>
53161

> <r_lp_tautomer_probability>
0.999999724415991

> <s_lp_Force_Field>
OPLS_2005

> <r_lp_Energy>
28.418222

> <b_lp_Chiralities_Consistent>
1

> <s_lp_Variant>
302111-2

> <s_i_glide_gridfile>
glide-grid_3m2w

> <i_i_glide_lignum>
15

> <i_i_glide_rotatable_bonds>
6

> <r_i_docking_score>
-6.96023896189641

> <r_i_glide_ligand_efficiency>
-0.302619085299844

> <r_i_glide_ligand_efficiency_sa>
-0.860608423257633

> <r_i_glide_ligand_efficiency_ln>
-1.68304889294413

> <r_i_glide_gscore>
-6.96023896189641

> <r_i_glide_lipo>
-1.65795557545462

> <r_i_glide_hbond>
-0.800182010371516

> <r_i_glide_metal>
0

> <r_i_glide_rewards>
-1.75712090814035

> <r_i_glide_evdw>
-33.4320945739746

> <r_i_glide_ecoul>
-10.6727504730225

> <r_i_glide_erotb>
0.561233485161446

> <r_i_glide_esite>
-0.0336966534392723

> <r_i_glide_emodel>
-61.5682883685986

> <r_i_glide_energy>
-44.1048450469971

> <r_i_glide_einternal>
3.14427804946899

> <i_i_glide_confnum>
13

> <i_i_glide_posenum>
143

> <r_i_glide_eff_state_penalty>
0

> <i_f3d_flags>
0

> <s_user_duplicate_titles>
302111

> <s_m_subgroup_title>
dock_pv

> <s_m_subgroupid>
dock_pv1

> <b_m_subgroup_collapsed>
0

$$$$
