552105
                    3D
 Schrodinger Suite 2021-1.
 29 30  0  0  1  0            999 V2000
   39.7510    7.9289    7.8282 C   0  0  0  0  0  0
   38.5761    7.3018    8.2418 C   0  0  0  0  0  0
   38.0311    6.2579    7.4908 C   0  0  0  0  0  0
   38.6538    5.8322    6.3044 C   0  0  0  0  0  0
   39.8411    6.4734    5.9111 C   0  0  0  0  0  0
   40.3912    7.5107    6.6637 C   0  0  0  0  0  0
   40.4860    6.0258    4.7610 N   0  0  0  0  0  0
   40.0860    5.0201    3.9556 C   0  0  0  0  0  0
   40.7637    4.5672    3.0310 O   0  0  0  0  0  0
   38.7356    4.4096    4.2695 C   0  0  0  0  0  0
   38.2530    3.6374    3.4310 O   0  0  0  0  0  0
   38.1546    4.7952    5.4558 N   0  0  0  0  0  0
   36.9368    4.0578    5.8701 C   0  0  0  0  0  0
   37.2357    2.8504    6.7968 C   0  0  1  0  0  0
   35.9500    2.2856    7.4486 C   0  0  0  0  0  0
   35.2860    1.3650    6.9690 O   0  0  0  0  0  0
   35.6544    2.9407    8.6088 O   0  0  0  0  0  0
   37.9434    1.7650    6.0858 N   0  0  0  0  0  0
   41.3810    6.4375    4.5091 H   0  0  0  0  0  0
   37.8766    3.1923    7.6117 H   0  0  0  0  0  0
   40.1659    8.7379    8.4116 H   0  0  0  0  0  0
   38.0853    7.6311    9.1461 H   0  0  0  0  0  0
   37.1209    5.8075    7.8506 H   0  0  0  0  0  0
   41.3073    7.9918    6.3515 H   0  0  0  0  0  0
   36.3894    3.6911    4.9993 H   0  0  0  0  0  0
   36.2183    4.7386    6.3253 H   0  0  0  0  0  0
   36.3045    3.6072    8.8380 H   0  0  0  0  0  0
   37.9611    0.8764    6.5986 H   0  0  0  0  0  0
   37.5476    1.5801    5.1753 H   0  0  0  0  0  0
  1  6  1  0  0  0
  1  2  2  0  0  0
  1 21  1  0  0  0
  2  3  1  0  0  0
  2 22  1  0  0  0
  3  4  2  0  0  0
  3 23  1  0  0  0
  4 12  1  0  0  0
  4  5  1  0  0  0
  5  6  2  0  0  0
  5  7  1  0  0  0
  6 24  1  0  0  0
  7 19  1  0  0  0
  7  8  1  0  0  0
  8  9  2  0  0  0
  8 10  1  0  0  0
 10 11  2  0  0  0
 10 12  1  0  0  0
 12 13  1  0  0  0
 13 14  1  0  0  0
 13 25  1  0  0  0
 13 26  1  0  0  0
 14 20  1  0  0  0
 14 15  1  0  0  0
 14 18  1  0  0  0
 15 16  2  0  0  0
 15 17  1  0  0  0
 17 27  1  0  0  0
 18 28  1  0  0  0
 18 29  1  0  0  0
M  END
> <s_m_entry_id>
4546

> <s_m_entry_name>
ligand_docking-pose.1

> <s_m_Source_Path>
/home/csk/Desktop/cluster/DUD-E-result/grik1

> <s_m_Source_File>
ligand_docking-pose.sdf

> <i_m_Source_File_Index>
1

> <i_lp_mmshare_version>
53161

> <r_lp_tautomer_probability>
1

> <s_lp_Force_Field>
OPLS_2005

> <r_lp_Energy>
33.714664

> <b_lp_Chiralities_Consistent>
1

> <s_lp_Variant>
552105-1

> <s_i_glide_gridfile>
glide-grid_1vso

> <i_i_glide_lignum>
16

> <i_i_glide_rotatable_bonds>
4

> <r_i_docking_score>
-6.94890962906767

> <r_i_glide_ligand_efficiency>
-0.386050534948204

> <r_i_glide_ligand_efficiency_sa>
-1.01173861622048

> <r_i_glide_ligand_efficiency_ln>
-1.78618138869729

> <r_i_glide_gscore>
-6.94890962906767

> <r_i_glide_lipo>
-0.572299300871222

> <r_i_glide_hbond>
-1.55552107896085

> <r_i_glide_metal>
0

> <r_i_glide_rewards>
-1.70984495454545

> <r_i_glide_evdw>
-21.3036556243896

> <r_i_glide_ecoul>
-16.7988319396973

> <r_i_glide_erotb>
0.562996763355281

> <r_i_glide_esite>
-0.0892334858713481

> <r_i_glide_emodel>
-55.790260359045

> <r_i_glide_energy>
-38.1024875640869

> <r_i_glide_einternal>
1.13730156421661

> <i_i_glide_confnum>
1

> <i_i_glide_posenum>
320

> <r_i_glide_eff_state_penalty>
0

> <i_f3d_flags>
0

> <s_m_subgroup_title>
dock_pv

> <s_m_subgroupid>
dock_pv1

> <b_m_subgroup_collapsed>
0

$$$$
